@<TRIPOS>MOLECULE
tmp/4lv7B00.pdb
 178 166 0 0 0
SMALL
GASTEIGER

@<TRIPOS>ATOM
      1  N         17.3130   33.9520  -15.1410 N.3    17  GLY17      -0.1210
      2  CA        17.5650   33.6130  -13.7490 C.3    17  GLY17       0.1956
      3  C         16.4200   34.1710  -12.9230 C.2    17  GLY17       0.2612
      4  O         15.2620   34.1230  -13.3440 O.2    17  GLY17      -0.2717
      5  N         16.7250   34.7080  -11.7500 N.am   18  GLY18      -0.1942
      6  CA        15.6950   35.2990  -10.9230 C.3    18  GLY18       0.2014
      7  C         15.6300   36.8010  -11.1230 C.2    18  GLY18       0.2638
      8  O         14.5780   37.4130  -10.9250 O.2    18  GLY18      -0.2714
      9  N         16.7470   37.3940  -11.5360 N.am   19  ALA19      -0.1977
     10  CA        16.8360   38.8460  -11.6620 C.3    19  ALA19       0.1597
     11  C         16.4720   39.4060  -13.0390 C.2    19  ALA19       0.2287
     12  O         15.7950   40.4190  -13.1430 O.2    19  ALA19      -0.2864
     13  CB        18.2190   39.3170  -11.2630 C.3    19  ALA19       0.0319
     14  N          6.6080   28.7980  -12.1780 N.3   113  TRP113     -0.1227
     15  CA         7.0080   29.3990  -10.9070 C.3   113  TRP113      0.1737
     16  C          7.8710   30.6570  -11.1040 C.2   113  TRP113      0.2595
     17  O          8.0630   31.4420  -10.1750 O.2   113  TRP113     -0.2718
     18  CB         7.7510   28.3700  -10.0670 C.3   113  TRP113      0.0564
     19  CG         9.0410   27.9930  -10.6940 C.ar  113  TRP113      0.0003
     20  CD1        9.2250   27.1410  -11.7400 C.ar  113  TRP113      0.0946
     21  CD2       10.3350   28.4850  -10.3410 C.ar  113  TRP113      0.0152
     22  NE1       10.5560   27.0610  -12.0550 N.ar  113  TRP113     -0.2442
     23  CE2       11.2630   27.8750  -11.2080 C.ar  113  TRP113      0.0810
     24  CE3       10.7970   29.3750   -9.3680 C.ar  113  TRP113      0.0012
     25  CZ2       12.6310   28.1180  -11.1330 C.ar  113  TRP113      0.0191
     26  CZ3       12.1480   29.6210   -9.2910 C.ar  113  TRP113      0.0001
     27  CH2       13.0570   28.9890  -10.1730 C.ar  113  TRP113      0.0015
     28  N          8.3990   30.8400  -12.3070 N.am  114  ARG114     -0.1980
     29  CA         9.1130   32.0600  -12.6220 C.3   114  ARG114      0.1597
     30  C          8.1000   33.1660  -12.8750 C.2   114  ARG114      0.2287
     31  O          8.2170   34.2710  -12.3400 O.2   114  ARG114     -0.2864
     32  CB        10.0050   31.8660  -13.8430 C.3   114  ARG114      0.0334
     33  CG        11.2420   31.0040  -13.6040 C.3   114  ARG114      0.0492
     34  CD        12.1880   31.6370  -12.5930 C.3   114  ARG114      0.2205
     35  NE        13.5680   31.2050  -12.8030 N.pl3 114  ARG114     -0.0865
     36  CZ        14.5730   31.4460  -11.9620 C.cat 114  ARG114      0.5346
     37  NH1       14.3630   32.1210  -10.8280 N.pl3 114  ARG114      0.1354
     38  NH2       15.7890   30.9960  -12.2560 N.pl3 114  ARG114      0.1354
     39  N         27.3570   27.1620  -14.1270 N.3   146  LYS146     -0.1245
     40  CA        27.1290   27.9810  -12.9460 C.3   146  LYS146      0.1561
     41  C         27.7300   27.2040  -11.8010 C.2   146  LYS146      0.2260
     42  O         27.0490   26.3780  -11.1900 O.2   146  LYS146     -0.2867
     43  CB        25.6390   28.2320  -12.7250 C.3   146  LYS146      0.0271
     44  CG        25.3300   28.9090  -11.4140 C.3   146  LYS146      0.0035
     45  CD        23.9450   29.4740  -11.3720 C.3   146  LYS146      0.0206
     46  CE        23.7760   30.1980  -10.0650 C.3   146  LYS146      0.1093
     47  NZ        22.5330   30.9650  -10.0250 N.3   146  LYS146     -0.1314
     48  N         28.9040   27.9380   -8.7970 N.3   148  LYS148     -0.1245
     49  CA        28.6380   28.3100   -7.4130 C.3   148  LYS148      0.1561
     50  C         29.9280   28.3340   -6.6330 C.2   148  LYS148      0.2260
     51  O         30.9830   28.4930   -7.2140 O.2   148  LYS148     -0.2867
     52  CB        27.6350   27.3720   -6.7770 C.3   148  LYS148      0.0271
     53  CG        26.3930   27.2020   -7.6000 C.3   148  LYS148      0.0035
     54  CD        25.5720   28.4850   -7.6630 C.3   148  LYS148      0.0206
     55  CE        25.2770   29.0170   -6.2530 C.3   148  LYS148      0.1093
     56  NZ        24.0130   29.7800   -6.1510 N.3   148  LYS148     -0.1314
     57  N         28.8210   24.5270    0.9370 N.3   170  ARG170     -0.1245
     58  CA        27.5200   25.1650    1.0080 C.3   170  ARG170      0.1563
     59  C         26.5950   24.5490   -0.0150 C.2   170  ARG170      0.2260
     60  O         25.3990   24.3880    0.2370 O.2   170  ARG170     -0.2867
     61  CB        27.6570   26.6680    0.7760 C.3   170  ARG170      0.0307
     62  CG        26.5180   27.2970    0.0010 C.3   170  ARG170      0.0489
     63  CD        25.1860   27.2600    0.7540 C.3   170  ARG170      0.2205
     64  NE        25.1560   28.1720    1.8950 N.pl3 170  ARG170     -0.0865
     65  CZ        24.6540   29.4040    1.8680 C.cat 170  ARG170      0.5346
     66  NH1       24.1130   29.8790    0.7630 N.pl3 170  ARG170      0.1354
     67  NH2       24.6790   30.1540    2.9570 N.pl3 170  ARG170      0.1354
     68  N         23.0780   22.7420    0.6470 N.3   174  HIS174     -0.1241
     69  CA        21.9470   23.4820    0.1290 C.3   174  HIS174      0.1621
     70  C         21.0800   22.5280   -0.6840 C.2   174  HIS174      0.2264
     71  O         19.8610   22.6570   -0.7350 O.2   174  HIS174     -0.2867
     72  CB        22.4550   24.6380   -0.7120 C.3   174  HIS174      0.0745
     73  CG        21.4690   25.7260   -0.9050 C.ar  174  HIS174      0.0817
     74  ND1       21.8110   26.9540   -1.4350 N.ar  174  HIS174     -0.2268
     75  CD2       20.1360   25.7890   -0.6480 C.ar  174  HIS174      0.1154
     76  CE1       20.7360   27.7190   -1.5030 C.ar  174  HIS174      0.1986
     77  NE2       19.7090   27.0300   -1.0280 N.ar  174  HIS174     -0.2212
     78  N         17.0580   22.0940   -0.7140 N.3   178  LYS178     -0.1245
     79  CA        16.3000   22.3470   -1.9220 C.3   178  LYS178      0.1561
     80  C         15.3530   21.1770   -2.1110 C.2   178  LYS178      0.2260
     81  O         14.1640   21.3590   -2.3290 O.2   178  LYS178     -0.2867
     82  CB        17.2140   22.5200   -3.1310 C.3   178  LYS178      0.0271
     83  CG        17.9460   23.8570   -3.1830 C.3   178  LYS178      0.0035
     84  CD        18.9100   23.8730   -4.3520 C.3   178  LYS178      0.0206
     85  CE        19.9350   24.9880   -4.2540 C.3   178  LYS178      0.1093
     86  NZ        19.3190   26.3350   -4.3140 N.3   178  LYS178     -0.1314
     87  N         20.2620   23.7620  -12.4820 N.3   216  ASN216     -0.1225
     88  CA        20.4570   25.0930  -13.0680 C.3   216  ASN216      0.1785
     89  C         21.9410   25.4520  -13.2470 C.2   216  ASN216      0.2597
     90  O         22.2860   26.6090  -13.4990 O.2   216  ASN216     -0.2718
     91  CB        19.6860   26.1780  -12.2990 C.3   216  ASN216      0.1169
     92  CG        20.3290   26.5440  -10.9740 C.2   216  ASN216      0.2627
     93  OD1       21.1980   25.8400  -10.4590 O.2   216  ASN216     -0.2716
     94  ND2       19.8960   27.6610  -10.4140 N.am  216  ASN216     -0.0877
     95  N         22.7820   24.4200  -13.1660 N.am  217  ASN217     -0.1974
     96  CA        24.2400   24.5260  -13.1960 C.3   217  ASN217      0.1688
     97  C         24.9220   24.3090  -14.5520 C.2   217  ASN217      0.2292
     98  O         26.0490   24.7550  -14.7580 O.2   217  ASN217     -0.2864
     99  CB        24.8560   23.5590  -12.1700 C.3   217  ASN217      0.1181
    100  CG        24.4350   23.8760  -10.7230 C.2   217  ASN217      0.2629
    101  OD1       23.6800   23.1240  -10.1040 O.2   217  ASN217     -0.2716
    102  ND2       24.9400   24.9900  -10.1820 N.am  217  ASN217     -0.0877
    103  N         15.2730   27.6280  -15.8400 N.3   233  GLU233     -0.1231
    104  CA        15.0920   26.8830  -14.5950 C.3   233  GLU233      0.1699
    105  C         16.0760   25.7190  -14.4970 C.2   233  GLU233      0.2592
    106  O         16.7490   25.3830  -15.4710 O.2   233  GLU233     -0.2718
    107  CB        13.6470   26.3520  -14.5140 C.3   233  GLU233      0.0402
    108  CG        13.2890   25.3070  -15.5960 C.3   233  GLU233      0.1161
    109  CD        11.8350   24.8290  -15.5160 C.2   233  GLU233      0.3649
    110  OE1       11.3040   24.7750  -14.3870 O.co2 233  GLU233     -0.2457
    111  OE2       11.2260   24.5080  -16.5750 O.co2 233  GLU233     -0.2457
    112  N         16.1630   25.0940  -13.3260 N.am  234  SER234     -0.1952
    113  CA        16.8550   23.8120  -13.2470 C.3   234  SER234      0.1924
    114  C         16.0210   22.7030  -13.9240 C.2   234  SER234      0.2314
    115  O         14.8510   22.9120  -14.2530 O.2   234  SER234     -0.2863
    116  CB        17.2180   23.4490  -11.7980 C.3   234  SER234      0.2116
    117  OG        16.0810   23.3540  -10.9680 O.3   234  SER234     -0.2180
    118  N         29.7250   37.5910   -3.4050 N.3   330  ALA330     -0.1245
    119  CA        28.4070   37.0550   -3.6820 C.3   330  ALA330      0.1562
    120  C         28.1380   37.0210   -5.1890 C.2   330  ALA330      0.2260
    121  O         27.6490   35.9940   -5.7230 O.2   330  ALA330     -0.2867
    122  CB        27.3340   37.8730   -2.9580 C.3   330  ALA330      0.0290
    123  N         27.9120   33.4430   -7.9340 N.3   334  ASP334     -0.1239
    124  CA        26.6160   33.1850   -8.5290 C.3   334  ASP334      0.1674
    125  C         26.6300   33.4670  -10.0170 C.2   334  ASP334      0.2266
    126  O         25.6830   33.2040  -10.7060 O.2   334  ASP334     -0.2867
    127  CB        25.5580   34.0390   -7.8250 C.3   334  ASP334      0.1410
    128  CG        24.1450   33.6540   -8.2000 C.2   334  ASP334      0.3668
    129  OD1       23.7250   32.5390   -7.8300 O.co2 334  ASP334     -0.2456
    130  OD2       23.4500   34.4700   -8.8420 O.co2 334  ASP334     -0.2456
    131  N         25.9230   36.6380  -16.1120 N.3   364  ASP364     -0.1239
    132  CA        25.1700   36.7270  -14.8690 C.3   364  ASP364      0.1674
    133  C         26.0830   37.3620  -13.8510 C.2   364  ASP364      0.2266
    134  O         26.3820   36.7800  -12.8130 O.2   364  ASP364     -0.2867
    135  CB        24.6640   35.3580  -14.4000 C.3   364  ASP364      0.1410
    136  CG        23.6500   35.4570  -13.2670 C.2   364  ASP364      0.3668
    137  OD1       23.2320   36.5870  -12.9100 O.co2 364  ASP364     -0.2456
    138  OD2       23.2600   34.4030  -12.7270 O.co2 364  ASP364     -0.2456
    139  N         24.5990   42.6120   -6.0520 N.3   368  LYS368     -0.1245
    140  CA        23.6900   42.0480   -5.0590 C.3   368  LYS368      0.1561
    141  C         23.2170   43.1820   -4.1430 C.2   368  LYS368      0.2260
    142  O         24.0290   43.9550   -3.6320 O.2   368  LYS368     -0.2867
    143  CB        24.3810   40.9310   -4.2590 C.3   368  LYS368      0.0271
    144  CG        24.9090   39.7760   -5.0920 C.3   368  LYS368      0.0035
    145  CD        23.8130   39.1120   -5.9230 C.3   368  LYS368      0.0206
    146  CE        24.3920   38.1130   -6.9380 C.3   368  LYS368      0.1093
    147  NZ        23.3860   37.3160   -7.7090 N.3   368  LYS368     -0.1314
    148  N         20.1450   42.4540    1.2370 N.3   372  ARG372     -0.1245
    149  CA        20.2060   40.9960    1.1420 C.3   372  ARG372      0.1563
    150  C         21.1960   40.3720    2.1430 C.2   372  ARG372      0.2260
    151  O         21.3310   39.1510    2.1920 O.2   372  ARG372     -0.2867
    152  CB        20.5300   40.5770   -0.2930 C.3   372  ARG372      0.0307
    153  CG        20.2880   39.1160   -0.5840 C.3   372  ARG372      0.0489
    154  CD        20.3400   38.8160   -2.0870 C.3   372  ARG372      0.2205
    155  NE        19.2610   39.4810   -2.8030 N.pl3 372  ARG372     -0.0865
    156  CZ        19.0810   39.4010   -4.1180 C.cat 372  ARG372      0.5346
    157  NH1       19.9180   38.6940   -4.8650 N.pl3 372  ARG372      0.1354
    158  NH2       18.0740   40.0390   -4.6900 N.pl3 372  ARG372      0.1354
    159  N         20.4660   36.7210    3.3400 N.3   376  TYR376     -0.1241
    160  CA        21.6630   35.8900    3.2920 C.3   376  TYR376      0.1605
    161  C         21.8640   35.1040    4.5880 C.2   376  TYR376      0.2264
    162  O         22.0100   33.8770    4.5370 O.2   376  TYR376     -0.2867
    163  CB        22.9100   36.7360    2.9840 C.3   376  TYR376      0.0534
    164  CG        23.0680   37.0400    1.5080 C.ar  376  TYR376     -0.0201
    165  CD1       23.7220   38.1870    1.0740 C.ar  376  TYR376     -0.0009
    166  CD2       22.5440   36.1860    0.5420 C.ar  376  TYR376     -0.0009
    167  CE1       23.8530   38.4630   -0.2750 C.ar  376  TYR376      0.0417
    168  CE2       22.6770   36.4590   -0.7910 C.ar  376  TYR376      0.0417
    169  CZ        23.3300   37.5970   -1.1980 C.ar  376  TYR376      0.1957
    170  OH        23.4610   37.8740   -2.5370 O.3   376  TYR376     -0.2866
    171  N         19.1070   32.5940    5.3930 N.3   379  LEU379     -0.1245
    172  CA        19.2190   31.4670    4.5030 C.3   379  LEU379      0.1561
    173  C         20.3350   30.5460    4.9810 C.2   379  LEU379      0.2260
    174  O         20.1810   29.3230    4.9990 O.2   379  LEU379     -0.2867
    175  CB        19.4480   31.9110    3.0660 C.3   379  LEU379      0.0270
    176  CG        19.5600   30.7070    2.1370 C.3   379  LEU379      0.0019
    177  CD1       18.2090   30.0340    2.0490 C.3   379  LEU379      0.0001
    178  CD2       20.0980   31.1280    0.7610 C.3   379  LEU379      0.0001
@<TRIPOS>BOND
     1   111   109   ar
     2   131   132    1
     3   103   104    1
     4   108   109    1
     5   108   107    1
     6   109   110   ar
     7   106   105    2
     8     1     2    1
     9   132   135    1
    10   132   133    1
    11    98    97    2
    12   104   107    1
    13   104   105    1
    14    97    96    1
    15   105   112   am
    16   135   136    1
    17   115   114    2
    18    39    40    1
    19   114   113    1
    20   133   134    2
    21    32    33    1
    22    32    29    1
    23     2     3    1
    24    33    34    1
    25    90    89    2
    26     4     3    2
    27   112   113    1
    28   136   137   ar
    29   136   138   ar
    30    89    95   am
    31    89    88    1
    32   113   116    1
    33    96    95    1
    34    96    99    1
    35    12    11    2
    36    88    87    1
    37    88    91    1
    38    11    10    1
    39    40    43    1
    40    40    41    1
    41     3     5   am
    42    30    29    1
    43    30    31    2
    44    35    34    1
    45    35    36    2
    46    43    44    1
    47    29    28    1
    48    28    16   am
    49    91    92    1
    50    38    36    1
    51    14    15    1
    52    99   100    1
    53    22    20   ar
    54    22    23   ar
    55    36    37    1
    56    41    42    2
    57   116   117    1
    58     5     6    1
    59    20    19   ar
    60    10     9    1
    61    10    13    1
    62     9     7   am
    63    44    45    1
    64    45    46    1
    65    23    25   ar
    66    23    21   ar
    67    25    27   ar
    68     7     8    2
    69     7     6    1
    70    16    15    1
    71    16    17    2
    72    92    93    2
    73    92    94   am
    74    15    18    1
    75   100   102   am
    76   100   101    2
    77   126   125    2
    78    19    21   ar
    79    19    18    1
    80    21    24   ar
    81    27    26   ar
    82    46    47    1
    83   125   124    1
    84    24    26   ar
    85   130   128   ar
    86    48    49    1
    87   124   123    1
    88   124   127    1
    89   128   129   ar
    90   128   127    1
    91   147   146    1
    92    54    53    1
    93    54    55    1
    94    53    52    1
    95    49    52    1
    96    49    50    1
    97    51    50    2
    98   146   145    1
    99    55    56    1
   100   139   140    1
   101   145   144    1
   102   121   120    2
   103   120   119    1
   104   144   143    1
   105   140   143    1
   106   140   141    1
   107   157   156    1
   108   158   156    1
   109    84    85    1
   110    84    83    1
   111    86    85    1
   112   141   142    2
   113   156   155    2
   114   119   118    1
   115   119   122    1
   116    83    82    1
   117    82    79    1
   118   155   154    1
   119   170   169    1
   120    81    80    2
   121    80    79    1
   122   154   153    1
   123    79    78    1
   124    76    74   ar
   125    76    77   ar
   126    74    73   ar
   127   169   168   ar
   128   169   167   ar
   129    77    75   ar
   130    73    72    1
   131    73    75   ar
   132   168   166   ar
   133    71    70    2
   134    72    69    1
   135    70    69    1
   136   153   152    1
   137   152   149    1
   138   167   165   ar
   139    59    60    2
   140    59    58    1
   141    62    63    1
   142    62    61    1
   143    69    68    1
   144   166   164   ar
   145    63    64    1
   146   178   176    1
   147    66    65    1
   148    61    58    1
   149    57    58    1
   150   165   164   ar
   151   149   148    1
   152   149   150    1
   153   164   163    1
   154    65    64    2
   155    65    67    1
   156   177   176    1
   157   176   175    1
   158   150   151    2
   159   163   160    1
   160   175   172    1
   161   160   159    1
   162   160   161    1
   163   172   173    1
   164   172   171    1
   165   162   161    2
   166   173   174    2
