@<TRIPOS>MOLECULE
tmp/4lv8A00.pdb
 154 145 0 0 0
SMALL
GASTEIGER

@<TRIPOS>ATOM
      1  N          2.6270  -67.7070  130.2710 N.3    65  LEU65      -0.1231
      2  CA         3.6730  -66.6740  130.1440 C.3    65  LEU65       0.1693
      3  C          4.5770  -66.9010  128.9290 C.2    65  LEU65       0.2592
      4  O          4.7270  -66.0250  128.0860 O.2    65  LEU65      -0.2718
      5  CB         4.5190  -66.6170  131.4140 C.3    65  LEU65       0.0284
      6  CG         3.8450  -66.0320  132.6490 C.3    65  LEU65       0.0019
      7  CD1        4.7930  -66.0540  133.8340 C.3    65  LEU65       0.0001
      8  CD2        3.3870  -64.6080  132.3430 C.3    65  LEU65       0.0001
      9  N          5.1810  -68.0810  128.8400 N.am   66  ARG66      -0.1966
     10  CA         6.2160  -68.3340  127.8360 C.3    66  ARG66       0.1729
     11  C          6.2600  -69.7980  127.4600 C.2    66  ARG66       0.2616
     12  O          5.9580  -70.6580  128.2830 O.2    66  ARG66      -0.2715
     13  CB         7.6120  -67.9390  128.3610 C.3    66  ARG66       0.0348
     14  CG         7.8300  -66.4450  128.6340 C.3    66  ARG66       0.0492
     15  CD         8.0150  -65.5880  127.3540 C.3    66  ARG66       0.2205
     16  NE         9.4190  -65.4520  126.9490 N.pl3  66  ARG66      -0.0865
     17  CZ         9.9290  -65.9010  125.8050 C.cat  66  ARG66       0.5346
     18  NH1        9.1520  -66.5060  124.9100 N.pl3  66  ARG66       0.1354
     19  NH2       11.2200  -65.7410  125.5430 N.pl3  66  ARG66       0.1354
     20  N          6.6940  -70.0900  126.2390 N.am   67  VAL67      -0.1963
     21  CA         6.9300  -71.4760  125.8240 C.3    67  VAL67       0.1727
     22  C          8.4180  -71.7240  125.6340 C.2    67  VAL67       0.2617
     23  O          9.1330  -70.8820  125.0890 O.2    67  VAL67      -0.2715
     24  CB         6.1760  -71.7920  124.5100 C.3    67  VAL67       0.0290
     25  CG1        6.6260  -73.1150  123.9130 C.3    67  VAL67       0.0023
     26  CG2        4.6980  -71.8080  124.7650 C.3    67  VAL67       0.0023
     27  N          8.9010  -72.8670  126.1040 N.am   68  GLY68      -0.1940
     28  CA        10.2700  -73.2420  125.8260 C.3    68  GLY68       0.2014
     29  C         10.2990  -74.4530  124.9230 C.2    68  GLY68       0.2639
     30  O          9.2500  -74.9350  124.4810 O.2    68  GLY68      -0.2714
     31  N         11.4990  -74.9510  124.6580 N.am   69  ASP69      -0.1957
     32  CA        11.6640  -76.1180  123.8090 C.3    69  ASP69       0.1840
     33  C         11.0760  -77.3830  124.4400 C.2    69  ASP69       0.2622
     34  O         10.6290  -78.2750  123.7240 O.2    69  ASP69      -0.2715
     35  CB        13.1430  -76.3180  123.4790 C.3    69  ASP69       0.1450
     36  CG        13.7580  -75.0990  122.8290 C.2    69  ASP69       0.3671
     37  OD1       13.1890  -74.6040  121.8290 O.co2  69  ASP69      -0.2456
     38  OD2       14.8020  -74.6250  123.3280 O.co2  69  ASP69      -0.2456
     39  N         11.0620  -77.4510  125.7710 N.am   70  ARG70      -0.1963
     40  CA        10.5440  -78.6360  126.4640 C.3    70  ARG70       0.1729
     41  C          9.4760  -78.3230  127.5210 C.2    70  ARG70       0.2616
     42  O          9.1700  -79.1650  128.3730 O.2    70  ARG70      -0.2715
     43  CB        11.6920  -79.4300  127.1010 C.3    70  ARG70       0.0348
     44  CG        12.4160  -78.7280  128.2620 C.3    70  ARG70       0.0492
     45  CD        13.6350  -79.5370  128.7170 C.3    70  ARG70       0.2205
     46  NE        14.4180  -78.8700  129.7580 N.pl3  70  ARG70      -0.0865
     47  CZ        15.1670  -79.5040  130.6600 C.cat  70  ARG70       0.5346
     48  NH1       15.2280  -80.8300  130.6710 N.pl3  70  ARG70       0.1354
     49  NH2       15.8500  -78.8090  131.5620 N.pl3  70  ARG70       0.1354
     50  N          8.8900  -77.1300  127.4610 N.am   71  SER71      -0.1950
     51  CA         8.0460  -76.6890  128.5620 C.3    71  SER71       0.1924
     52  C          7.1090  -75.5350  128.2350 C.2    71  SER71       0.2314
     53  O          7.2410  -74.8570  127.2210 O.2    71  SER71      -0.2863
     54  CB         8.9290  -76.2570  129.7320 C.3    71  SER71       0.2116
     55  OG         9.5650  -75.0220  129.4100 O.3    71  SER71      -0.2180
     56  N          5.5620  -72.2400  130.6140 N.3    73  VAL73      -0.1245
     57  CA         5.6300  -71.6080  131.9180 C.3    73  VAL73       0.1561
     58  C          4.3930  -70.7430  132.0580 C.2    73  VAL73       0.2260
     59  O          4.0780  -69.9280  131.1660 O.2    73  VAL73      -0.2867
     60  CB         6.9350  -70.7620  132.0760 C.3    73  VAL73       0.0252
     61  CG1        6.8890  -69.9420  133.3530 C.3    73  VAL73       0.0019
     62  CG2        8.1620  -71.7000  132.0830 C.3    73  VAL73       0.0019
     63  N          5.6670  -68.3450  138.9100 N.3    86  ALA86      -0.1245
     64  CA         5.7910  -68.9270  137.5850 C.3    86  ALA86       0.1562
     65  C          5.7650  -70.4240  137.8310 C.2    86  ALA86       0.2260
     66  O          6.4000  -70.8980  138.7690 O.2    86  ALA86      -0.2867
     67  CB         7.1000  -68.5270  136.9470 C.3    86  ALA86       0.0290
     68  N          6.5320  -73.9790  135.9560 N.3    88  LYS88      -0.1245
     69  CA         7.0560  -74.5900  134.7380 C.3    88  LYS88       0.1561
     70  C          6.5520  -76.0150  134.6090 C.2    88  LYS88       0.2260
     71  O          6.7350  -76.8530  135.5060 O.2    88  LYS88      -0.2867
     72  CB         8.5820  -74.5730  134.7140 C.3    88  LYS88       0.0271
     73  CG         9.1980  -75.2310  133.4750 C.3    88  LYS88       0.0035
     74  CD        10.7060  -74.9140  133.4490 C.3    88  LYS88       0.0206
     75  CE        11.4270  -75.5290  132.2560 C.3    88  LYS88       0.1093
     76  NZ        12.9010  -75.2570  132.3170 N.3    88  LYS88      -0.1314
     77  N         17.9870  -67.1890  140.4520 N.3   126  LEU126     -0.1245
     78  CA        16.5590  -67.4290  140.6000 C.3   126  LEU126      0.1561
     79  C         16.3410  -68.8780  141.0200 C.2   126  LEU126      0.2260
     80  O         16.4890  -69.7910  140.2160 O.2   126  LEU126     -0.2867
     81  CB        15.8300  -67.1340  139.2890 C.3   126  LEU126      0.0270
     82  CG        14.3100  -66.9870  139.3660 C.3   126  LEU126      0.0019
     83  CD1       13.9500  -66.0840  140.5170 C.3   126  LEU126      0.0001
     84  CD2       13.7390  -66.4340  138.0730 C.3   126  LEU126      0.0001
     85  N          8.3060  -71.1510  140.9170 N.3   159  MET159     -0.1231
     86  CA         9.3990  -70.1780  141.0010 C.3   159  MET159      0.1687
     87  C          8.8210  -68.7960  141.1410 C.2   159  MET159      0.2434
     88  O          7.6590  -68.5810  140.8180 O.2   159  MET159     -0.2733
     89  CB        10.1850  -70.1500  139.6910 C.3   159  MET159      0.0400
     90  CG        10.7930  -71.4320  139.2680 C.3   159  MET159      0.0596
     91  SD        11.3130  -71.2180  137.5660 S.3   159  MET159     -0.1393
     92  CE         9.8290  -71.7150  136.6980 C.3   159  MET159      0.0692
     93  N          9.6490  -67.8340  141.5800 N.am  160  PRO160     -0.2729
     94  CA         9.2560  -66.4240  141.4510 C.3   160  PRO160      0.1401
     95  C          9.0720  -66.0960  139.9820 C.2   160  PRO160      0.2269
     96  O          9.8460  -66.5850  139.1450 O.2   160  PRO160     -0.2865
     97  CB        10.4730  -65.6610  141.9990 C.3   160  PRO160      0.0296
     98  CG        11.1260  -66.6340  142.9420 C.3   160  PRO160      0.0237
     99  CD        10.8800  -68.0160  142.3700 C.3   160  PRO160      0.0939
    100  N          9.3850  -63.8070  136.8600 N.3   162  ALA162     -0.1245
    101  CA        10.1020  -62.6230  136.3720 C.3   162  ALA162      0.1562
    102  C          9.1270  -61.6880  135.6890 C.2   162  ALA162      0.2260
    103  O          8.0580  -62.1040  135.2550 O.2   162  ALA162     -0.2867
    104  CB        11.1790  -63.0470  135.4000 C.3   162  ALA162      0.0290
    105  N         10.1370  -60.0840  132.8940 N.3   164  VAL164     -0.1231
    106  CA        10.4640  -60.4580  131.5250 C.3   164  VAL164      0.1692
    107  C         11.8030  -61.1870  131.5060 C.2   164  VAL164      0.2592
    108  O         12.6550  -60.9600  132.3710 O.2   164  VAL164     -0.2718
    109  CB        10.4820  -59.1980  130.5930 C.3   164  VAL164      0.0266
    110  CG1       11.8060  -58.4330  130.7270 C.3   164  VAL164      0.0020
    111  CG2       10.2560  -59.6010  129.1530 C.3   164  VAL164      0.0020
    112  N         11.9840  -62.0940  130.5490 N.am  165  ASP165     -0.1974
    113  CA        13.2910  -62.6970  130.3220 C.3   165  ASP165      0.1709
    114  C         13.9780  -61.8860  129.2280 C.2   165  ASP165      0.2293
    115  O         13.3000  -61.2730  128.4020 O.2   165  ASP165     -0.2864
    116  CB        13.1400  -64.1770  129.9200 C.3   165  ASP165      0.1436
    117  CG        12.2110  -64.3630  128.7450 C.2   165  ASP165      0.3671
    118  OD1       10.9840  -64.2960  128.9530 O.co2 165  ASP165     -0.2456
    119  OD2       12.7100  -64.5940  127.6250 O.co2 165  ASP165     -0.2456
    120  N         17.3210  -66.4300  127.4440 N.3   215  ASP215     -0.1225
    121  CA        16.0870  -67.0120  127.9520 C.3   215  ASP215      0.1805
    122  C         16.1920  -67.4950  129.4050 C.2   215  ASP215      0.2597
    123  O         15.1890  -67.8630  130.0160 O.2   215  ASP215     -0.2718
    124  CB        15.5400  -68.1040  127.0160 C.3   215  ASP215      0.1424
    125  CG        16.5570  -69.1850  126.7150 C.2   215  ASP215      0.3668
    126  OD1       17.6040  -69.2430  127.4020 O.co2 215  ASP215     -0.2456
    127  OD2       16.2960  -69.9880  125.7890 O.co2 215  ASP215     -0.2456
    128  N         17.4070  -67.4550  129.9600 N.am  216  ASN216     -0.1974
    129  CA        17.6380  -67.8120  131.3610 C.3   216  ASN216      0.1688
    130  C         18.0520  -66.6100  132.2110 C.2   216  ASN216      0.2292
    131  O         18.4980  -66.7650  133.3470 O.2   216  ASN216     -0.2864
    132  CB        18.7310  -68.8780  131.4680 C.3   216  ASN216      0.1181
    133  CG        18.2390  -70.2580  131.1230 C.2   216  ASN216      0.2629
    134  OD1       17.0500  -70.5540  131.2290 O.2   216  ASN216     -0.2716
    135  ND2       19.1610  -71.1240  130.7250 N.am  216  ASN216     -0.0877
    136  N         16.7270  -62.9670  133.7210 N.3   218  PHE218     -0.1241
    137  CA        15.4190  -62.4610  134.0860 C.3   218  PHE218      0.1605
    138  C         15.4660  -61.1110  134.7750 C.2   218  PHE218      0.2264
    139  O         16.2020  -60.9270  135.7400 O.2   218  PHE218     -0.2867
    140  CB        14.7840  -63.4490  135.0500 C.3   218  PHE218      0.0534
    141  CG        14.5430  -64.7930  134.4450 C.ar  218  PHE218     -0.0203
    142  CD1       13.5200  -64.9710  133.5280 C.ar  218  PHE218     -0.0042
    143  CD2       15.3330  -65.8800  134.7940 C.ar  218  PHE218     -0.0042
    144  CE1       13.2820  -66.2170  132.9560 C.ar  218  PHE218     -0.0003
    145  CE2       15.1120  -67.1250  134.2230 C.ar  218  PHE218     -0.0003
    146  CZ        14.0780  -67.2910  133.3050 C.ar  218  PHE218     -0.0000
    147  N         17.8730  -71.4670  135.9640 N.3   229  ASP229     -0.1239
    148  CA        18.4200  -72.7820  135.5970 C.3   229  ASP229      0.1674
    149  C         19.5560  -73.2030  136.5300 C.2   229  ASP229      0.2266
    150  O         20.6340  -73.5620  136.0660 O.2   229  ASP229     -0.2867
    151  CB        18.9220  -72.7520  134.1440 C.3   229  ASP229      0.1410
    152  CG        19.0640  -74.1360  133.5350 C.2   229  ASP229      0.3668
    153  OD1       18.5840  -75.1120  134.1540 O.co2 229  ASP229     -0.2456
    154  OD2       19.6500  -74.2440  132.4290 O.co2 229  ASP229     -0.2456
@<TRIPOS>BOND
     1    37    36   ar
     2    36    38   ar
     3    36    35    1
     4    35    32    1
     5    34    33    2
     6    32    33    1
     7    32    31    1
     8    25    24    1
     9    33    39   am
    10    30    29    2
    11    24    26    1
    12    24    21    1
    13    31    29   am
    14    18    17    1
    15    29    28    1
    16    23    22    2
    17    19    17    1
    18    22    21    1
    19    22    27   am
    20    39    40    1
    21   127   125   ar
    22    17    16    2
    23    21    20    1
    24    28    27    1
    25    20    11   am
    26    40    43    1
    27    40    41    1
    28   125   124    1
    29   125   126   ar
    30    16    15    1
    31   124   121    1
    32    43    44    1
    33    53    52    2
    34    15    14    1
    35   120   121    1
    36    11    10    1
    37    11    12    2
    38    50    41   am
    39    50    51    1
    40    41    42    2
    41   119   117   ar
    42    10    13    1
    43    10     9    1
    44   121   122    1
    45     4     3    2
    46    52    51    1
    47    44    45    1
    48    13    14    1
    49   115   114    2
    50    51    54    1
    51    45    46    1
    52   117   118   ar
    53   117   116    1
    54     9     3   am
    55     3     2    1
    56   111   109    1
    57   114   113    1
    58   122   128   am
    59   122   123    2
    60    55    54    1
    61    46    47    2
    62   116   113    1
    63   128   129    1
    64     2     1    1
    65     2     5    1
    66   113   112    1
    67   112   107   am
    68   109   110    1
    69   109   106    1
    70    56    57    1
    71    47    48    1
    72    47    49    1
    73   135   133   am
    74   133   134    2
    75   133   132    1
    76    59    58    2
    77   129   132    1
    78   129   130    1
    79     5     6    1
    80   107   106    1
    81   107   108    2
    82   106   105    1
    83    57    58    1
    84    57    60    1
    85    60    62    1
    86    60    61    1
    87   130   131    2
    88    75    76    1
    89    75    74    1
    90     8     6    1
    91   154   152   ar
    92     6     7    1
    93   144   146   ar
    94   144   142   ar
    95   146   145   ar
    96    74    73    1
    97    73    72    1
    98   142   141   ar
    99   152   151    1
   100   152   153   ar
   101   136   137    1
   102   137   138    1
   103   137   140    1
   104   151   148    1
   105   145   143   ar
   106   141   143   ar
   107   141   140    1
   108    70    69    1
   109    70    71    2
   110    72    69    1
   111    69    68    1
   112   138   139    2
   113   103   102    2
   114   104   101    1
   115   148   147    1
   116   148   149    1
   117   102   101    1
   118   150   149    2
   119   101   100    1
   120    92    91    1
   121    67    64    1
   122    91    90    1
   123    64    65    1
   124    64    63    1
   125    65    66    2
   126    84    82    1
   127    96    95    2
   128    90    89    1
   129    81    82    1
   130    81    78    1
   131    82    83    1
   132    89    86    1
   133    95    94    1
   134    80    79    2
   135    77    78    1
   136    78    79    1
   137    88    87    2
   138    85    86    1
   139    86    87    1
   140    87    93   am
   141    94    93    1
   142    94    97    1
   143    93    99    1
   144    97    98    1
   145    99    98    1
