@<TRIPOS>MOLECULE
tmp/4lv9B01.pdb
 110 105 0 0 0
SMALL
GASTEIGER

@<TRIPOS>ATOM
      1  N          8.4780    5.1400   46.3720 N.3   171  TYR171     -0.1241
      2  CA         8.6960    3.7020   46.1790 C.3   171  TYR171      0.1605
      3  C          7.4660    2.9790   45.6350 C.2   171  TYR171      0.2264
      4  O          7.4020    1.7510   45.6860 O.2   171  TYR171     -0.2867
      5  CB         9.1520    3.0310   47.4890 C.3   171  TYR171      0.0534
      6  CG        10.5480    3.4390   47.8990 C.ar  171  TYR171     -0.0201
      7  CD1       10.7540    4.4910   48.7900 C.ar  171  TYR171     -0.0009
      8  CD2       11.6620    2.8050   47.3650 C.ar  171  TYR171     -0.0009
      9  CE1       12.0380    4.8850   49.1520 C.ar  171  TYR171      0.0417
     10  CE2       12.9490    3.1920   47.7210 C.ar  171  TYR171      0.0417
     11  CZ        13.1270    4.2330   48.6160 C.ar  171  TYR171      0.1957
     12  OH        14.4030    4.6270   48.9650 O.3   171  TYR171     -0.2866
     13  N          7.9580    0.7810   40.7540 N.3   174  HIS174     -0.1241
     14  CA         9.2670    0.1490   40.6110 C.3   174  HIS174      0.1621
     15  C          9.5450   -0.1730   39.1310 C.2   174  HIS174      0.2264
     16  O          8.6730   -0.6560   38.4100 O.2   174  HIS174     -0.2867
     17  CB         9.2940   -1.1370   41.4500 C.3   174  HIS174      0.0745
     18  CG        10.6700   -1.5960   41.8400 C.ar  174  HIS174      0.0817
     19  ND1       11.2170   -1.3330   43.0790 N.ar  174  HIS174     -0.2268
     20  CD2       11.5980   -2.3180   41.1640 C.ar  174  HIS174      0.1154
     21  CE1       12.4220   -1.8750   43.1490 C.ar  174  HIS174      0.1986
     22  NE2       12.6760   -2.4780   42.0000 N.ar  174  HIS174     -0.2212
     23  N         12.8200    3.2270   43.3340 N.3   200  GLY200     -0.1225
     24  CA        12.8440    1.7770   43.1670 C.3   200  GLY200      0.1811
     25  C         13.1520    1.3270   41.7450 C.2   200  GLY200      0.2280
     26  O         12.4600    1.7110   40.7870 O.2   200  GLY200     -0.2866
     27  N         17.1210    1.6990   44.5210 N.3   223  TYR223     -0.1227
     28  CA        17.1820    0.5650   45.4430 C.3   223  TYR223      0.1736
     29  C         16.2830   -0.5890   45.0420 C.2   223  TYR223      0.2596
     30  O         15.3440   -0.4230   44.2630 O.2   223  TYR223     -0.2718
     31  CB        16.8100    1.0050   46.8570 C.3   223  TYR223      0.0548
     32  CG        17.6310    2.1610   47.3790 C.ar  223  TYR223     -0.0200
     33  CD1       17.1800    3.4700   47.2550 C.ar  223  TYR223     -0.0009
     34  CD2       18.8640    1.9430   47.9740 C.ar  223  TYR223     -0.0009
     35  CE1       17.9300    4.5330   47.7300 C.ar  223  TYR223      0.0417
     36  CE2       19.6170    2.9960   48.4550 C.ar  223  TYR223      0.0417
     37  CZ        19.1470    4.2890   48.3280 C.ar  223  TYR223      0.1957
     38  OH        19.8980    5.3400   48.8090 O.3   223  TYR223     -0.2866
     39  N         16.5790   -1.7660   45.5850 N.am  224  SER224     -0.1938
     40  CA        15.7240   -2.9250   45.3740 C.3   224  SER224      0.2055
     41  C         15.6180   -3.7710   46.6380 C.2   224  SER224      0.2642
     42  O         16.2310   -3.4510   47.6580 O.2   224  SER224     -0.2714
     43  CB        16.2310   -3.7730   44.2080 C.3   224  SER224      0.2130
     44  OG        15.2220   -4.6720   43.7780 O.3   224  SER224     -0.2179
     45  N         14.8330   -4.8430   46.5580 N.am  225  VAL225     -0.1977
     46  CA        14.6320   -5.7650   47.6800 C.3   225  VAL225      0.1596
     47  C         14.6550   -7.1850   47.1310 C.2   225  VAL225      0.2287
     48  O         14.4390   -7.3880   45.9200 O.2   225  VAL225     -0.2864
     49  CB        13.2600   -5.5350   48.3670 C.3   225  VAL225      0.0276
     50  CG1       13.2180   -4.1750   49.0430 C.3   225  VAL225      0.0022
     51  CG2       12.1320   -5.6820   47.3620 C.3   225  VAL225      0.0022
     52  N         12.5290   -6.8090   53.6600 N.3   256  PRO256     -0.2116
     53  CA        11.2950   -7.0070   52.8920 C.3   256  PRO256      0.1372
     54  C         11.5300   -8.0340   51.7910 C.2   256  PRO256      0.2244
     55  O         12.6410   -8.1080   51.2580 O.2   256  PRO256     -0.2868
     56  CB        11.0200   -5.6250   52.2930 C.3   256  PRO256      0.0268
     57  CG        12.2510   -4.8090   52.5540 C.3   256  PRO256      0.0207
     58  CD        12.9280   -5.3950   53.7200 C.3   256  PRO256      0.0892
     59  N          9.6410   -9.8970   48.2590 N.3   258  SER258     -0.1217
     60  CA         8.5570  -10.0260   47.3030 C.3   258  SER258      0.1889
     61  C          8.4920  -11.4630   46.8140 C.2   258  SER258      0.2288
     62  O          9.5120  -12.0410   46.4660 O.2   258  SER258     -0.2866
     63  CB         8.8060   -9.0990   46.1160 C.3   258  SER258      0.2089
     64  OG         7.9240   -9.4330   45.0610 O.3   258  SER258     -0.2183
     65  N          8.2420   -6.4330   55.4940 N.3   290  PRO290     -0.2116
     66  CA         6.9840   -7.1010   55.1710 C.3   290  PRO290      0.1372
     67  C          7.1420   -8.1790   54.0980 C.2   290  PRO290      0.2244
     68  O          8.0760   -8.1280   53.2880 O.2   290  PRO290     -0.2868
     69  CB         6.1330   -5.9550   54.6180 C.3   290  PRO290      0.0268
     70  CG         7.1300   -5.0470   53.9580 C.3   290  PRO290      0.0207
     71  CD         8.3160   -5.0790   54.9070 C.3   290  PRO290      0.0892
     72  N          5.7350   -9.1640   50.6730 N.3   292  ILE292     -0.1245
     73  CA         5.0270   -8.4730   49.6150 C.3   292  ILE292      0.1561
     74  C          4.5490   -9.5070   48.5960 C.2   292  ILE292      0.2260
     75  O          5.3410  -10.0600   47.8300 O.2   292  ILE292     -0.2867
     76  CB         5.9250   -7.4260   48.9590 C.3   292  ILE292      0.0252
     77  CG1        6.6360   -6.6010   50.0460 C.3   292  ILE292      0.0019
     78  CG2        5.1000   -6.5360   48.0240 C.3   292  ILE292      0.0019
     79  CD1        7.9180   -5.9550   49.5740 C.3   292  ILE292      0.0001
     80  N          2.0530   -6.6610   52.3760 N.3   332  ARG332     -0.1231
     81  CA         1.7830   -5.7260   51.2890 C.3   332  ARG332      0.1694
     82  C          1.6190   -6.4750   49.9640 C.2   332  ARG332      0.2592
     83  O          1.8980   -7.6730   49.8800 O.2   332  ARG332     -0.2718
     84  CB         2.9040   -4.6920   51.1830 C.3   332  ARG332      0.0321
     85  CG         2.9730   -3.7090   52.3490 C.3   332  ARG332      0.0489
     86  CD         1.7450   -2.8040   52.3460 C.3   332  ARG332      0.2205
     87  NE         1.7850   -1.7590   53.3680 N.pl3 332  ARG332     -0.0865
     88  CZ         1.1290   -1.8220   54.5230 C.cat 332  ARG332      0.5346
     89  NH1        0.3950   -2.8900   54.8170 N.pl3 332  ARG332      0.1354
     90  NH2        1.2100   -0.8180   55.3860 N.pl3 332  ARG332      0.1354
     91  N          1.1530   -5.7630   48.9410 N.am  333  VAL333     -0.1966
     92  CA         0.9370   -6.3440   47.6200 C.3   333  VAL333      0.1727
     93  C          1.7130   -5.5250   46.5920 C.2   333  VAL333      0.2616
     94  O          1.8240   -4.3050   46.7140 O.2   333  VAL333     -0.2715
     95  CB        -0.5640   -6.3180   47.2330 C.3   333  VAL333      0.0290
     96  CG1       -0.7720   -6.7960   45.7720 C.3   333  VAL333      0.0023
     97  CG2       -1.3930   -7.1580   48.2030 C.3   333  VAL333      0.0023
     98  N          2.2720   -6.1920   45.5920 N.am  334  ILE334     -0.1977
     99  CA         2.8000   -5.4740   44.4510 C.3   334  ILE334      0.1596
    100  C          2.2010   -6.0500   43.1720 C.2   334  ILE334      0.2287
    101  O          2.1470   -7.2620   42.9830 O.2   334  ILE334     -0.2864
    102  CB         4.3520   -5.4310   44.4290 C.3   334  ILE334      0.0276
    103  CG1        4.8350   -4.5210   43.2920 C.3   334  ILE334      0.0022
    104  CG2        4.9480   -6.8360   44.3290 C.3   334  ILE334      0.0022
    105  CD1        6.3140   -4.2730   43.2840 C.3   334  ILE334      0.0001
    106  N          1.9090   -1.4500   45.8830 N.3   362  ALA362     -0.1245
    107  CA         2.9030   -0.7700   45.0690 C.3   362  ALA362      0.1562
    108  C          2.7860   -1.3440   43.6690 C.2   362  ALA362      0.2260
    109  O          2.1240   -2.3680   43.4650 O.2   362  ALA362     -0.2867
    110  CB         4.3030   -0.9900   45.6320 C.3   362  ALA362      0.0290
@<TRIPOS>BOND
     1    16    15    2
     2    15    14    1
     3    14    13    1
     4    14    17    1
     5    26    25    2
     6    20    18   ar
     7    20    22   ar
     8    17    18    1
     9    25    24    1
    10    18    19   ar
    11    22    21   ar
    12   101   100    2
    13    19    21   ar
    14    24    23    1
    15   100    99    1
    16   105   103    1
    17   103   102    1
    18   109   108    2
    19   108   107    1
    20    44    43    1
    21    43    40    1
    22    30    29    2
    23   104   102    1
    24   102    99    1
    25    99    98    1
    26    27    28    1
    27    29    28    1
    28    29    39   am
    29    64    63    1
    30   107   110    1
    31   107   106    1
    32    40    39    1
    33    40    41    1
    34    28    31    1
    35    98    93   am
    36     3     4    2
    37     3     2    1
    38    96    95    1
    39    48    47    2
    40    63    60    1
    41     2     1    1
    42     2     5    1
    43    62    61    2
    44    45    41   am
    45    45    46    1
    46    93    94    2
    47    93    92    1
    48    41    42    2
    49    61    60    1
    50    31    32    1
    51    47    46    1
    52    95    92    1
    53    95    97    1
    54    33    32   ar
    55    33    35   ar
    56    60    59    1
    57    51    49    1
    58     8    10   ar
    59     8     6   ar
    60    32    34   ar
    61     5     6    1
    62    92    91    1
    63    46    49    1
    64    10    11   ar
    65    35    37   ar
    66    75    74    2
    67     6     7   ar
    68    34    36   ar
    69    78    76    1
    70    37    36   ar
    71    37    38    1
    72    49    50    1
    73    74    73    1
    74    11    12    1
    75    11     9   ar
    76     7     9   ar
    77    91    82   am
    78    76    73    1
    79    76    77    1
    80    79    77    1
    81    73    72    1
    82    83    82    2
    83    82    81    1
    84    84    81    1
    85    84    85    1
    86    55    54    2
    87    81    80    1
    88    54    53    1
    89    56    57    1
    90    56    53    1
    91    86    85    1
    92    86    87    1
    93    57    58    1
    94    53    52    1
    95    68    67    2
    96    87    88    2
    97    52    58    1
    98    70    69    1
    99    70    71    1
   100    67    66    1
   101    88    89    1
   102    88    90    1
   103    69    66    1
   104    71    65    1
   105    66    65    1
