@<TRIPOS>MOLECULE
tmp/4lv9B00.pdb
 100 91 0 0 0
SMALL
GASTEIGER

@<TRIPOS>ATOM
      1  N          7.9580    0.7810   40.7540 N.3   174  HIS174     -0.1241
      2  CA         9.2670    0.1490   40.6110 C.3   174  HIS174      0.1621
      3  C          9.5450   -0.1730   39.1310 C.2   174  HIS174      0.2264
      4  O          8.6730   -0.6560   38.4100 O.2   174  HIS174     -0.2867
      5  CB         9.2940   -1.1370   41.4500 C.3   174  HIS174      0.0745
      6  CG        10.6700   -1.5960   41.8400 C.ar  174  HIS174      0.0817
      7  ND1       11.2170   -1.3330   43.0790 N.ar  174  HIS174     -0.2268
      8  CD2       11.5980   -2.3180   41.1640 C.ar  174  HIS174      0.1154
      9  CE1       12.4220   -1.8750   43.1490 C.ar  174  HIS174      0.1986
     10  NE2       12.6760   -2.4780   42.0000 N.ar  174  HIS174     -0.2212
     11  N         10.7030   -2.3700   36.3680 N.3   176  PHE176     -0.1241
     12  CA        10.9620   -3.7730   36.0220 C.3   176  PHE176      0.1605
     13  C         11.3470   -3.9390   34.5460 C.2   176  PHE176      0.2264
     14  O         11.2080   -5.0330   33.9990 O.2   176  PHE176     -0.2867
     15  CB         9.7050   -4.6230   36.2250 C.3   176  PHE176      0.0534
     16  CG         9.2580   -4.7560   37.6580 C.ar  176  PHE176     -0.0203
     17  CD1        8.0240   -5.3140   37.9430 C.ar  176  PHE176     -0.0042
     18  CD2       10.0640   -4.3530   38.7080 C.ar  176  PHE176     -0.0042
     19  CE1        7.5990   -5.4560   39.2520 C.ar  176  PHE176     -0.0003
     20  CE2        9.6380   -4.4950   40.0210 C.ar  176  PHE176     -0.0003
     21  CZ         8.4100   -5.0390   40.2890 C.ar  176  PHE176     -0.0000
     22  N         14.6070   -6.2830   30.9700 N.3   179  ARG179     -0.1245
     23  CA        14.5250   -7.2970   29.9280 C.3   179  ARG179      0.1563
     24  C         13.6590   -6.8500   28.7570 C.2   179  ARG179      0.2260
     25  O         13.7480   -7.4240   27.6750 O.2   179  ARG179     -0.2867
     26  CB        13.9500   -8.6030   30.4730 C.3   179  ARG179      0.0307
     27  CG        12.4340   -8.5890   30.5860 C.3   179  ARG179      0.0489
     28  CD        11.9250   -9.7210   31.4450 C.3   179  ARG179      0.2205
     29  NE        12.5550   -9.6930   32.7560 N.pl3 179  ARG179     -0.0865
     30  CZ        12.3430  -10.6010   33.7020 C.cat 179  ARG179      0.5346
     31  NH1       11.5040  -11.6150   33.4810 N.pl3 179  ARG179      0.1354
     32  NH2       12.9780  -10.4930   34.8630 N.pl3 179  ARG179      0.1354
     33  N         15.0180   -2.2220   39.3760 N.3   202  ASP202     -0.1239
     34  CA        15.7830   -3.4560   39.2160 C.3   202  ASP202      0.1674
     35  C         16.7010   -3.3370   38.0140 C.2   202  ASP202      0.2266
     36  O         17.5140   -4.2230   37.7420 O.2   202  ASP202     -0.2867
     37  CB        14.8610   -4.6730   39.0520 C.3   202  ASP202      0.1410
     38  CG        14.5820   -5.3740   40.3770 C.2   202  ASP202      0.3668
     39  OD1       14.3340   -4.6690   41.3710 O.co2 202  ASP202     -0.2456
     40  OD2       14.6350   -6.6270   40.4360 O.co2 202  ASP202     -0.2456
     41  N         16.5790   -1.7660   45.5850 N.3   224  SER224     -0.1202
     42  CA        15.7240   -2.9250   45.3740 C.3   224  SER224      0.2020
     43  C         15.6180   -3.7710   46.6380 C.2   224  SER224      0.2618
     44  O         16.2310   -3.4510   47.6580 O.2   224  SER224     -0.2717
     45  CB        16.2310   -3.7730   44.2080 C.3   224  SER224      0.2103
     46  OG        15.2220   -4.6720   43.7780 O.3   224  SER224     -0.2182
     47  N         14.8330   -4.8430   46.5580 N.am  225  VAL225     -0.1979
     48  CA        14.6320   -5.7650   47.6800 C.3   225  VAL225      0.1595
     49  C         14.6550   -7.1850   47.1310 C.2   225  VAL225      0.2287
     50  O         14.4390   -7.3880   45.9200 O.2   225  VAL225     -0.2864
     51  CB        13.2600   -5.5350   48.3670 C.3   225  VAL225      0.0276
     52  CG1       13.2180   -4.1750   49.0430 C.3   225  VAL225      0.0022
     53  CG2       12.1320   -5.6820   47.3620 C.3   225  VAL225      0.0022
     54  N         13.4690  -10.6710   45.9170 N.3   227  ALA227     -0.1231
     55  CA        12.2070  -11.0250   45.3030 C.3   227  ALA227      0.1694
     56  C         12.3810  -12.3450   44.5670 C.2   227  ALA227      0.2591
     57  O         13.4510  -12.6110   44.0300 O.2   227  ALA227     -0.2718
     58  CB        11.7710   -9.9310   44.3510 C.3   227  ALA227      0.0304
     59  N         11.3410  -13.1730   44.5610 N.am  228  ALA228     -0.1980
     60  CA        11.3510  -14.4000   43.7580 C.3   228  ALA228      0.1597
     61  C         10.9750  -14.1400   42.3000 C.2   228  ALA228      0.2287
     62  O         10.4710  -13.0770   41.9600 O.2   228  ALA228     -0.2864
     63  CB        10.4110  -15.4470   44.3560 C.3   228  ALA228      0.0319
     64  N          9.6410   -9.8970   48.2590 N.3   258  SER258     -0.1217
     65  CA         8.5570  -10.0260   47.3030 C.3   258  SER258      0.1889
     66  C          8.4920  -11.4630   46.8140 C.2   258  SER258      0.2288
     67  O          9.5120  -12.0410   46.4660 O.2   258  SER258     -0.2866
     68  CB         8.8060   -9.0990   46.1160 C.3   258  SER258      0.2089
     69  OG         7.9240   -9.4330   45.0610 O.3   258  SER258     -0.2183
     70  N          2.9830  -10.9540   45.3430 N.3   294  ARG294     -0.1245
     71  CA         2.9550  -10.4800   43.9680 C.3   294  ARG294      0.1563
     72  C          2.1060  -11.3380   43.0310 C.2   294  ARG294      0.2260
     73  O          2.5340  -12.4120   42.6020 O.2   294  ARG294     -0.2867
     74  CB         4.3740  -10.3620   43.4050 C.3   294  ARG294      0.0307
     75  CG         4.3590   -9.9340   41.9560 C.3   294  ARG294      0.0489
     76  CD         5.6470   -9.2860   41.5370 C.3   294  ARG294      0.2205
     77  NE         6.7400  -10.2350   41.3450 N.pl3 294  ARG294     -0.0865
     78  CZ         7.0390  -10.8110   40.1830 C.cat 294  ARG294      0.5346
     79  NH1        8.0550  -11.6550   40.1040 N.pl3 294  ARG294      0.1354
     80  NH2        6.3230  -10.5490   39.1010 N.pl3 294  ARG294      0.1354
     81  N          0.7120  -11.8260   39.2440 N.3   296  ASP296     -0.1239
     82  CA         1.4460  -11.5370   38.0020 C.3   296  ASP296      0.1674
     83  C          0.6680  -11.9310   36.7440 C.2   296  ASP296      0.2266
     84  O          1.2450  -12.0570   35.6550 O.2   296  ASP296     -0.2867
     85  CB         2.8110  -12.2380   38.0070 C.3   296  ASP296      0.1410
     86  CG         3.7090  -11.7880   36.8660 C.2   296  ASP296      0.3668
     87  OD1        4.1930  -12.6590   36.1150 O.co2 296  ASP296     -0.2456
     88  OD2        3.9110  -10.5630   36.7040 O.co2 296  ASP296     -0.2456
     89  N          2.2720   -6.1920   45.5920 N.3   334  ILE334     -0.1245
     90  CA         2.8000   -5.4740   44.4510 C.3   334  ILE334      0.1561
     91  C          2.2010   -6.0500   43.1720 C.2   334  ILE334      0.2260
     92  O          2.1470   -7.2620   42.9830 O.2   334  ILE334     -0.2867
     93  CB         4.3520   -5.4310   44.4290 C.3   334  ILE334      0.0252
     94  CG1        4.8350   -4.5210   43.2920 C.3   334  ILE334      0.0019
     95  CG2        4.9480   -6.8360   44.3290 C.3   334  ILE334      0.0019
     96  CD1        6.3140   -4.2730   43.2840 C.3   334  ILE334      0.0001
     97  N          2.7890   -6.1590   39.3490 N.3   336  GLY336     -0.1225
     98  CA         3.8320   -5.8530   38.3820 C.3   336  GLY336      0.1811
     99  C          3.5950   -6.4070   36.9880 C.2   336  GLY336      0.2280
    100  O          4.5480   -6.6390   36.2610 O.2   336  GLY336     -0.2866
@<TRIPOS>BOND
     1    25    24    2
     2    24    23    1
     3    23    26    1
     4    23    22    1
     5    26    27    1
     6    27    28    1
     7    28    29    1
     8    29    30    2
     9    31    30    1
    10    30    32    1
    11    14    13    2
    12    13    12    1
    13    84    83    2
    14    12    15    1
    15    12    11    1
    16    87    86   ar
    17    15    16    1
    18   100    99    2
    19    88    86   ar
    20    83    82    1
    21    86    85    1
    22    99    98    1
    23    16    17   ar
    24    16    18   ar
    25    36    35    2
    26    17    19   ar
    27    82    85    1
    28    82    81    1
    29    35    34    1
    30    98    97    1
    31     4     3    2
    32    18    20   ar
    33    37    34    1
    34    37    38    1
    35    80    78    1
    36     3     2    1
    37    34    33    1
    38    19    21   ar
    39    20    21   ar
    40    79    78    1
    41    78    77    2
    42    38    40   ar
    43    38    39   ar
    44     2     1    1
    45     2     5    1
    46     8     6   ar
    47     8    10   ar
    48    77    76    1
    49     5     6    1
    50    76    75    1
    51     6     7   ar
    52    75    74    1
    53    62    61    2
    54    10     9   ar
    55    61    60    1
    56    73    72    2
    57    92    91    2
    58    72    71    1
    59     7     9   ar
    60    91    90    1
    61    96    94    1
    62    94    93    1
    63    74    71    1
    64    60    63    1
    65    60    59    1
    66    46    45    1
    67    71    70    1
    68    57    56    2
    69    45    42    1
    70    95    93    1
    71    58    55    1
    72    93    90    1
    73    90    89    1
    74    59    56   am
    75    56    55    1
    76    69    68    1
    77    55    54    1
    78    42    41    1
    79    42    43    1
    80    50    49    2
    81    68    65    1
    82    67    66    2
    83    47    43   am
    84    47    48    1
    85    43    44    2
    86    66    65    1
    87    49    48    1
    88    65    64    1
    89    53    51    1
    90    48    51    1
    91    51    52    1
