@<TRIPOS>MOLECULE
tmp/4lvaA00.pdb
 176 167 0 0 0
SMALL
GASTEIGER

@<TRIPOS>ATOM
      1  N         12.7550   -6.4140   -7.3370 N.3   168  GLY168     -0.1225
      2  CA        12.9590   -5.3260   -6.3840 C.3   168  GLY168      0.1811
      3  C         12.2530   -5.5100   -5.0530 C.2   168  GLY168      0.2280
      4  O         12.3440   -4.5870   -4.2390 O.2   168  GLY168     -0.2866
      5  N         13.9770   -4.4110   -1.8260 N.3   171  TYR171     -0.1241
      6  CA        14.1970   -2.9700   -1.5790 C.3   171  TYR171      0.1605
      7  C         12.9120   -2.2240   -1.3070 C.2   171  TYR171      0.2264
      8  O         12.9180   -0.9870   -1.2420 O.2   171  TYR171     -0.2867
      9  CB        14.9980   -2.2820   -2.7280 C.3   171  TYR171      0.0534
     10  CG        16.4390   -2.7220   -2.7720 C.ar  171  TYR171     -0.0201
     11  CD1       17.3830   -2.2570   -1.8440 C.ar  171  TYR171     -0.0009
     12  CD2       16.8590   -3.6230   -3.7190 C.ar  171  TYR171     -0.0009
     13  CE1       18.7150   -2.6610   -1.9010 C.ar  171  TYR171      0.0417
     14  CE2       18.1730   -4.0480   -3.7640 C.ar  171  TYR171      0.0417
     15  CZ        19.0970   -3.5600   -2.8680 C.ar  171  TYR171      0.1957
     16  OH        20.4140   -4.0290   -2.9720 O.3   171  TYR171     -0.2866
     17  N         12.2360    0.0620    3.4830 N.3   174  HIS174     -0.1241
     18  CA        13.5150    0.5970    3.9210 C.3   174  HIS174      0.1621
     19  C         13.4380    0.9590    5.4200 C.2   174  HIS174      0.2264
     20  O         12.4050    1.4970    5.8850 O.2   174  HIS174     -0.2867
     21  CB        13.8450    1.8540    3.0720 C.3   174  HIS174      0.0745
     22  CG        15.2980    2.2050    3.0540 C.ar  174  HIS174      0.0817
     23  ND1       16.1080    1.8490    2.0020 N.ar  174  HIS174     -0.2268
     24  CD2       16.0760    2.9170    3.9130 C.ar  174  HIS174      0.1154
     25  CE1       17.3270    2.3020    2.2120 C.ar  174  HIS174      0.1986
     26  NE2       17.3310    2.9810    3.3520 N.ar  174  HIS174     -0.2212
     27  N         14.1050    3.3040    8.3670 N.3   176  PHE176     -0.1241
     28  CA        14.2950    4.7340    8.6570 C.3   176  PHE176      0.1605
     29  C         14.2380    4.9170   10.1980 C.2   176  PHE176      0.2264
     30  O         13.9900    6.0210   10.6790 O.2   176  PHE176     -0.2867
     31  CB        13.1120    5.5400    8.0820 C.3   176  PHE176      0.0534
     32  CG        13.0980    5.6930    6.5930 C.ar  176  PHE176     -0.0203
     33  CD1       14.1510    5.2830    5.7850 C.ar  176  PHE176     -0.0042
     34  CD2       12.0200    6.3300    5.9830 C.ar  176  PHE176     -0.0042
     35  CE1       14.0640    5.4470    4.3170 C.ar  176  PHE176     -0.0003
     36  CE2       11.9850    6.5350    4.5970 C.ar  176  PHE176     -0.0003
     37  CZ        12.9790    6.1010    3.7950 C.ar  176  PHE176     -0.0000
     38  N         16.5420    7.0880   14.4800 N.3   179  ARG179     -0.1245
     39  CA        16.2270    8.1180   15.4910 C.3   179  ARG179      0.1563
     40  C         15.1350    7.6830   16.4380 C.2   179  ARG179      0.2260
     41  O         14.9840    8.2710   17.5510 O.2   179  ARG179     -0.2867
     42  CB        15.8360    9.4410   14.8490 C.3   179  ARG179      0.0307
     43  CG        14.4260    9.4150   14.3060 C.3   179  ARG179      0.0489
     44  CD        14.1500   10.5780   13.3600 C.3   179  ARG179      0.2205
     45  NE        14.9700   10.4790   12.1460 N.pl3 179  ARG179     -0.0865
     46  CZ        14.8600   11.2770   11.0760 C.cat 179  ARG179      0.5346
     47  NH1       13.9360   12.2340   11.0930 N.pl3 179  ARG179      0.1354
     48  NH2       15.6920   11.1360   10.0360 N.pl3 179  ARG179      0.1354
     49  N         18.7840    2.8440    6.3530 N.3   202  ASP202     -0.1239
     50  CA        19.5140    4.0640    6.6920 C.3   202  ASP202      0.1674
     51  C         20.0950    3.9090    8.0880 C.2   202  ASP202      0.2266
     52  O         20.7670    4.8410    8.5870 O.2   202  ASP202     -0.2867
     53  CB        18.5740    5.3020    6.6790 C.3   202  ASP202      0.1410
     54  CG        18.6040    6.0580    5.3840 C.2   202  ASP202      0.3668
     55  OD1       18.6130    5.3980    4.2990 O.co2 202  ASP202     -0.2456
     56  OD2       18.5760    7.3040    5.4260 O.co2 202  ASP202     -0.2456
     57  N         22.0900   -1.1050    1.9040 N.3   223  TYR223     -0.1227
     58  CA        22.4270   -0.0420    0.9580 C.3   223  TYR223      0.1736
     59  C         21.4430    1.1000    1.0800 C.2   223  TYR223      0.2596
     60  O         20.3210    0.9350    1.5590 O.2   223  TYR223     -0.2718
     61  CB        22.3650   -0.5830   -0.4840 C.3   223  TYR223      0.0548
     62  CG        23.2620   -1.7490   -0.7360 C.ar  223  TYR223     -0.0200
     63  CD1       22.7950   -3.0440   -0.6140 C.ar  223  TYR223     -0.0009
     64  CD2       24.5940   -1.5570   -1.1150 C.ar  223  TYR223     -0.0009
     65  CE1       23.6520   -4.1290   -0.8360 C.ar  223  TYR223      0.0417
     66  CE2       25.4380   -2.6390   -1.3140 C.ar  223  TYR223      0.0417
     67  CZ        24.9630   -3.9100   -1.1940 C.ar  223  TYR223      0.1957
     68  OH        25.7970   -5.0230   -1.4460 O.3   223  TYR223     -0.2866
     69  N         21.8690    2.2670    0.6310 N.am  224  SER224     -0.1938
     70  CA        20.9620    3.3850    0.5250 C.3   224  SER224      0.2055
     71  C         21.3640    4.2420   -0.6660 C.2   224  SER224      0.2642
     72  O         22.2840    3.8730   -1.4280 O.2   224  SER224     -0.2714
     73  CB        20.9580    4.2280    1.8090 C.3   224  SER224      0.2130
     74  OG        19.7840    5.0290    1.8490 O.3   224  SER224     -0.2179
     75  N         20.6670    5.3840   -0.7940 N.am  225  VAL225     -0.1977
     76  CA        20.8660    6.3370   -1.8950 C.3   225  VAL225      0.1596
     77  C         20.6770    7.7430   -1.3330 C.2   225  VAL225      0.2287
     78  O         20.1530    7.8770   -0.2360 O.2   225  VAL225     -0.2864
     79  CB        19.8740    6.0950   -3.0790 C.3   225  VAL225      0.0276
     80  CG1       20.1480    4.6780   -3.7070 C.3   225  VAL225      0.0022
     81  CG2       18.3740    6.3690   -2.6720 C.3   225  VAL225      0.0022
     82  N         19.1320   11.4350   -0.5190 N.3   227  ALA227     -0.1231
     83  CA        17.7840   11.9050   -0.2950 C.3   227  ALA227      0.1694
     84  C         17.8270   13.2110    0.5060 C.2   227  ALA227      0.2591
     85  O         18.7420   13.4390    1.3190 O.2   227  ALA227     -0.2718
     86  CB        16.9470   10.8120    0.4610 C.3   227  ALA227      0.0304
     87  N         16.7930   14.0090    0.3080 N.am  228  ALA228     -0.1980
     88  CA        16.6430   15.2800    1.0370 C.3   228  ALA228      0.1597
     89  C         16.0070   15.0130    2.3970 C.2   228  ALA228      0.2287
     90  O         15.4220   13.9590    2.6300 O.2   228  ALA228     -0.2864
     91  CB        15.8070   16.2710    0.2150 C.3   228  ALA228      0.0319
     92  N         19.6750    7.4960   -8.1280 N.3   256  PRO256     -0.2116
     93  CA        18.3470    7.7070   -7.5520 C.3   256  PRO256      0.1372
     94  C         18.4140    8.7330   -6.4180 C.2   256  PRO256      0.2244
     95  O         19.4160    8.7990   -5.6390 O.2   256  PRO256     -0.2868
     96  CB        17.9780    6.3300   -6.9410 C.3   256  PRO256      0.0268
     97  CG        18.9310    5.3620   -7.5900 C.3   256  PRO256      0.0207
     98  CD        20.1850    6.1530   -7.7900 C.3   256  PRO256      0.0892
     99  N         15.6800   10.6190   -3.4160 N.3   258  SER258     -0.1217
    100  CA        14.3540   10.8760   -2.8690 C.3   258  SER258      0.1889
    101  C         14.3010   12.3610   -2.4730 C.2   258  SER258      0.2288
    102  O         15.3040   12.9010   -1.9430 O.2   258  SER258     -0.2866
    103  CB        14.1910   10.0110   -1.6370 C.3   258  SER258      0.2089
    104  OG        13.1350   10.4780   -0.8250 O.3   258  SER258     -0.2183
    105  N         15.9960    7.3470  -10.9450 N.3   290  PRO290     -0.2116
    106  CA        14.7280    8.0710  -10.8950 C.3   290  PRO290      0.1372
    107  C         14.6900    9.1590   -9.8080 C.2   290  PRO290      0.2244
    108  O         15.4490    9.0850   -8.8510 O.2   290  PRO290     -0.2868
    109  CB        13.7440    6.9640  -10.4920 C.3   290  PRO290      0.0268
    110  CG        14.5800    6.0090   -9.7030 C.3   290  PRO290      0.0207
    111  CD        15.8600    5.9650  -10.4560 C.3   290  PRO290      0.0892
    112  N         12.4290   10.1380   -6.7730 N.3   292  ILE292     -0.1245
    113  CA        11.5000    9.4290   -5.9190 C.3   292  ILE292      0.1561
    114  C         10.8100   10.4530   -5.0370 C.2   292  ILE292      0.2260
    115  O         11.4660   11.0410   -4.1550 O.2   292  ILE292     -0.2867
    116  CB        12.2180    8.3790   -5.0870 C.3   292  ILE292      0.0252
    117  CG1       13.0060    7.4470   -6.0310 C.3   292  ILE292      0.0019
    118  CG2       11.1900    7.5920   -4.3060 C.3   292  ILE292      0.0019
    119  CD1       14.0020    6.5240   -5.3750 C.3   292  ILE292      0.0001
    120  N          8.6890   12.1460   -2.2850 N.3   294  ARG294     -0.1245
    121  CA         8.3440   11.7300   -0.9300 C.3   294  ARG294      0.1563
    122  C          7.3030   12.6060   -0.2680 C.2   294  ARG294      0.2260
    123  O          7.6500   13.6940    0.1890 O.2   294  ARG294     -0.2867
    124  CB         9.6210   11.6990   -0.0790 C.3   294  ARG294      0.0307
    125  CG         9.3810   11.3610    1.3840 C.3   294  ARG294      0.0489
    126  CD        10.6760   11.4450    2.2230 C.3   294  ARG294      0.2205
    127  NE        10.3000   11.5500    3.6410 N.pl3 294  ARG294     -0.0865
    128  CZ        11.0040   12.1990    4.5500 C.cat 294  ARG294      0.5346
    129  NH1       10.5520   12.2410    5.7820 N.pl3 294  ARG294      0.1354
    130  NH2       12.1660   12.7920    4.2540 N.pl3 294  ARG294      0.1354
    131  N          9.2530    7.7090   -9.2760 N.3   332  ARG332     -0.1231
    132  CA         8.6480    6.8010   -8.3170 C.3   332  ARG332      0.1694
    133  C          8.2600    7.5770   -7.0770 C.2   332  ARG332      0.2592
    134  O          8.4840    8.7900   -6.9960 O.2   332  ARG332     -0.2718
    135  CB         9.5770    5.6460   -7.9580 C.3   332  ARG332      0.0321
    136  CG         9.9210    4.7220   -9.1260 C.3   332  ARG332      0.0489
    137  CD         8.6970    3.8910   -9.4540 C.3   332  ARG332      0.2205
    138  NE         8.9260    2.8340  -10.4440 N.pl3 332  ARG332     -0.0865
    139  CZ         8.5870    2.9530  -11.7260 C.cat 332  ARG332      0.5346
    140  NH1        8.0440    4.0900  -12.1780 N.pl3 332  ARG332      0.1354
    141  NH2        8.7930    1.9220  -12.5510 N.pl3 332  ARG332      0.1354
    142  N          7.5960    6.8860   -6.1330 N.am  333  VAL333     -0.1966
    143  CA         7.1400    7.5020   -4.8850 C.3   333  VAL333      0.1727
    144  C          7.6310    6.6670   -3.7030 C.2   333  VAL333      0.2616
    145  O          7.7530    5.4350   -3.8180 O.2   333  VAL333     -0.2715
    146  CB         5.6220    7.4960   -4.8370 C.3   333  VAL333      0.0290
    147  CG1        5.1310    8.1020   -3.5360 C.3   333  VAL333      0.0023
    148  CG2        5.0880    8.3480   -6.0570 C.3   333  VAL333      0.0023
    149  N          7.9720    7.3450   -2.5970 N.am  334  ILE334     -0.1977
    150  CA         8.2570    6.6340   -1.3250 C.3   334  ILE334      0.1596
    151  C          7.3720    7.1960   -0.2240 C.2   334  ILE334      0.2287
    152  O          7.2790    8.4090   -0.0680 O.2   334  ILE334     -0.2864
    153  CB         9.7710    6.6620   -0.9530 C.3   334  ILE334      0.0276
    154  CG1        9.9880    5.8690    0.3340 C.3   334  ILE334      0.0022
    155  CG2       10.3050    8.1170   -0.7910 C.3   334  ILE334      0.0022
    156  CD1       11.4040    5.4790    0.4810 C.3   334  ILE334      0.0001
    157  N          7.1830    7.3360    3.6120 N.3   336  GLY336     -0.1225
    158  CA         8.0220    7.1140    4.7690 C.3   336  GLY336      0.1811
    159  C          7.3950    7.5460    6.0820 C.2   336  GLY336      0.2280
    160  O          8.0950    7.5740    7.0940 O.2   336  GLY336     -0.2866
    161  N          7.6730    2.6050   -2.8790 N.3   362  ALA362     -0.1231
    162  CA         8.3760    1.9010   -1.8380 C.3   362  ALA362      0.1694
    163  C          7.9930    2.5180   -0.5150 C.2   362  ALA362      0.2592
    164  O          7.4230    3.6270   -0.4260 O.2   362  ALA362     -0.2718
    165  CB         9.8770    2.0400   -2.0310 C.3   362  ALA362      0.0304
    166  N          8.3470    1.8050    0.5420 N.am  363  PHE363     -0.1976
    167  CA         7.9520    2.1920    1.8920 C.3   363  PHE363      0.1639
    168  C          9.1490    2.3410    2.7740 C.2   363  PHE363      0.2290
    169  O         10.1070    1.5920    2.6290 O.2   363  PHE363     -0.2864
    170  CB         7.0250    1.1260    2.4990 C.3   363  PHE363      0.0560
    171  CG         5.7440    0.9920    1.7440 C.ar  363  PHE363     -0.0200
    172  CD1        5.6600    0.0990    0.6940 C.ar  363  PHE363     -0.0042
    173  CD2        4.6690    1.8240    2.0280 C.ar  363  PHE363     -0.0042
    174  CE1        4.4580    0.0290   -0.0460 C.ar  363  PHE363     -0.0003
    175  CE2        3.4800    1.7470    1.3290 C.ar  363  PHE363     -0.0003
    176  CZ         3.3720    0.8510    0.2840 C.ar  363  PHE363     -0.0000
@<TRIPOS>BOND
     1   141   139    1
     2   140   139    1
     3   139   138    2
     4   105   106    1
     5   105   111    1
     6   106   109    1
     7   106   107    1
     8   109   110    1
     9   111   110    1
    10   138   137    1
    11   107   108    2
    12   137   136    1
    13   131   132    1
    14   136   135    1
    15   132   135    1
    16   132   133    1
    17    92    98    1
    18    92    93    1
    19    98    97    1
    20    97    96    1
    21    93    96    1
    22    93    94    1
    23     1     2    1
    24   133   134    2
    25   133   142   am
    26   112   113    1
    27    94    95    2
    28     2     3    1
    29   142   143    1
    30   148   146    1
    31   117   119    1
    32   117   116    1
    33   113   116    1
    34   113   114    1
    35   116   118    1
    36     3     4    2
    37   114   115    2
    38   143   146    1
    39   143   144    1
    40   146   147    1
    41   145   144    2
    42    14    12   ar
    43    14    15   ar
    44    12    10   ar
    45    80    79    1
    46   144   149   am
    47    99   100    1
    48    79    81    1
    49    79    76    1
    50    16    15    1
    51   161   162    1
    52   100   101    1
    53   100   103    1
    54    15    13   ar
    55    10     9    1
    56    10    11   ar
    57     9     6    1
    58   149   150    1
    59   101   102    2
    60   120   121    1
    61   165   162    1
    62    13    11   ar
    63    76    77    1
    64    76    75    1
    65   162   163    1
    66     5     6    1
    67   103   104    1
    68     6     7    1
    69    68    67    1
    70    72    71    2
    71    77    78    2
    72   150   153    1
    73   150   151    1
    74    66    67   ar
    75    66    64   ar
    76     7     8    2
    77    67    65   ar
    78    64    62   ar
    79   153   155    1
    80   153   154    1
    81   121   122    1
    82   121   124    1
    83    65    63   ar
    84    75    71   am
    85    62    63   ar
    86    62    61    1
    87    71    70    1
    88    82    83    1
    89   163   164    2
    90   163   166   am
    91    61    58    1
    92    83    86    1
    93    83    84    1
    94   122   123    2
    95   151   152    2
    96   124   125    1
    97   174   176   ar
    98   174   172   ar
    99    91    88    1
   100   176   175   ar
   101    87    84   am
   102    87    88    1
   103   154   156    1
   104    84    85    2
   105    70    69    1
   106    70    73    1
   107   166   167    1
   108    69    59   am
   109   172   171   ar
   110    58    59    1
   111    58    57    1
   112    88    89    1
   113    59    60    2
   114   175   173   ar
   115   125   126    1
   116   171   173   ar
   117   171   170    1
   118    73    74    1
   119   167   170    1
   120   167   168    1
   121    23    25   ar
   122    23    22   ar
   123    25    26   ar
   124   126   127    1
   125    89    90    2
   126   169   168    2
   127    22    21    1
   128    22    24   ar
   129    21    18    1
   130    26    24   ar
   131    17    18    1
   132   157   158    1
   133   127   128    2
   134    37    35   ar
   135    37    36   ar
   136    18    19    1
   137   130   128    1
   138    55    54   ar
   139    35    33   ar
   140   128   129    1
   141    36    34   ar
   142   158   159    1
   143    54    56   ar
   144    54    53    1
   145    19    20    2
   146    33    32   ar
   147    34    32   ar
   148   159   160    2
   149    49    50    1
   150    32    31    1
   151    53    50    1
   152    50    51    1
   153    31    28    1
   154    51    52    2
   155    27    28    1
   156    28    29    1
   157    48    46    1
   158    29    30    2
   159    46    47    1
   160    46    45    2
   161    45    44    1
   162    44    43    1
   163    43    42    1
   164    38    39    1
   165    42    39    1
   166    39    40    1
   167    40    41    2
