@<TRIPOS>MOLECULE
tmp/4lvbB00.pdb
 138 130 0 0 0
SMALL
GASTEIGER

@<TRIPOS>ATOM
      1  N          8.3380    5.4570   46.2780 N.3   172  TYR172     -0.1227
      2  CA         8.5910    4.0340   46.0660 C.3   172  TYR172      0.1736
      3  C          7.3920    3.3130   45.4410 C.2   172  TYR172      0.2595
      4  O          7.3960    2.0970   45.3280 O.2   172  TYR172     -0.2718
      5  CB         9.0090    3.3580   47.3800 C.3   172  TYR172      0.0548
      6  CG        10.3840    3.7980   47.8480 C.ar  172  TYR172     -0.0200
      7  CD1       11.5320    3.3030   47.2390 C.ar  172  TYR172     -0.0009
      8  CD2       10.5360    4.7290   48.8760 C.ar  172  TYR172     -0.0009
      9  CE1       12.7890    3.7100   47.6430 C.ar  172  TYR172      0.0417
     10  CE2       11.7960    5.1400   49.2900 C.ar  172  TYR172      0.0417
     11  CZ        12.9170    4.6230   48.6700 C.ar  172  TYR172      0.1957
     12  OH        14.1830    5.0180   49.0640 O.3   172  TYR172     -0.2866
     13  N          6.3810    4.0760   45.0240 N.am  173  LYS173     -0.1980
     14  CA         5.1060    3.5000   44.5780 C.3   173  LYS173      0.1596
     15  C          5.1120    3.0200   43.1310 C.2   173  LYS173      0.2287
     16  O          4.1910    2.3190   42.7070 O.2   173  LYS173     -0.2864
     17  CB         3.9710    4.5160   44.7340 C.3   173  LYS173      0.0298
     18  CG         3.5640    4.7750   46.1870 C.3   173  LYS173      0.0038
     19  CD         2.8310    3.5930   46.7530 C.3   173  LYS173      0.0206
     20  CE         2.3490    3.8750   48.1570 C.3   173  LYS173      0.1093
     21  NZ         2.1920    2.6150   48.9080 N.3   173  LYS173     -0.1314
     22  N          7.8410    1.2170   40.6010 N.3   175  HIS175     -0.1241
     23  CA         9.1680    0.6150   40.5270 C.3   175  HIS175      0.1621
     24  C          9.4750    0.2260   39.0790 C.2   175  HIS175      0.2264
     25  O          8.6130   -0.2990   38.3920 O.2   175  HIS175     -0.2867
     26  CB         9.2100   -0.6240   41.4140 C.3   175  HIS175      0.0745
     27  CG        10.5940   -1.0950   41.7330 C.ar  175  HIS175      0.0817
     28  ND1       11.2470   -0.7370   42.8920 N.ar  175  HIS175     -0.2268
     29  CD2       11.4520   -1.8860   41.0440 C.ar  175  HIS175      0.1154
     30  CE1       12.4460   -1.2930   42.9090 C.ar  175  HIS175      0.1986
     31  NE2       12.5940   -1.9980   41.8000 N.ar  175  HIS175     -0.2212
     32  N         10.7680   -2.0750   36.3330 N.3   177  PHE177     -0.1241
     33  CA        11.0910   -3.4600   35.9810 C.3   177  PHE177      0.1605
     34  C         11.3910   -3.6130   34.4820 C.2   177  PHE177      0.2264
     35  O         11.2230   -4.6970   33.9230 O.2   177  PHE177     -0.2867
     36  CB         9.9030   -4.3610   36.3160 C.3   177  PHE177      0.0534
     37  CG         9.6450   -4.5020   37.7910 C.ar  177  PHE177     -0.0203
     38  CD1       10.6990   -4.5970   38.6850 C.ar  177  PHE177     -0.0042
     39  CD2        8.3520   -4.5500   38.2790 C.ar  177  PHE177     -0.0042
     40  CE1       10.4640   -4.7380   40.0510 C.ar  177  PHE177     -0.0003
     41  CE2        8.1130   -4.6830   39.6430 C.ar  177  PHE177     -0.0003
     42  CZ         9.1720   -4.7690   40.5250 C.ar  177  PHE177     -0.0000
     43  N         14.9940   -1.8310   39.3350 N.3   203  ASP203     -0.1239
     44  CA        15.7470   -3.0770   39.2650 C.3   203  ASP203      0.1674
     45  C         16.6810   -3.0400   38.0720 C.2   203  ASP203      0.2266
     46  O         17.4420   -3.9700   37.8180 O.2   203  ASP203     -0.2867
     47  CB        14.8200   -4.2940   39.2050 C.3   203  ASP203      0.1410
     48  CG        14.5260   -4.8500   40.5830 C.2   203  ASP203      0.3668
     49  OD1       14.2540   -4.0650   41.5010 O.co2 203  ASP203     -0.2456
     50  OD2       14.5990   -6.0750   40.7690 O.co2 203  ASP203     -0.2456
     51  N         16.4160   -1.3640   45.5530 N.3   225  SER225     -0.1202
     52  CA        15.5700   -2.5360   45.3030 C.3   225  SER225      0.2020
     53  C         15.4610   -3.3890   46.5740 C.2   225  SER225      0.2618
     54  O         16.0510   -3.0460   47.6060 O.2   225  SER225     -0.2717
     55  CB        16.1090   -3.3540   44.1250 C.3   225  SER225      0.2103
     56  OG        15.2800   -4.4760   43.8500 O.3   225  SER225     -0.2182
     57  N         14.6800   -4.4710   46.5110 N.am  226  VAL226     -0.1979
     58  CA        14.5200   -5.3930   47.6450 C.3   226  VAL226      0.1595
     59  C         14.5200   -6.8230   47.1270 C.2   226  VAL226      0.2287
     60  O         14.2380   -7.0510   45.9490 O.2   226  VAL226     -0.2864
     61  CB        13.2080   -5.1550   48.4480 C.3   226  VAL226      0.0276
     62  CG1       13.1110   -3.7210   48.9290 C.3   226  VAL226      0.0022
     63  CG2       12.0010   -5.5260   47.6370 C.3   226  VAL226      0.0022
     64  N         13.4570  -10.3550   45.9520 N.3   228  ALA228     -0.1231
     65  CA        12.1800  -10.7800   45.4100 C.3   228  ALA228      0.1694
     66  C         12.3160  -12.0790   44.6350 C.2   228  ALA228      0.2592
     67  O         13.3670  -12.3620   44.0760 O.2   228  ALA228     -0.2718
     68  CB        11.6090   -9.6840   44.5170 C.3   228  ALA228      0.0304
     69  N         11.2410  -12.8610   44.6080 N.am  229  ALA229     -0.1966
     70  CA        11.2040  -14.0980   43.8360 C.3   229  ALA229      0.1728
     71  C         10.8220  -13.8270   42.3880 C.2   229  ALA229      0.2616
     72  O         10.2980  -12.7550   42.0680 O.2   229  ALA229     -0.2715
     73  CB        10.2150  -15.0630   44.4590 C.3   229  ALA229      0.0334
     74  N         11.0920  -14.7940   41.5180 N.am  230  GLU230     -0.1977
     75  CA        10.5420  -14.7730   40.1650 C.3   230  GLU230      0.1602
     76  C          9.8800  -16.1220   39.9950 C.2   230  GLU230      0.2287
     77  O          9.9570  -16.9510   40.9000 O.2   230  GLU230     -0.2864
     78  CB        11.6300  -14.5640   39.1130 C.3   230  GLU230      0.0415
     79  CG        12.6380  -15.7000   38.9910 C.3   230  GLU230      0.1163
     80  CD        13.6840  -15.4180   37.9080 C.2   230  GLU230      0.3649
     81  OE1       13.9830  -14.2300   37.6660 O.co2 230  GLU230     -0.2457
     82  OE2       14.2000  -16.3800   37.3050 O.co2 230  GLU230     -0.2457
     83  N          9.5480   -9.6880   48.3820 N.3   259  SER259     -0.1217
     84  CA         8.4570   -9.8020   47.4290 C.3   259  SER259      0.1889
     85  C          8.3820  -11.2240   46.8990 C.2   259  SER259      0.2288
     86  O          9.3840  -11.7870   46.4790 O.2   259  SER259     -0.2866
     87  CB         8.6740   -8.8220   46.2740 C.3   259  SER259      0.2089
     88  OG         7.9200   -9.2100   45.1420 O.3   259  SER259     -0.2183
     89  N          5.6660   -8.8790   50.7480 N.3   293  ILE293     -0.1245
     90  CA         4.9610   -8.1610   49.7120 C.3   293  ILE293      0.1561
     91  C          4.4890   -9.2030   48.7000 C.2   293  ILE293      0.2260
     92  O          5.2930   -9.8170   48.0000 O.2   293  ILE293     -0.2867
     93  CB         5.8670   -7.1280   49.0590 C.3   293  ILE293      0.0252
     94  CG1        6.5220   -6.2630   50.1500 C.3   293  ILE293      0.0019
     95  CG2        5.0680   -6.2620   48.0720 C.3   293  ILE293      0.0019
     96  CD1        7.6970   -5.4450   49.6690 C.3   293  ILE293      0.0001
     97  N          2.9440  -10.6120   45.3810 N.3   295  ARG295     -0.1245
     98  CA         2.9600  -10.1060   44.0150 C.3   295  ARG295      0.1563
     99  C          2.1110  -10.9690   43.0990 C.2   295  ARG295      0.2260
    100  O          2.5210  -12.0600   42.7260 O.2   295  ARG295     -0.2867
    101  CB         4.3910  -10.0430   43.4640 C.3   295  ARG295      0.0307
    102  CG         4.4530   -9.5630   41.9980 C.3   295  ARG295      0.0489
    103  CD         5.8400   -9.0820   41.5930 C.3   295  ARG295      0.2205
    104  NE         6.8130  -10.1480   41.3520 N.pl3 295  ARG295     -0.0865
    105  CZ         7.0410  -10.7120   40.1660 C.cat 295  ARG295      0.5346
    106  NH1        6.3450  -10.3440   39.0980 N.pl3 295  ARG295      0.1354
    107  NH2        7.9580  -11.6610   40.0480 N.pl3 295  ARG295      0.1354
    108  N          1.9910   -6.3370   52.4190 N.3   333  ARG333     -0.1231
    109  CA         1.7040   -5.3820   51.3460 C.3   333  ARG333      0.1694
    110  C          1.5650   -6.1350   50.0280 C.2   333  ARG333      0.2592
    111  O          1.8090   -7.3440   49.9700 O.2   333  ARG333     -0.2718
    112  CB         2.8190   -4.3310   51.2430 C.3   333  ARG333      0.0321
    113  CG         2.9130   -3.3790   52.4620 C.3   333  ARG333      0.0489
    114  CD         1.7240   -2.4250   52.4820 C.3   333  ARG333      0.2205
    115  NE         1.7980   -1.4200   53.5460 N.pl3 333  ARG333     -0.0865
    116  CZ         1.1420   -1.5070   54.7010 C.cat 333  ARG333      0.5346
    117  NH1        0.3840   -2.5610   54.9460 N.pl3 333  ARG333      0.1354
    118  NH2        1.2480   -0.5420   55.6130 N.pl3 333  ARG333      0.1354
    119  N          1.1460   -5.4260   48.9840 N.am  334  VAL334     -0.1966
    120  CA         0.9630   -6.0240   47.6620 C.3   334  VAL334      0.1727
    121  C          1.7530   -5.2060   46.6450 C.2   334  VAL334      0.2616
    122  O          1.8830   -3.9930   46.7910 O.2   334  VAL334     -0.2715
    123  CB        -0.5190   -5.9860   47.2370 C.3   334  VAL334      0.0290
    124  CG1       -0.7150   -6.5870   45.8220 C.3   334  VAL334      0.0023
    125  CG2       -1.3860   -6.7020   48.2540 C.3   334  VAL334      0.0023
    126  N          2.3010   -5.8620   45.6300 N.am  335  ILE335     -0.1977
    127  CA         2.7800   -5.1280   44.4680 C.3   335  ILE335      0.1596
    128  C          2.1610   -5.7040   43.1930 C.2   335  ILE335      0.2287
    129  O          2.1600   -6.9140   42.9980 O.2   335  ILE335     -0.2864
    130  CB         4.3210   -5.0780   44.3700 C.3   335  ILE335      0.0276
    131  CG1        4.7280   -4.3270   43.1000 C.3   335  ILE335      0.0022
    132  CG2        4.9210   -6.4910   44.4140 C.3   335  ILE335      0.0022
    133  CD1        6.1610   -3.9000   43.0390 C.3   335  ILE335      0.0001
    134  N          1.9080   -1.0580   45.7970 N.3   363  ALA363     -0.1245
    135  CA         2.8830   -0.3910   44.9550 C.3   363  ALA363      0.1562
    136  C          2.7420   -1.0210   43.5870 C.2   363  ALA363      0.2260
    137  O          2.1030   -2.0660   43.4500 O.2   363  ALA363     -0.2867
    138  CB         4.2900   -0.5880   45.4860 C.3   363  ALA363      0.0290
@<TRIPOS>BOND
     1    35    34    2
     2    34    33    1
     3    33    36    1
     4    33    32    1
     5    36    37    1
     6    82    80   ar
     7    81    80   ar
     8    37    39   ar
     9    37    38   ar
    10    46    45    2
    11    80    79    1
    12    45    44    1
    13    39    41   ar
    14    25    24    2
    15    38    40   ar
    16    79    78    1
    17    24    23    1
    18   106   105    1
    19    78    75    1
    20    47    44    1
    21    47    48    1
    22    44    43    1
    23    41    42   ar
    24    76    75    1
    25    76    77    2
    26   107   105    1
    27    40    42   ar
    28    75    74    1
    29   105   104    2
    30    23    22    1
    31    23    26    1
    32    48    50   ar
    33    48    49   ar
    34    29    27   ar
    35    29    31   ar
    36   104   103    1
    37    26    27    1
    38    74    71   am
    39   103   102    1
    40    27    28   ar
    41    31    30   ar
    42   102   101    1
    43    72    71    2
    44    71    70    1
    45    16    15    2
    46   100    99    2
    47    28    30   ar
    48   129   128    2
    49   133   131    1
    50    99    98    1
    51   131   130    1
    52    15    14    1
    53   128   127    1
    54   137   136    2
    55   101    98    1
    56   136   135    1
    57    70    73    1
    58    70    69    1
    59    56    55    1
    60    98    97    1
    61    67    66    2
    62    55    52    1
    63   130   132    1
    64   130   127    1
    65   127   126    1
    66    68    65    1
    67    14    17    1
    68    14    13    1
    69    69    66   am
    70    66    65    1
    71    17    18    1
    72   135   138    1
    73   135   134    1
    74    13     3   am
    75    88    87    1
    76    52    51    1
    77    52    53    1
    78     4     3    2
    79    65    64    1
    80     3     2    1
    81   126   121   am
    82   124   123    1
    83    60    59    2
    84     2     1    1
    85     2     5    1
    86    18    19    1
    87    87    84    1
    88    86    85    2
    89    57    53   am
    90    57    58    1
    91    53    54    2
    92   121   122    2
    93   121   120    1
    94    19    20    1
    95    85    84    1
    96    59    58    1
    97   123   120    1
    98   123   125    1
    99     7     9   ar
   100     7     6   ar
   101     5     6    1
   102    84    83    1
   103    63    61    1
   104     9    11   ar
   105    58    61    1
   106   120   119    1
   107     6     8   ar
   108    92    91    2
   109    95    93    1
   110    20    21    1
   111    61    62    1
   112    11    12    1
   113    11    10   ar
   114    91    90    1
   115     8    10   ar
   116   119   110   am
   117    93    90    1
   118    93    94    1
   119    96    94    1
   120    90    89    1
   121   111   110    2
   122   110   109    1
   123   112   109    1
   124   112   113    1
   125   109   108    1
   126   113   114    1
   127   114   115    1
   128   115   116    2
   129   116   117    1
   130   116   118    1
