@<TRIPOS>MOLECULE
tmp/4lvdB00.pdb
 95 86 0 0 0
SMALL
GASTEIGER

@<TRIPOS>ATOM
      1  N         13.2720   -6.7620   37.8170 N.3   174  HIS174     -0.1241
      2  CA        12.0010   -6.2010   37.3970 C.3   174  HIS174      0.1621
      3  C         12.0770   -5.8770   35.9020 C.2   174  HIS174      0.2264
      4  O         13.1040   -5.3990   35.4210 O.2   174  HIS174     -0.2867
      5  CB        11.7160   -4.9130   38.1760 C.3   174  HIS174      0.0745
      6  CG        10.2610   -4.5730   38.2800 C.ar  174  HIS174      0.0817
      7  ND1        9.4870   -4.9460   39.3590 N.ar  174  HIS174     -0.2268
      8  CD2        9.4460   -3.8760   37.4540 C.ar  174  HIS174      0.1154
      9  CE1        8.2540   -4.5030   39.1870 C.ar  174  HIS174      0.1986
     10  NE2        8.2040   -3.8440   38.0420 N.ar  174  HIS174     -0.2212
     11  N         11.5130   -3.6600   32.9400 N.3   176  PHE176     -0.1241
     12  CA        11.3510   -2.2400   32.5960 C.3   176  PHE176      0.1605
     13  C         11.3040   -2.0490   31.0800 C.2   176  PHE176      0.2264
     14  O         11.4770   -0.9380   30.5820 O.2   176  PHE176     -0.2867
     15  CB        12.5660   -1.4420   33.0640 C.3   176  PHE176      0.0534
     16  CG        12.6350   -1.2030   34.5460 C.ar  176  PHE176     -0.0203
     17  CD1       13.6670   -0.4390   35.0630 C.ar  176  PHE176     -0.0042
     18  CD2       11.6910   -1.7280   35.4170 C.ar  176  PHE176     -0.0042
     19  CE1       13.7660   -0.2010   36.4250 C.ar  176  PHE176     -0.0003
     20  CE2       11.7820   -1.4920   36.7840 C.ar  176  PHE176     -0.0003
     21  CZ        12.8220   -0.7240   37.2860 C.ar  176  PHE176     -0.0000
     22  N          8.9150    0.1670   26.8260 N.3   179  ARG179     -0.1245
     23  CA         9.2400    1.1610   25.8100 C.3   179  ARG179      0.1563
     24  C         10.3570    0.7100   24.8630 C.2   179  ARG179      0.2260
     25  O         10.4780    1.2250   23.7510 O.2   179  ARG179     -0.2867
     26  CB         9.6420    2.4790   26.4590 C.3   179  ARG179      0.0307
     27  CG        11.0820    2.4980   26.9610 C.3   179  ARG179      0.0489
     28  CD        11.3050    3.6650   27.9110 C.3   179  ARG179      0.2205
     29  NE        10.4330    3.5570   29.0720 N.pl3 179  ARG179     -0.0865
     30  CZ        10.3530    4.4580   30.0440 C.cat 179  ARG179      0.5346
     31  NH1       11.1190    5.5420   30.0090 N.pl3 179  ARG179      0.1354
     32  NH2        9.5150    4.2590   31.0560 N.pl3 179  ARG179      0.1354
     33  N          6.7260   -4.0660   34.9080 N.3   202  ASP202     -0.1239
     34  CA         6.0040   -2.8450   34.5590 C.3   202  ASP202      0.1674
     35  C          5.4090   -2.9530   33.1600 C.2   202  ASP202      0.2266
     36  O          4.6910   -2.0590   32.6940 O.2   202  ASP202     -0.2867
     37  CB         6.9330   -1.6380   34.6200 C.3   202  ASP202      0.1410
     38  CG         6.8620   -0.9310   35.9490 C.2   202  ASP202      0.3668
     39  OD1        6.8290   -1.6340   36.9800 O.co2 202  ASP202     -0.2456
     40  OD2        6.8210    0.3240   35.9530 O.co2 202  ASP202     -0.2456
     41  N          3.8850   -4.5410   40.7470 N.3   224  SER224     -0.1202
     42  CA         4.7720   -3.3850   40.7790 C.3   224  SER224      0.2020
     43  C          4.4200   -2.5000   41.9710 C.2   224  SER224      0.2618
     44  O          3.5020   -2.8150   42.7390 O.2   224  SER224     -0.2717
     45  CB         4.6690   -2.5760   39.4860 C.3   224  SER224      0.2103
     46  OG         5.6920   -1.5910   39.4260 O.3   224  SER224     -0.2182
     47  N          5.1480   -1.3920   42.1080 N.am  225  VAL225     -0.1979
     48  CA         4.9650   -0.4590   43.2260 C.3   225  VAL225      0.1595
     49  C          5.1230    0.9620   42.7080 C.2   225  VAL225      0.2287
     50  O          5.6860    1.1640   41.6250 O.2   225  VAL225     -0.2864
     51  CB         6.0060   -0.6940   44.3530 C.3   225  VAL225      0.0276
     52  CG1        5.8970   -2.1100   44.9170 C.3   225  VAL225      0.0022
     53  CG2        7.4160   -0.4050   43.8590 C.3   225  VAL225      0.0022
     54  N          6.4800    4.5140   41.7440 N.3   227  ALA227     -0.1245
     55  CA         7.8250    4.9410   41.4460 C.3   227  ALA227      0.1562
     56  C          7.8040    6.2260   40.6500 C.2   227  ALA227      0.2260
     57  O          6.8880    6.4770   39.8690 O.2   227  ALA227     -0.2867
     58  CB         8.5610    3.8730   40.6660 C.3   227  ALA227      0.0290
     59  N          9.8460    3.7220   44.8620 N.3   258  SER258     -0.1217
     60  CA        11.1220    3.8740   44.1860 C.3   258  SER258      0.1889
     61  C         11.2320    5.3130   43.6960 C.2   258  SER258      0.2288
     62  O         10.2850    5.8370   43.1010 O.2   258  SER258     -0.2866
     63  CB        11.1970    2.9060   42.9980 C.3   258  SER258      0.2089
     64  OG        12.3110    3.1930   42.1720 O.3   258  SER258     -0.2183
     65  N         16.9430    4.9540   43.4430 N.3   294  ARG294     -0.1245
     66  CA        17.2400    4.4610   42.1100 C.3   294  ARG294      0.1563
     67  C         18.2130    5.3710   41.3740 C.2   294  ARG294      0.2260
     68  O         17.8260    6.4240   40.8720 O.2   294  ARG294     -0.2867
     69  CB        15.9440    4.3130   41.3230 C.3   294  ARG294      0.0307
     70  CG        16.1240    3.7160   39.9510 C.3   294  ARG294      0.0489
     71  CD        14.8290    3.7550   39.1890 C.3   294  ARG294      0.2205
     72  NE        15.1180    3.8830   37.7710 N.pl3 294  ARG294     -0.0865
     73  CZ        14.3980    4.5990   36.9230 C.cat 294  ARG294      0.5346
     74  NH1       13.3150    5.2450   37.3390 N.pl3 294  ARG294      0.1354
     75  NH2       14.7590    4.6500   35.6520 N.pl3 294  ARG294      0.1354
     76  N         20.4480    5.9810   37.9740 N.3   296  ASP296     -0.1239
     77  CA        20.0520    5.6450   36.6060 C.3   296  ASP296      0.1674
     78  C         21.0730    6.0650   35.5490 C.2   296  ASP296      0.2266
     79  O         20.7490    6.1940   34.3630 O.2   296  ASP296     -0.2867
     80  CB        18.6810    6.2510   36.2920 C.3   296  ASP296      0.1410
     81  CG        18.0640    5.6780   35.0370 C.2   296  ASP296      0.3668
     82  OD1       17.6500    6.4780   34.1790 O.co2 296  ASP296     -0.2456
     83  OD2       17.9840    4.4320   34.9090 O.co2 296  ASP296     -0.2456
     84  N         17.8420    0.1630   43.8650 N.3   334  ILE334     -0.1245
     85  CA        17.5930   -0.5770   42.6390 C.3   334  ILE334      0.1561
     86  C         18.4180    0.0260   41.5150 C.2   334  ILE334      0.2260
     87  O         18.4550    1.2420   41.3450 O.2   334  ILE334     -0.2867
     88  CB        16.0780   -0.5960   42.2620 C.3   334  ILE334      0.0252
     89  CG1       15.8730   -1.3980   40.9780 C.3   334  ILE334      0.0019
     90  CG2       15.5240    0.8280   42.1570 C.3   334  ILE334      0.0019
     91  CD1       14.4560   -1.8730   40.7560 C.3   334  ILE334      0.0001
     92  N         18.6560    0.1390   37.5700 N.3   336  GLY336     -0.1225
     93  CA        17.8040   -0.1780   36.4360 C.3   336  GLY336      0.1811
     94  C         18.2390    0.4550   35.1310 C.2   336  GLY336      0.2280
     95  O         17.4240    0.6470   34.2290 O.2   336  GLY336     -0.2866
@<TRIPOS>BOND
     1    25    24    2
     2    24    23    1
     3    23    26    1
     4    23    22    1
     5    26    27    1
     6    27    28    1
     7    28    29    1
     8    29    30    2
     9    31    30    1
    10    30    32    1
    11    14    13    2
    12    13    12    1
    13    12    11    1
    14    12    15    1
    15    36    35    2
    16    15    16    1
    17    35    34    1
    18    82    81   ar
    19    95    94    2
    20    79    78    2
    21    16    17   ar
    22    16    18   ar
    23    34    37    1
    24    34    33    1
    25    37    38    1
    26    83    81   ar
    27    81    80    1
    28    17    19   ar
    29    94    93    1
    30    18    20   ar
    31     4     3    2
    32    78    77    1
    33    75    73    1
    34     3     2    1
    35    38    40   ar
    36    38    39   ar
    37    80    77    1
    38    19    21   ar
    39    93    92    1
    40    77    76    1
    41    20    21   ar
    42    73    74    1
    43    73    72    2
    44     2     1    1
    45     2     5    1
    46     8    10   ar
    47     8     6   ar
    48    72    71    1
    49    10     9   ar
    50     5     6    1
    51     6     7   ar
    52     9     7   ar
    53    71    70    1
    54    46    45    1
    55    45    42    1
    56    57    56    2
    57    70    69    1
    58    56    55    1
    59    58    55    1
    60    41    42    1
    61    91    89    1
    62    42    43    1
    63    68    67    2
    64    89    88    1
    65    69    66    1
    66    87    86    2
    67    67    66    1
    68    55    54    1
    69    86    85    1
    70    50    49    2
    71    43    47   am
    72    43    44    2
    73    47    48    1
    74    66    65    1
    75    90    88    1
    76    64    63    1
    77    88    85    1
    78    85    84    1
    79    49    48    1
    80    63    60    1
    81    62    61    2
    82    48    51    1
    83    61    60    1
    84    53    51    1
    85    60    59    1
    86    51    52    1
