@<TRIPOS>MOLECULE
tmp/4lvfB00.pdb
 122 113 0 0 0
SMALL
GASTEIGER

@<TRIPOS>ATOM
      1  N          8.1600    3.7020   46.3540 N.3   171  TYR171     -0.1241
      2  CA         8.3920    2.2690   46.1610 C.3   171  TYR171      0.1605
      3  C          7.1930    1.5520   45.5470 C.2   171  TYR171      0.2264
      4  O          7.1840    0.3230   45.4450 O.2   171  TYR171     -0.2867
      5  CB         8.7920    1.6050   47.4810 C.3   171  TYR171      0.0534
      6  CG        10.1380    2.0680   47.9490 C.ar  171  TYR171     -0.0201
      7  CD1       11.2940    1.5680   47.3710 C.ar  171  TYR171     -0.0009
      8  CD2       10.2600    3.0320   48.9430 C.ar  171  TYR171     -0.0009
      9  CE1       12.5390    1.9960   47.7770 C.ar  171  TYR171      0.0417
     10  CE2       11.5060    3.4710   49.3570 C.ar  171  TYR171      0.0417
     11  CZ        12.6430    2.9460   48.7680 C.ar  171  TYR171      0.1957
     12  OH        13.8900    3.3720   49.1670 O.3   171  TYR171     -0.2866
     13  N          7.5620   -0.5410   40.6480 N.3   174  HIS174     -0.1241
     14  CA         8.8780   -1.1630   40.5800 C.3   174  HIS174      0.1621
     15  C          9.1890   -1.5920   39.1480 C.2   174  HIS174      0.2264
     16  O          8.3360   -2.1530   38.4620 O.2   174  HIS174     -0.2867
     17  CB         8.9130   -2.3770   41.5140 C.3   174  HIS174      0.0745
     18  CG        10.2900   -2.8440   41.8680 C.ar  174  HIS174      0.0817
     19  ND1       10.9100   -2.4870   43.0450 N.ar  174  HIS174     -0.2268
     20  CD2       11.1580   -3.6500   41.2140 C.ar  174  HIS174      0.1154
     21  CE1       12.1040   -3.0500   43.1000 C.ar  174  HIS174      0.1986
     22  NE2       12.2780   -3.7660   41.9960 N.ar  174  HIS174     -0.2212
     23  N         10.3850   -3.8560   36.4200 N.3   176  PHE176     -0.1241
     24  CA        10.5870   -5.2760   36.1030 C.3   176  PHE176      0.1605
     25  C         11.0220   -5.4520   34.6350 C.2   176  PHE176      0.2264
     26  O         10.9450   -6.5550   34.0810 O.2   176  PHE176     -0.2867
     27  CB         9.2810   -6.0810   36.2600 C.3   176  PHE176      0.0534
     28  CG         8.8200   -6.3170   37.6840 C.ar  176  PHE176     -0.0203
     29  CD1        9.4840   -5.7920   38.7760 C.ar  176  PHE176     -0.0042
     30  CD2        7.6910   -7.0930   37.9080 C.ar  176  PHE176     -0.0042
     31  CE1        9.0280   -6.0360   40.0720 C.ar  176  PHE176     -0.0003
     32  CE2        7.2330   -7.3450   39.1940 C.ar  176  PHE176     -0.0003
     33  CZ         7.8950   -6.7990   40.2760 C.ar  176  PHE176     -0.0000
     34  N         14.3180   -7.7140   31.0270 N.3   179  ARG179     -0.1245
     35  CA        14.2150   -8.7180   29.9640 C.3   179  ARG179      0.1563
     36  C         13.3620   -8.2490   28.7880 C.2   179  ARG179      0.2260
     37  O         13.4710   -8.7980   27.6880 O.2   179  ARG179     -0.2867
     38  CB        13.6240  -10.0270   30.5060 C.3   179  ARG179      0.0307
     39  CG        12.1060   -9.9800   30.6880 C.3   179  ARG179      0.0489
     40  CD        11.5910  -11.1560   31.5040 C.3   179  ARG179      0.2205
     41  NE        12.1910  -11.1480   32.8290 N.pl3 179  ARG179     -0.0865
     42  CZ        11.9590  -12.0570   33.7640 C.cat 179  ARG179      0.5346
     43  NH1       11.1090  -13.0600   33.5360 N.pl3 179  ARG179      0.1354
     44  NH2       12.5740  -11.9510   34.9330 N.pl3 179  ARG179      0.1354
     45  N         14.5170   -3.5840   39.5410 N.3   202  ASP202     -0.1239
     46  CA        15.2960   -4.8120   39.3680 C.3   202  ASP202      0.1674
     47  C         16.1740   -4.7220   38.1280 C.2   202  ASP202      0.2266
     48  O         16.8920   -5.6680   37.7810 O.2   202  ASP202     -0.2867
     49  CB        14.4020   -6.0570   39.2890 C.3   202  ASP202      0.1410
     50  CG        14.1390   -6.6670   40.6530 C.2   202  ASP202      0.3668
     51  OD1       13.9130   -5.8970   41.6100 O.co2 202  ASP202     -0.2456
     52  OD2       14.1720   -7.9130   40.7690 O.co2 202  ASP202     -0.2456
     53  N         16.0960   -3.0500   45.8150 N.3   224  SER224     -0.1202
     54  CA        15.2000   -4.1810   45.6350 C.3   224  SER224      0.2020
     55  C         15.1770   -5.0750   46.8690 C.2   224  SER224      0.2618
     56  O         15.8340   -4.7850   47.8720 O.2   224  SER224     -0.2717
     57  CB        15.5910   -4.9910   44.4020 C.3   224  SER224      0.2103
     58  OG        14.5460   -5.8890   44.0530 O.3   224  SER224     -0.2182
     59  N         14.3970   -6.1520   46.7940 N.am  225  VAL225     -0.1979
     60  CA        14.3100   -7.1380   47.8740 C.3   225  VAL225      0.1595
     61  C         14.3260   -8.5340   47.2690 C.2   225  VAL225      0.2287
     62  O         14.0440   -8.7020   46.0770 O.2   225  VAL225     -0.2864
     63  CB        13.0070   -6.9810   48.7080 C.3   225  VAL225      0.0276
     64  CG1       12.8660   -5.5540   49.2200 C.3   225  VAL225      0.0022
     65  CG2       11.7680   -7.4130   47.8990 C.3   225  VAL225      0.0022
     66  N         13.1990  -12.1360   46.0510 N.3   227  ALA227     -0.1231
     67  CA        11.9260  -12.5330   45.4670 C.3   227  ALA227      0.1694
     68  C         12.0760  -13.8250   44.6910 C.2   227  ALA227      0.2592
     69  O         13.1400  -14.0840   44.1370 O.2   227  ALA227     -0.2718
     70  CB        11.4300  -11.4500   44.5500 C.3   227  ALA227      0.0304
     71  N         11.0060  -14.6200   44.6470 N.am  228  ALA228     -0.1966
     72  CA        10.9840  -15.8490   43.8580 C.3   228  ALA228      0.1728
     73  C         10.6280  -15.5940   42.3930 C.2   228  ALA228      0.2616
     74  O         10.0320  -14.5680   42.0460 O.2   228  ALA228     -0.2715
     75  CB         9.9990  -16.8620   44.4700 C.3   228  ALA228      0.0334
     76  N         11.0210  -16.5260   41.5310 N.am  229  GLU229     -0.1977
     77  CA        10.4570  -16.6030   40.1890 C.3   229  GLU229      0.1602
     78  C          9.7910  -17.9640   40.0550 C.2   229  GLU229      0.2287
     79  O          9.9140  -18.7990   40.9460 O.2   229  GLU229     -0.2864
     80  CB        11.5350  -16.4190   39.1210 C.3   229  GLU229      0.0415
     81  CG        12.5600  -17.5330   39.0490 C.3   229  GLU229      0.1163
     82  CD        13.5850  -17.2800   37.9590 C.2   229  GLU229      0.3649
     83  OE1       13.9030  -16.0910   37.7200 O.co2 229  GLU229     -0.2457
     84  OE2       14.0670  -18.2570   37.3440 O.co2 229  GLU229     -0.2457
     85  N          9.2600  -11.3100   48.2660 N.3   258  SER258     -0.1217
     86  CA         8.1610  -11.4590   47.3170 C.3   258  SER258      0.1889
     87  C          8.1190  -12.8900   46.8170 C.2   258  SER258      0.2288
     88  O          9.1440  -13.4400   46.3980 O.2   258  SER258     -0.2866
     89  CB         8.3540  -10.5100   46.1400 C.3   258  SER258      0.2089
     90  OG         7.5470  -10.8950   45.0330 O.3   258  SER258     -0.2183
     91  N          5.3980  -10.5890   50.6830 N.3   292  ILE292     -0.1245
     92  CA         4.6990   -9.9090   49.6060 C.3   292  ILE292      0.1561
     93  C          4.2300  -10.9610   48.6150 C.2   292  ILE292      0.2260
     94  O          5.0340  -11.5530   47.9010 O.2   292  ILE292     -0.2867
     95  CB         5.6020   -8.8690   48.9190 C.3   292  ILE292      0.0252
     96  CG1        6.2320   -7.9460   49.9760 C.3   292  ILE292      0.0019
     97  CG2        4.7930   -8.0600   47.8990 C.3   292  ILE292      0.0019
     98  CD1        7.4150   -7.1190   49.4670 C.3   292  ILE292      0.0001
     99  N          2.7030  -12.3990   45.3170 N.3   294  ARG294     -0.1245
    100  CA         2.7190  -11.9250   43.9360 C.3   294  ARG294      0.1563
    101  C          1.8750  -12.7980   43.0040 C.2   294  ARG294      0.2260
    102  O          2.3220  -13.8620   42.5730 O.2   294  ARG294     -0.2867
    103  CB         4.1590  -11.8450   43.4100 C.3   294  ARG294      0.0307
    104  CG         4.2590  -11.3610   41.9730 C.3   294  ARG294      0.0489
    105  CD         5.7160  -11.3380   41.4780 C.3   294  ARG294      0.2205
    106  NE         5.7460  -11.4870   40.0290 N.pl3 294  ARG294     -0.0865
    107  CZ         6.5830  -12.2750   39.3680 C.cat 294  ARG294      0.5346
    108  NH1        6.4990  -12.3360   38.0540 N.pl3 294  ARG294      0.1354
    109  NH2        7.5020  -12.9970   40.0170 N.pl3 294  ARG294      0.1354
    110  N          1.9350   -7.6530   45.5360 N.3   334  ILE334     -0.1245
    111  CA         2.4530   -6.9270   44.3770 C.3   334  ILE334      0.1561
    112  C          1.8710   -7.4890   43.0880 C.2   334  ILE334      0.2260
    113  O          1.8900   -8.6990   42.8550 O.2   334  ILE334     -0.2867
    114  CB         4.0030   -6.8870   44.3190 C.3   334  ILE334      0.0252
    115  CG1        4.4560   -6.0200   43.1380 C.3   334  ILE334      0.0019
    116  CG2        4.5890   -8.3040   44.2520 C.3   334  ILE334      0.0019
    117  CD1        5.9330   -5.6780   43.1300 C.3   334  ILE334      0.0001
    118  N          1.6350   -2.9160   45.8050 N.3   362  ALA362     -0.1245
    119  CA         2.6250   -2.2630   44.9630 C.3   362  ALA362      0.1562
    120  C          2.4860   -2.8320   43.5650 C.2   362  ALA362      0.2260
    121  O          1.8330   -3.8580   43.3600 O.2   362  ALA362     -0.2867
    122  CB         4.0290   -2.4850   45.4920 C.3   362  ALA362      0.0290
@<TRIPOS>BOND
     1    37    36    2
     2    36    35    1
     3    35    38    1
     4    35    34    1
     5    38    39    1
     6    39    40    1
     7    40    41    1
     8    41    42    2
     9    43    42    1
    10    42    44    1
    11    26    25    2
    12    25    24    1
    13    24    27    1
    14    24    23    1
    15    27    28    1
    16    84    82   ar
    17    28    30   ar
    18    28    29   ar
    19    83    82   ar
    20    48    47    2
    21    30    32   ar
    22    82    81    1
    23   108   107    1
    24    47    46    1
    25    16    15    2
    26    29    31   ar
    27    81    80    1
    28    80    77    1
    29    15    14    1
    30    32    33   ar
    31    49    46    1
    32    49    50    1
    33    46    45    1
    34   107   109    1
    35   107   106    2
    36   106   105    1
    37    78    77    1
    38    78    79    2
    39    31    33   ar
    40    77    76    1
    41    14    13    1
    42    14    17    1
    43    50    52   ar
    44    50    51   ar
    45    20    18   ar
    46    20    22   ar
    47   105   104    1
    48    17    18    1
    49    76    73   am
    50    18    19   ar
    51   104   103    1
    52    22    21   ar
    53    74    73    2
    54    73    72    1
    55   102   101    2
    56   113   112    2
    57   101   100    1
    58    19    21   ar
    59   112   111    1
    60   117   115    1
    61   115   114    1
    62   121   120    2
    63   103   100    1
    64   120   119    1
    65    72    75    1
    66    72    71    1
    67   100    99    1
    68    58    57    1
    69    69    68    2
    70   116   114    1
    71   114   111    1
    72   111   110    1
    73    57    54    1
    74    70    67    1
    75    71    68   am
    76    68    67    1
    77   119   122    1
    78   119   118    1
    79    90    89    1
    80     4     3    2
    81    67    66    1
    82     3     2    1
    83    54    53    1
    84    54    55    1
    85    62    61    2
    86    89    86    1
    87     2     1    1
    88     2     5    1
    89    88    87    2
    90    59    55   am
    91    59    60    1
    92    87    86    1
    93    55    56    2
    94    61    60    1
    95    86    85    1
    96     7     9   ar
    97     7     6   ar
    98     5     6    1
    99     9    11   ar
   100    60    63    1
   101    65    63    1
   102    97    95    1
   103    94    93    2
   104     6     8   ar
   105    93    92    1
   106    63    64    1
   107    11    12    1
   108    11    10   ar
   109    95    92    1
   110    95    96    1
   111     8    10   ar
   112    98    96    1
   113    92    91    1
