@<TRIPOS>MOLECULE
tmp/4lvgA00.pdb
 139 130 0 0 0
SMALL
GASTEIGER

@<TRIPOS>ATOM
      1  N         13.9570   -4.2600   -1.8440 N.3   171  TYR171     -0.1241
      2  CA        14.1570   -2.8270   -1.6040 C.3   171  TYR171      0.1605
      3  C         12.8480   -2.0830   -1.3220 C.2   171  TYR171      0.2264
      4  O         12.8330   -0.8520   -1.2580 O.2   171  TYR171     -0.2867
      5  CB        14.9100   -2.1750   -2.7780 C.3   171  TYR171      0.0534
      6  CG        16.3640   -2.5890   -2.8460 C.ar  171  TYR171     -0.0201
      7  CD1       17.3160   -1.9930   -2.0240 C.ar  171  TYR171     -0.0009
      8  CD2       16.7830   -3.5890   -3.7160 C.ar  171  TYR171     -0.0009
      9  CE1       18.6400   -2.3760   -2.0720 C.ar  171  TYR171      0.0417
     10  CE2       18.1090   -3.9800   -3.7690 C.ar  171  TYR171      0.0417
     11  CZ        19.0330   -3.3710   -2.9450 C.ar  171  TYR171      0.1957
     12  OH        20.3580   -3.7610   -2.9900 O.3   171  TYR171     -0.2866
     13  N         12.1470    0.2680    3.4450 N.3   174  HIS174     -0.1241
     14  CA        13.3960    0.8810    3.8880 C.3   174  HIS174      0.1621
     15  C         13.3330    1.2530    5.3740 C.2   174  HIS174      0.2264
     16  O         12.3370    1.7990    5.8420 O.2   174  HIS174     -0.2867
     17  CB        13.6680    2.1360    3.0530 C.3   174  HIS174      0.0745
     18  CG        15.1100    2.5360    3.0040 C.ar  174  HIS174      0.0817
     19  ND1       15.9660    2.1060    2.0130 N.ar  174  HIS174     -0.2268
     20  CD2       15.8420    3.3440    3.8100 C.ar  174  HIS174      0.1154
     21  CE1       17.1650    2.6220    2.2160 C.ar  174  HIS174      0.1986
     22  NE2       17.1170    3.3780    3.3000 N.ar  174  HIS174     -0.2212
     23  N         13.8740    3.4710    8.3470 N.3   176  PHE176     -0.1241
     24  CA        14.0320    4.8810    8.7310 C.3   176  PHE176      0.1605
     25  C         14.1270    5.0490   10.2580 C.2   176  PHE176      0.2264
     26  O         13.9620    6.1570   10.7730 O.2   176  PHE176     -0.2867
     27  CB        12.8050    5.6990    8.2840 C.3   176  PHE176      0.0534
     28  CG        12.7080    5.9470    6.7930 C.ar  176  PHE176     -0.0203
     29  CD1       13.6720    5.4830    5.9130 C.ar  176  PHE176     -0.0042
     30  CD2       11.6310    6.6650    6.2810 C.ar  176  PHE176     -0.0042
     31  CE1       13.5640    5.7330    4.5420 C.ar  176  PHE176     -0.0003
     32  CE2       11.5150    6.9220    4.9190 C.ar  176  PHE176     -0.0003
     33  CZ        12.4790    6.4480    4.0470 C.ar  176  PHE176     -0.0000
     34  N         16.4510    7.2950   14.5750 N.3   179  ARG179     -0.1245
     35  CA        16.1270    8.3070   15.5800 C.3   179  ARG179      0.1563
     36  C         15.0170    7.8610   16.5310 C.2   179  ARG179      0.2260
     37  O         14.9040    8.3810   17.6460 O.2   179  ARG179     -0.2867
     38  CB        15.7300    9.6200   14.9080 C.3   179  ARG179      0.0307
     39  CG        14.2900    9.6390   14.4110 C.3   179  ARG179      0.0489
     40  CD        14.0540   10.8150   13.4770 C.3   179  ARG179      0.2205
     41  NE        14.9210   10.7390   12.3070 N.pl3 179  ARG179     -0.0865
     42  CZ        14.8310   11.5480   11.2580 C.cat 179  ARG179      0.5346
     43  NH1       13.9030   12.4970   11.2280 N.pl3 179  ARG179      0.1354
     44  NH2       15.6670   11.4030   10.2410 N.pl3 179  ARG179      0.1354
     45  N         18.7080    3.1370    6.3710 N.3   202  ASP202     -0.1239
     46  CA        19.4480    4.3410    6.7310 C.3   202  ASP202      0.1674
     47  C         19.9730    4.2300    8.1570 C.2   202  ASP202      0.2266
     48  O         20.6010    5.1520    8.6740 O.2   202  ASP202     -0.2867
     49  CB        18.5700    5.5830    6.5910 C.3   202  ASP202      0.1410
     50  CG        18.6750    6.2120    5.2220 C.2   202  ASP202      0.3668
     51  OD1       18.6880    5.4680    4.2140 O.co2 202  ASP202     -0.2456
     52  OD2       18.7590    7.4550    5.1530 O.co2 202  ASP202     -0.2456
     53  N         20.2520    5.5760   -0.4650 N.3   225  VAL225     -0.1245
     54  CA        20.3330    6.5080   -1.5900 C.3   225  VAL225      0.1561
     55  C         20.3180    7.9440   -1.0690 C.2   225  VAL225      0.2260
     56  O         19.7970    8.2090    0.0230 O.2   225  VAL225     -0.2867
     57  CB        19.1720    6.3240   -2.6030 C.3   225  VAL225      0.0252
     58  CG1       19.1950    4.9220   -3.2130 C.3   225  VAL225      0.0019
     59  CG2       17.8370    6.6090   -1.9470 C.3   225  VAL225      0.0019
     60  N         19.1920   11.6430   -0.3330 N.3   227  ALA227     -0.1231
     61  CA        17.8460   12.0930   -0.0600 C.3   227  ALA227      0.1694
     62  C         17.8730   13.3790    0.7370 C.2   227  ALA227      0.2591
     63  O         18.7820   13.6090    1.5380 O.2   227  ALA227     -0.2718
     64  CB        17.0840   11.0200    0.7110 C.3   227  ALA227      0.0304
     65  N         16.8600   14.2090    0.5260 N.am  228  ALA228     -0.1980
     66  CA        16.7220   15.4410    1.2880 C.3   228  ALA228      0.1597
     67  C         16.0180   15.1810    2.6130 C.2   228  ALA228      0.2287
     68  O         15.3600   14.1550    2.7870 O.2   228  ALA228     -0.2864
     69  CB        15.9510   16.4760    0.4750 C.3   228  ALA228      0.0319
     70  N         19.9410    7.7540   -7.9670 N.3   256  PRO256     -0.2116
     71  CA        18.5880    7.9730   -7.4460 C.3   256  PRO256      0.1372
     72  C         18.6190    9.0470   -6.3720 C.2   256  PRO256      0.2244
     73  O         19.6080    9.1440   -5.6350 O.2   256  PRO256     -0.2868
     74  CB        18.2340    6.6300   -6.7940 C.3   256  PRO256      0.0268
     75  CG        19.1770    5.6430   -7.3820 C.3   256  PRO256      0.0207
     76  CD        20.4220    6.3840   -7.7070 C.3   256  PRO256      0.0892
     77  N         15.8800   10.9540   -3.4160 N.3   258  SER258     -0.1217
     78  CA        14.5780   11.1470   -2.7970 C.3   258  SER258      0.1889
     79  C         14.4580   12.5890   -2.3180 C.2   258  SER258      0.2288
     80  O         15.3630   13.1090   -1.6690 O.2   258  SER258     -0.2866
     81  CB        14.4150   10.1840   -1.6170 C.3   258  SER258      0.2089
     82  OG        13.3740   10.6030   -0.7540 O.3   258  SER258     -0.2183
     83  N         16.2190    7.5140  -10.8280 N.3   290  PRO290     -0.2116
     84  CA        14.9390    8.2270  -10.7960 C.3   290  PRO290      0.1372
     85  C         14.8760    9.2820   -9.7060 C.2   290  PRO290      0.2244
     86  O         15.6500    9.2260   -8.7480 O.2   290  PRO290     -0.2868
     87  CB        13.9420    7.1200  -10.4520 C.3   290  PRO290      0.0268
     88  CG        14.7490    6.1460   -9.6600 C.3   290  PRO290      0.0207
     89  CD        16.0930    6.1400  -10.3080 C.3   290  PRO290      0.0892
     90  N         12.6840   10.1780   -6.6410 N.3   292  ILE292     -0.1245
     91  CA        11.6800    9.5790   -5.7820 C.3   292  ILE292      0.1561
     92  C         11.0390   10.6870   -4.9660 C.2   292  ILE292      0.2260
     93  O         11.7010   11.3270   -4.1450 O.2   292  ILE292     -0.2867
     94  CB        12.2730    8.5110   -4.8470 C.3   292  ILE292      0.0252
     95  CG1       13.0410    7.4630   -5.6620 C.3   292  ILE292      0.0019
     96  CG2       11.1700    7.8420   -4.0430 C.3   292  ILE292      0.0019
     97  CD1       14.5140    7.4490   -5.4000 C.3   292  ILE292      0.0001
     98  N          8.8340   12.1510   -2.0620 N.3   294  ARG294     -0.1245
     99  CA         8.5140   11.7080   -0.7090 C.3   294  ARG294      0.1563
    100  C          7.4850   12.6100   -0.0220 C.2   294  ARG294      0.2260
    101  O          7.8210   13.6850    0.4650 O.2   294  ARG294     -0.2867
    102  CB         9.7970   11.6160    0.1280 C.3   294  ARG294      0.0307
    103  CG         9.5870   11.2170    1.5820 C.3   294  ARG294      0.0489
    104  CD        10.9100   11.2350    2.3510 C.3   294  ARG294      0.2205
    105  NE        10.6590   11.2670    3.7860 N.pl3 294  ARG294     -0.0865
    106  CZ        11.3350   12.0060    4.6580 C.cat 294  ARG294      0.5346
    107  NH1       11.0020   11.9650    5.9350 N.pl3 294  ARG294      0.1354
    108  NH2       12.3290   12.7900    4.2580 N.pl3 294  ARG294      0.1354
    109  N          9.3700    7.8180   -9.1630 N.3   332  ARG332     -0.1231
    110  CA         8.7810    6.9020   -8.1910 C.3   332  ARG332      0.1694
    111  C          8.3480    7.6670   -6.9410 C.2   332  ARG332      0.2592
    112  O          8.6220    8.8580   -6.8150 O.2   332  ARG332     -0.2718
    113  CB         9.7770    5.7940   -7.8260 C.3   332  ARG332      0.0321
    114  CG        10.0600    4.8130   -8.9680 C.3   332  ARG332      0.0489
    115  CD         8.8390    3.9470   -9.2350 C.3   332  ARG332      0.2205
    116  NE         9.0620    2.9090  -10.2440 N.pl3 332  ARG332     -0.0865
    117  CZ         8.7610    3.0410  -11.5320 C.cat 332  ARG332      0.5346
    118  NH1        8.2510    4.1850  -11.9880 N.pl3 332  ARG332      0.1354
    119  NH2        8.9770    2.0330  -12.3660 N.pl3 332  ARG332      0.1354
    120  N          7.6640    6.9840   -6.0250 N.am  333  VAL333     -0.1966
    121  CA         7.2070    7.6050   -4.7870 C.3   333  VAL333      0.1727
    122  C          7.6570    6.7460   -3.6030 C.2   333  VAL333      0.2616
    123  O          7.7450    5.5200   -3.7190 O.2   333  VAL333     -0.2715
    124  CB         5.6560    7.7480   -4.7830 C.3   333  VAL333      0.0290
    125  CG1        5.1380    8.3090   -3.4580 C.3   333  VAL333      0.0023
    126  CG2        5.2000    8.6180   -5.9440 C.3   333  VAL333      0.0023
    127  N          7.9710    7.3840   -2.4750 N.am  334  ILE334     -0.1977
    128  CA         8.1500    6.6540   -1.2250 C.3   334  ILE334      0.1596
    129  C          7.2530    7.2280   -0.1310 C.2   334  ILE334      0.2287
    130  O          7.2560    8.4320    0.1200 O.2   334  ILE334     -0.2864
    131  CB         9.6300    6.6010   -0.7420 C.3   334  ILE334      0.0276
    132  CG1        9.7250    5.7690    0.5460 C.3   334  ILE334      0.0022
    133  CG2       10.2060    8.0120   -0.5300 C.3   334  ILE334      0.0022
    134  CD1       11.0580    5.0800    0.7480 C.3   334  ILE334      0.0001
    135  N          7.6420    2.6430   -2.8810 N.3   362  ALA362     -0.1245
    136  CA         8.3660    1.9730   -1.8150 C.3   362  ALA362      0.1562
    137  C          7.8870    2.5550   -0.4970 C.2   362  ALA362      0.2260
    138  O          7.2440    3.6100   -0.4590 O.2   362  ALA362     -0.2867
    139  CB         9.8730    2.1680   -1.9660 C.3   362  ALA362      0.0290
@<TRIPOS>BOND
     1   119   117    1
     2   118   117    1
     3   117   116    2
     4    83    84    1
     5    83    89    1
     6    84    87    1
     7    84    85    1
     8    87    88    1
     9    89    88    1
    10   116   115    1
    11    85    86    2
    12   115   114    1
    13   109   110    1
    14   114   113    1
    15   110   113    1
    16   110   111    1
    17    70    76    1
    18    70    71    1
    19    76    75    1
    20    71    74    1
    21    71    72    1
    22    75    74    1
    23   111   112    2
    24   111   120   am
    25    90    91    1
    26    72    73    2
    27   120   121    1
    28   126   124    1
    29    91    92    1
    30    91    94    1
    31    95    97    1
    32    95    94    1
    33    92    93    2
    34    94    96    1
    35   121   124    1
    36   121   122    1
    37   124   125    1
    38    10     8   ar
    39    10    11   ar
    40   123   122    2
    41     8     6   ar
    42   122   127   am
    43    77    78    1
    44    58    57    1
    45    12    11    1
    46    11     9   ar
    47   135   136    1
    48     6     5    1
    49     6     7   ar
    50    78    79    1
    51    78    81    1
    52     5     2    1
    53    57    59    1
    54    57    54    1
    55   127   128    1
    56    79    80    2
    57     9     7   ar
    58    98    99    1
    59   139   136    1
    60     1     2    1
    61   136   137    1
    62    81    82    1
    63     2     3    1
    64    54    55    1
    65    54    53    1
    66     3     4    2
    67   128   131    1
    68   128   129    1
    69    55    56    2
    70   131   133    1
    71   131   132    1
    72    99   100    1
    73    99   102    1
    74   137   138    2
    75    60    61    1
    76   129   130    2
    77    61    64    1
    78    61    62    1
    79   100   101    2
    80   102   103    1
    81    69    66    1
    82    65    62   am
    83    65    66    1
    84   132   134    1
    85    62    63    2
    86    66    67    1
    87   103   104    1
    88    19    21   ar
    89    19    18   ar
    90    21    22   ar
    91   104   105    1
    92    67    68    2
    93    18    17    1
    94    18    20   ar
    95    17    14    1
    96    22    20   ar
    97    13    14    1
    98   105   106    2
    99    14    15    1
   100    33    31   ar
   101    33    32   ar
   102    51    50   ar
   103   108   106    1
   104    31    29   ar
   105   106   107    1
   106    32    30   ar
   107    52    50   ar
   108    50    49    1
   109    15    16    2
   110    29    28   ar
   111    30    28   ar
   112    45    46    1
   113    49    46    1
   114    46    47    1
   115    28    27    1
   116    47    48    2
   117    27    24    1
   118    23    24    1
   119    24    25    1
   120    44    42    1
   121    25    26    2
   122    43    42    1
   123    42    41    2
   124    41    40    1
   125    40    39    1
   126    39    38    1
   127    34    35    1
   128    38    35    1
   129    35    36    1
   130    36    37    2
