@<TRIPOS>MOLECULE
tmp/4lvtA00.pdb
 209 204 0 0 0
SMALL
GASTEIGER

@<TRIPOS>ATOM
      1  N          9.1990   -9.6520   -2.2400 N.3    35  ALA35      -0.1245
      2  CA         8.9320   -8.7380   -3.3640 C.3    35  ALA35       0.1562
      3  C          9.4340   -7.3180   -3.0430 C.2    35  ALA35       0.2260
      4  O          9.9160   -6.5920   -3.9250 O.2    35  ALA35      -0.2867
      5  CB         7.4160   -8.7090   -3.7100 C.3    35  ALA35       0.0290
      6  N         13.1150   -7.1760   -3.3890 N.3    38  ASP38      -0.1225
      7  CA        13.4230   -7.1700   -4.8230 C.3    38  ASP38       0.1805
      8  C         13.2200   -5.7800   -5.3880 C.2    38  ASP38       0.2597
      9  O         14.0130   -5.3110   -6.1980 O.2    38  ASP38      -0.2718
     10  CB        12.4940   -8.1090   -5.5940 C.3    38  ASP38       0.1424
     11  CG        12.9380   -9.5620   -5.5330 C.2    38  ASP38       0.3668
     12  OD1       12.1800  -10.4220   -6.0450 O.co2  38  ASP38      -0.2456
     13  OD2       13.9720   -9.8580   -4.8840 O.co2  38  ASP38      -0.2456
     14  N         12.0890   -5.1640   -5.0310 N.am   39  PHE39      -0.1976
     15  CA        11.8000   -3.8220   -5.5000 C.3    39  PHE39       0.1639
     16  C         12.9040   -2.8550   -5.1390 C.2    39  PHE39       0.2290
     17  O         13.3360   -2.0750   -5.9730 O.2    39  PHE39      -0.2864
     18  CB        10.4740   -3.2960   -4.9260 C.3    39  PHE39       0.0560
     19  CG        10.2450   -1.8350   -5.2050 C.ar   39  PHE39      -0.0200
     20  CD1        9.6940   -1.4210   -6.4210 C.ar   39  PHE39      -0.0042
     21  CD2       10.6740   -0.8770   -4.2930 C.ar   39  PHE39      -0.0042
     22  CE1        9.5390   -0.0630   -6.7140 C.ar   39  PHE39      -0.0003
     23  CE2       10.4820    0.4730   -4.5510 C.ar   39  PHE39      -0.0003
     24  CZ         9.9010    0.8840   -5.7630 C.ar   39  PHE39      -0.0000
     25  N         16.1230   -3.6070   -7.2550 N.3    42  ARG42      -0.1231
     26  CA        15.9040   -3.3340   -8.6690 C.3    42  ARG42       0.1694
     27  C         15.6770   -1.8580   -8.9660 C.2    42  ARG42       0.2592
     28  O         16.0450   -1.3650  -10.0350 O.2    42  ARG42      -0.2718
     29  CB        14.7350   -4.1870   -9.1840 C.3    42  ARG42       0.0321
     30  CG        14.9590   -5.7090   -9.0080 C.3    42  ARG42       0.0489
     31  CD        13.7060   -6.5020   -9.4180 C.3    42  ARG42       0.2205
     32  NE        13.9520   -7.9430   -9.4220 N.pl3  42  ARG42      -0.0865
     33  CZ        13.6580   -8.7620  -10.4260 C.cat  42  ARG42       0.5346
     34  NH1       13.0970   -8.3110  -11.5500 N.pl3  42  ARG42       0.1354
     35  NH2       13.9360  -10.0430  -10.3020 N.pl3  42  ARG42       0.1354
     36  N         15.0750   -1.1390   -8.0180 N.am   43  TYR43      -0.1976
     37  CA        14.8330    0.2930   -8.1830 C.3    43  TYR43       0.1639
     38  C         15.5610    1.0530   -7.0790 C.2    43  TYR43       0.2290
     39  O         14.9910    1.8500   -6.3470 O.2    43  TYR43      -0.2864
     40  CB        13.3330    0.6060   -8.1960 C.3    43  TYR43       0.0560
     41  CG        12.6640    0.0180   -9.4090 C.ar   43  TYR43      -0.0198
     42  CD1       12.1230   -1.2710   -9.3750 C.ar   43  TYR43      -0.0009
     43  CD2       12.7040    0.6890  -10.6270 C.ar   43  TYR43      -0.0009
     44  CE1       11.5680   -1.8460  -10.5280 C.ar   43  TYR43       0.0417
     45  CE2       12.1500    0.1360  -11.7720 C.ar   43  TYR43       0.0417
     46  CZ        11.5830   -1.1270  -11.7170 C.ar   43  TYR43       0.1957
     47  OH        11.0350   -1.6360  -12.8710 O.3    43  TYR43      -0.2866
     48  N         15.5470    5.0610   -6.9920 N.3    46  ASP46      -0.1225
     49  CA        14.2990    5.6040   -6.4330 C.3    46  ASP46       0.1805
     50  C         14.3020    5.4360   -4.9070 C.2    46  ASP46       0.2597
     51  O         13.9990    6.3700   -4.1630 O.2    46  ASP46      -0.2718
     52  CB        13.1010    4.8680   -7.0340 C.3    46  ASP46       0.1424
     53  CG        12.9110    5.1750   -8.5040 C.2    46  ASP46       0.3668
     54  OD1       13.0430    4.2630   -9.3370 O.co2  46  ASP46      -0.2456
     55  OD2       12.6710    6.3450   -8.8380 O.co2  46  ASP46      -0.2456
     56  N         14.6480    4.2280   -4.4580 N.am   47  PHE47      -0.1976
     57  CA        14.6920    3.8970   -3.0360 C.3    47  PHE47       0.1639
     58  C         15.6570    4.8160   -2.2890 C.2    47  PHE47       0.2290
     59  O         15.3310    5.3630   -1.2470 O.2    47  PHE47      -0.2864
     60  CB        15.1480    2.4420   -2.8600 C.3    47  PHE47       0.0560
     61  CG        15.1640    1.9770   -1.4300 C.ar   47  PHE47      -0.0200
     62  CD1       16.3140    2.0830   -0.6610 C.ar   47  PHE47      -0.0042
     63  CD2       14.0220    1.4430   -0.8470 C.ar   47  PHE47      -0.0042
     64  CE1       16.3340    1.6310    0.6580 C.ar   47  PHE47      -0.0003
     65  CE2       14.0330    0.9820    0.4470 C.ar   47  PHE47      -0.0003
     66  CZ        15.1800    1.0910    1.2150 C.ar   47  PHE47      -0.0000
     67  N         14.4410    8.5660   -2.2960 N.3    50  MET50      -0.1245
     68  CA        13.3380    8.7900   -1.3760 C.3    50  MET50       0.1570
     69  C         13.9200    8.7960    0.0340 C.2    50  MET50       0.2261
     70  O         13.6240    9.6760    0.8230 O.2    50  MET50      -0.2867
     71  CB        12.2780    7.6810   -1.5240 C.3    50  MET50       0.0387
     72  CG        11.1040    7.8340   -0.5810 C.3    50  MET50       0.0595
     73  SD        10.1480    9.3090   -0.9490 S.3    50  MET50      -0.1393
     74  CE         9.2420    8.8070   -2.3900 C.3    50  MET50       0.0692
     75  N          3.0550   11.5740   -1.6150 N.3    68  VAL68      -0.1245
     76  CA         3.7620   10.5170   -2.3360 C.3    68  VAL68       0.1561
     77  C          2.7820    9.4280   -2.7770 C.2    68  VAL68       0.2260
     78  O          2.7920    9.0010   -3.9280 O.2    68  VAL68      -0.2867
     79  CB         4.8950    9.9490   -1.4610 C.3    68  VAL68       0.0252
     80  CG1        5.4050    8.6240   -2.0180 C.3    68  VAL68       0.0019
     81  CG2        5.9970   10.9950   -1.3240 C.3    68  VAL68       0.0019
     82  N          0.8110   10.4360   -5.7230 N.3    71  GLU71      -0.1231
     83  CA         1.6280   10.4290   -6.9230 C.3    71  GLU71       0.1699
     84  C          1.8690    9.0030   -7.4170 C.2    71  GLU71       0.2592
     85  O          1.8530    8.7200   -8.6230 O.2    71  GLU71      -0.2718
     86  CB         2.9770   11.1040   -6.6720 C.3    71  GLU71       0.0402
     87  CG         2.8910   12.6090   -6.5060 C.3    71  GLU71       0.1161
     88  CD         4.1980   13.2260   -6.0360 C.2    71  GLU71       0.3649
     89  OE1        5.1650   12.4800   -5.7590 O.co2  71  GLU71      -0.2457
     90  OE2        4.2450   14.4670   -5.8970 O.co2  71  GLU71      -0.2457
     91  N          2.1090    8.1090   -6.4690 N.am   72  LEU72      -0.1980
     92  CA         2.4050    6.7260   -6.7930 C.3    72  LEU72       0.1596
     93  C          1.2840    6.0840   -7.5840 C.2    72  LEU72       0.2287
     94  O          1.5350    5.3390   -8.5220 O.2    72  LEU72      -0.2864
     95  CB         2.6680    5.9270   -5.4960 C.3    72  LEU72       0.0297
     96  CG         2.9050    4.4140   -5.6280 C.3    72  LEU72       0.0022
     97  CD1        4.0370    4.1320   -6.6250 C.3    72  LEU72       0.0001
     98  CD2        3.2680    3.8390   -4.2470 C.3    72  LEU72       0.0001
     99  N         -1.1750   -1.1990   -9.9120 N.3    78  ASN78      -0.1225
    100  CA        -0.6830   -2.5090  -10.3400 C.3    78  ASN78       0.1785
    101  C          0.0580   -3.0840   -9.1320 C.2    78  ASN78       0.2597
    102  O          0.2440   -2.3790   -8.1430 O.2    78  ASN78      -0.2718
    103  CB         0.1430   -2.4800  -11.6400 C.3    78  ASN78       0.1169
    104  CG         1.4180   -1.6720  -11.5080 C.2    78  ASN78       0.2627
    105  OD1        2.0720   -1.7100  -10.4810 O.2    78  ASN78      -0.2716
    106  ND2        1.8200   -1.0070  -12.5830 N.am   78  ASN78      -0.0877
    107  N          0.3570   -4.3750   -9.1420 N.am   79  TRP79      -0.1962
    108  CA         0.9840   -4.9980   -7.9710 C.3    79  TRP79       0.1771
    109  C          2.3520   -4.4080   -7.6540 C.2    79  TRP79       0.2620
    110  O          2.7440   -4.3350   -6.5000 O.2    79  TRP79      -0.2715
    111  CB         1.0920   -6.5160   -8.1580 C.3    79  TRP79       0.0590
    112  CG        -0.2350   -7.2590   -7.9850 C.ar   79  TRP79       0.0006
    113  CD1       -0.9390   -7.9480   -8.9570 C.ar   79  TRP79       0.0946
    114  CD2       -1.0030   -7.3840   -6.7720 C.ar   79  TRP79       0.0152
    115  NE1       -2.0630   -8.5450   -8.3940 N.ar   79  TRP79      -0.2442
    116  CE2       -2.1350   -8.2000   -7.0690 C.ar   79  TRP79       0.0810
    117  CE3       -0.8410   -6.9030   -5.4670 C.ar   79  TRP79       0.0012
    118  CZ2       -3.0850   -8.5350   -6.1070 C.ar   79  TRP79       0.0191
    119  CZ3       -1.7900   -7.2490   -4.5080 C.ar   79  TRP79       0.0001
    120  CH2       -2.8720   -8.0850   -4.8270 C.ar   79  TRP79       0.0015
    121  N          3.0950   -4.0010   -8.6720 N.am   80  GLY80      -0.1940
    122  CA         4.4070   -3.4270   -8.4080 C.3    80  GLY80       0.2014
    123  C          4.3110   -2.1130   -7.6440 C.2    80  GLY80       0.2638
    124  O          5.1110   -1.8420   -6.7710 O.2    80  GLY80      -0.2714
    125  N          3.2930   -1.3190   -7.9340 N.am   81  ARG81      -0.1977
    126  CA         3.0770   -0.0570   -7.2260 C.3    81  ARG81       0.1597
    127  C          2.5920   -0.3310   -5.8270 C.2    81  ARG81       0.2287
    128  O          2.8910    0.4250   -4.9190 O.2    81  ARG81      -0.2864
    129  CB         2.0670    0.8200   -7.9640 C.3    81  ARG81       0.0334
    130  CG         2.6390    1.3990   -9.2420 C.3    81  ARG81       0.0492
    131  CD         1.5970    2.0760  -10.0870 C.3    81  ARG81       0.2205
    132  NE         2.2200    2.6480  -11.2900 N.pl3  81  ARG81      -0.0865
    133  CZ         1.5560    2.9120  -12.4130 C.cat  81  ARG81       0.5346
    134  NH1        2.1920    3.4010  -13.4630 N.pl3  81  ARG81       0.1354
    135  NH2        0.2510    2.6940  -12.4830 N.pl3  81  ARG81       0.1354
    136  N          3.5860   -2.9400   -4.0810 N.3    83  VAL83      -0.1231
    137  CA         4.8220   -3.2640   -3.3700 C.3    83  VAL83       0.1692
    138  C          5.6000   -1.9730   -3.0600 C.2    83  VAL83       0.2591
    139  O          6.1420   -1.8000   -1.9700 O.2    83  VAL83      -0.2718
    140  CB         5.6880   -4.2350   -4.2000 C.3    83  VAL83       0.0266
    141  CG1        7.0560   -4.4340   -3.5130 C.3    83  VAL83       0.0020
    142  CG2        4.9530   -5.5630   -4.3690 C.3    83  VAL83       0.0020
    143  N          5.6370   -1.0670   -4.0250 N.am   84  ALA84      -0.1980
    144  CA         6.3450    0.2170   -3.8600 C.3    84  ALA84       0.1597
    145  C          5.7410    0.9920   -2.7120 C.2    84  ALA84       0.2287
    146  O          6.4510    1.6610   -1.9720 O.2    84  ALA84      -0.2864
    147  CB         6.2790    1.0410   -5.1340 C.3    84  ALA84       0.0319
    148  N          7.0920   -0.5030    0.4710 N.3    87  GLU87      -0.1231
    149  CA         8.5010   -0.1390    0.6320 C.3    87  GLU87       0.1699
    150  C          8.6320    1.3410    1.0060 C.2    87  GLU87       0.2592
    151  O          9.5270    1.7280    1.7520 O.2    87  GLU87      -0.2718
    152  CB         9.3470   -0.4760   -0.6220 C.3    87  GLU87       0.0402
    153  CG         9.6050   -1.9860   -0.7910 C.3    87  GLU87       0.1161
    154  CD        10.4860   -2.5350    0.3240 C.2    87  GLU87       0.3649
    155  OE1       11.5200   -1.9050    0.6140 O.co2  87  GLU87      -0.2457
    156  OE2       10.1070   -3.5430    0.9510 O.co2  87  GLU87      -0.2457
    157  N          7.7380    2.1670    0.4910 N.am   88  PHE88      -0.1976
    158  CA         7.7470    3.5940    0.8570 C.3    88  PHE88       0.1639
    159  C          7.3630    3.7560    2.3470 C.2    88  PHE88       0.2290
    160  O          7.9640    4.5410    3.0700 O.2    88  PHE88      -0.2864
    161  CB         6.7800    4.3870   -0.0220 C.3    88  PHE88       0.0560
    162  CG         6.5030    5.7540    0.4920 C.ar   88  PHE88      -0.0200
    163  CD1        7.5160    6.7000    0.5310 C.ar   88  PHE88      -0.0042
    164  CD2        5.2420    6.0890    0.9820 C.ar   88  PHE88      -0.0042
    165  CE1        7.2800    7.9630    1.0290 C.ar   88  PHE88      -0.0003
    166  CE2        5.0180    7.3390    1.4920 C.ar   88  PHE88      -0.0003
    167  CZ         6.0500    8.2720    1.5360 C.ar   88  PHE88      -0.0000
    168  N         10.3460    2.7440    4.2650 N.3    91  VAL91      -0.1245
    169  CA        11.3930    3.7920    4.2360 C.3    91  VAL91       0.1561
    170  C         11.0050    4.8580    5.2690 C.2    91  VAL91       0.2260
    171  O         11.8440    5.3190    6.0400 O.2    91  VAL91      -0.2867
    172  CB        11.5140    4.4430    2.8250 C.3    91  VAL91       0.0252
    173  CG1       12.2960    5.7730    2.8960 C.3    91  VAL91       0.0019
    174  CG2       12.2100    3.5020    1.8410 C.3    91  VAL91       0.0019
    175  N         -1.4350  -12.0450   -5.9410 N.3   133  PHE133     -0.1241
    176  CA        -0.0950  -11.4810   -5.7590 C.3   133  PHE133      0.1605
    177  C          0.8670  -12.6290   -5.4730 C.2   133  PHE133      0.2264
    178  O          1.9440  -12.7220   -6.0470 O.2   133  PHE133     -0.2867
    179  CB        -0.0990  -10.5310   -4.5550 C.3   133  PHE133      0.0534
    180  CG         1.2680  -10.0600   -4.1700 C.ar  133  PHE133     -0.0203
    181  CD1        1.9650   -9.2100   -5.0000 C.ar  133  PHE133     -0.0042
    182  CD2        1.8690  -10.5020   -2.9970 C.ar  133  PHE133     -0.0042
    183  CE1        3.2260   -8.7730   -4.6710 C.ar  133  PHE133     -0.0003
    184  CE2        3.1700  -10.0840   -2.6660 C.ar  133  PHE133     -0.0003
    185  CZ         3.8380   -9.2090   -3.5090 C.ar  133  PHE133     -0.0000
    186  N          1.5820  -14.5110   -8.6850 N.3   136  LEU136     -0.1231
    187  CA         2.3570  -13.6990   -9.6150 C.3   136  LEU136      0.1693
    188  C          3.8210  -13.6380   -9.2210 C.2   136  LEU136      0.2592
    189  O          4.7160  -13.6660  -10.0780 O.2   136  LEU136     -0.2718
    190  CB         1.7900  -12.2860   -9.6360 C.3   136  LEU136      0.0284
    191  CG         1.6570  -11.5300  -10.9400 C.3   136  LEU136      0.0019
    192  CD1        1.2050  -12.4360  -12.0670 C.3   136  LEU136      0.0001
    193  CD2        0.6730  -10.3870  -10.7200 C.3   136  LEU136      0.0001
    194  N          4.0810  -13.4950   -7.9280 N.am  137  TYR137     -0.1962
    195  CA         5.4680  -13.4140   -7.4850 C.3   137  TYR137      0.1771
    196  C          6.1510  -14.7770   -7.5570 C.2   137  TYR137      0.2620
    197  O          7.2900  -14.8790   -8.0080 O.2   137  TYR137     -0.2715
    198  CB         5.5970  -12.8330   -6.0690 C.3   137  TYR137      0.0574
    199  CG         7.0340  -12.6440   -5.6640 C.ar  137  TYR137     -0.0198
    200  CD1        7.7400  -11.5300   -6.0680 C.ar  137  TYR137     -0.0009
    201  CD2        7.7220  -13.6470   -4.9800 C.ar  137  TYR137     -0.0009
    202  CE1        9.0710  -11.3610   -5.7250 C.ar  137  TYR137      0.0417
    203  CE2        9.0690  -13.4960   -4.6520 C.ar  137  TYR137      0.0417
    204  CZ         9.7340  -12.3600   -5.0530 C.ar  137  TYR137      0.1957
    205  OH        11.0630  -12.1970   -4.7170 O.3   137  TYR137     -0.2866
    206  N          5.4460  -15.8100   -7.1110 N.am  138  GLY138     -0.1954
    207  CA         5.9600  -17.1710   -7.0700 C.3   138  GLY138      0.1869
    208  C          6.5100  -17.4740   -5.6800 C.2   138  GLY138      0.2309
    209  O          7.5400  -16.9300   -5.2800 O.2   138  GLY138     -0.2863
@<TRIPOS>BOND
     1   134   133    1
     2    47    46    1
     3   106   104   am
     4   135   133    1
     5   133   132    2
     6   192   191    1
     7    45    46   ar
     8    45    43   ar
     9    46    44   ar
    10   103   104    1
    11   103   100    1
    12    34    33    1
    13   104   105    2
    14   132   131    1
    15   191   193    1
    16   191   190    1
    17    43    41   ar
    18    44    42   ar
    19    33    35    1
    20    33    32    2
    21   100    99    1
    22   100   101    1
    23   131   130    1
    24   189   188    2
    25    28    27    2
    26   190   187    1
    27   187   188    1
    28   187   186    1
    29    32    31    1
    30    31    30    1
    31    41    42   ar
    32    41    40    1
    33    54    53   ar
    34   130   129    1
    35   188   194   am
    36    29    30    1
    37    29    26    1
    38   107   101   am
    39   107   108    1
    40   101   102    2
    41    27    26    1
    42    27    36   am
    43   113   115   ar
    44   113   112   ar
    45    55    53   ar
    46   121   122    1
    47   121   109   am
    48    26    25    1
    49    85    84    2
    50    94    93    2
    51    53    52    1
    52   122   123    1
    53   115   116   ar
    54    40    37    1
    55    37    36    1
    56    37    38    1
    57   111   112    1
    58   111   108    1
    59   197   196    2
    60   112   114   ar
    61   108   109    1
    62   129   126    1
    63   125   123   am
    64   125   126    1
    65   194   195    1
    66   109   110    2
    67   123   124    2
    68    93    92    1
    69   196   195    1
    70   196   206   am
    71   195   198    1
    72    84    83    1
    73    84    91   am
    74   126   127    1
    75   206   207    1
    76    38    39    2
    77   207   208    1
    78   116   114   ar
    79   116   118   ar
    80    52    49    1
    81    48    49    1
    82    83    86    1
    83    83    82    1
    84    92    91    1
    85    92    95    1
    86   114   117   ar
    87    22    20   ar
    88    22    24   ar
    89    86    87    1
    90    97    96    1
    91    87    88    1
    92    49    50    1
    93    20    19   ar
    94     9     8    2
    95   118   120   ar
    96   198   199    1
    97   200   202   ar
    98   200   199   ar
    99   178   177    2
   100    12    11   ar
   101    88    90   ar
   102    88    89   ar
   103    17    16    2
   104   175   176    1
   105   127   128    2
   106    24    23   ar
   107   176   177    1
   108   176   179    1
   109   202   204   ar
   110   208   209    2
   111   199   201   ar
   112    96    95    1
   113    96    98    1
   114    10    11    1
   115    10     7    1
   116    11    13   ar
   117    15    16    1
   118    15    14    1
   119    15    18    1
   120   117   119   ar
   121     8    14   am
   122     8     7    1
   123    19    18    1
   124    19    21   ar
   125   147   144    1
   126   204   205    1
   127   204   203   ar
   128   181   183   ar
   129   181   180   ar
   130   201   203   ar
   131    50    56   am
   132    50    51    2
   133   120   119   ar
   134     7     6    1
   135   183   185   ar
   136   179   180    1
   137    23    21   ar
   138    56    57    1
   139   142   140    1
   140   140   141    1
   141   140   137    1
   142   180   182   ar
   143   136   137    1
   144   143   144    1
   145   143   138   am
   146    78    77    2
   147     4     3    2
   148   144   145    1
   149     5     2    1
   150   185   184   ar
   151   137   138    1
   152     2     3    1
   153     2     1    1
   154   138   139    2
   155    57    60    1
   156    57    58    1
   157   182   184   ar
   158    60    61    1
   159    77    76    1
   160   145   146    2
   161    74    73    1
   162    76    75    1
   163    76    79    1
   164    67    68    1
   165    58    59    2
   166    80    79    1
   167    71    68    1
   168    71    72    1
   169    79    81    1
   170    61    63   ar
   171    61    62   ar
   172    68    69    1
   173    73    72    1
   174    63    65   ar
   175   153   152    1
   176   153   154    1
   177    62    64   ar
   178   152   149    1
   179   161   162    1
   180   161   158    1
   181    69    70    2
   182   154   155   ar
   183   154   156   ar
   184    65    66   ar
   185   148   149    1
   186   157   158    1
   187   157   150   am
   188   162   163   ar
   189   162   164   ar
   190   163   165   ar
   191   149   150    1
   192    64    66   ar
   193   158   159    1
   194   164   166   ar
   195   150   151    2
   196   165   167   ar
   197   166   167   ar
   198   174   172    1
   199   159   160    2
   200   172   173    1
   201   172   169    1
   202   169   168    1
   203   169   170    1
   204   170   171    2
