@<TRIPOS>MOLECULE
tmp/4lw1A01.pdb
 101 96 0 0 0
SMALL
GASTEIGER

@<TRIPOS>ATOM
      1  N         -2.3200  -16.7940   14.2690 N.3    34  ARG34      -0.1231
      2  CA        -1.9620  -17.8810   15.1710 C.3    34  ARG34       0.1679
      3  C         -3.1040  -18.1780   16.1300 C.2    34  ARG34       0.2434
      4  O         -3.8450  -17.2680   16.5310 O.2    34  ARG34      -0.2733
      5  CB        -0.6890  -17.5480   15.9540 C.3    34  ARG34       0.0321
      6  CG        -0.8830  -16.4080   16.9270 C.3    34  ARG34       0.0489
      7  CD         0.4390  -15.9430   17.5020 C.3    34  ARG34       0.2205
      8  NE         0.9910  -16.8990   18.4560 N.pl3  34  ARG34      -0.0865
      9  CZ         1.3740  -16.5750   19.6860 C.cat  34  ARG34       0.5346
     10  NH1        1.2580  -15.3200   20.1020 N.pl3  34  ARG34       0.1354
     11  NH2        1.8700  -17.4990   20.4990 N.pl3  34  ARG34       0.1354
     12  N         -3.2680  -19.4550   16.4900 N.am   35  PRO35      -0.2718
     13  CA        -4.2690  -19.7640   17.5100 C.3    35  PRO35       0.1535
     14  C         -3.8640  -19.2520   18.8850 C.2    35  PRO35       0.2598
     15  O         -2.6710  -19.1800   19.1990 O.2    35  PRO35      -0.2715
     16  CB        -4.2630  -21.3010   17.5580 C.3    35  PRO35       0.0310
     17  CG        -3.4810  -21.7530   16.3780 C.3    35  PRO35       0.0237
     18  CD        -2.5210  -20.6560   16.0650 C.3    35  PRO35       0.0939
     19  N         -4.8670  -18.9270   19.6980 N.am   36  ILE36      -0.1964
     20  CA        -4.7010  -18.5230   21.0840 C.3    36  ILE36       0.1727
     21  C         -4.9920  -19.7290   21.9440 C.2    36  ILE36       0.2616
     22  O         -5.8410  -20.5530   21.5940 O.2    36  ILE36      -0.2715
     23  CB        -5.7450  -17.4160   21.4380 C.3    36  ILE36       0.0290
     24  CG1       -5.5320  -16.1800   20.5720 C.3    36  ILE36       0.0022
     25  CG2       -5.6990  -17.0440   22.9080 C.3    36  ILE36       0.0023
     26  CD1       -4.1230  -15.7260   20.5670 C.3    36  ILE36       0.0001
     27  N         -4.2820  -19.8450   23.0590 N.am   37  THR37      -0.1951
     28  CA        -4.5800  -20.8820   24.0310 C.3    37  THR37       0.1897
     29  C         -5.9960  -20.7120   24.5770 C.2    37  THR37       0.2313
     30  O         -6.2800  -19.7530   25.2960 O.2    37  THR37      -0.2863
     31  CB        -3.5820  -20.8260   25.1820 C.3    37  THR37       0.1794
     32  OG1       -2.2790  -21.1480   24.6780 O.3    37  THR37      -0.2208
     33  CG2       -3.9660  -21.8070   26.2910 C.3    37  THR37       0.0378
     34  N         -5.8020  -15.2030   16.6070 N.3    46  ARG46      -0.1245
     35  CA        -5.2640  -13.8410   16.6750 C.3    46  ARG46       0.1563
     36  C         -4.5870  -13.4930   15.3410 C.2    46  ARG46       0.2260
     37  O         -3.9000  -14.3270   14.7380 O.2    46  ARG46      -0.2867
     38  CB        -4.2500  -13.7450   17.8200 C.3    46  ARG46       0.0307
     39  CG        -3.5860  -12.3830   18.0120 C.3    46  ARG46       0.0489
     40  CD        -2.7000  -12.3860   19.2760 C.3    46  ARG46       0.2205
     41  NE        -2.0190  -11.0960   19.4670 N.pl3  46  ARG46      -0.0865
     42  CZ        -1.0880  -10.8700   20.3900 C.cat  46  ARG46       0.5346
     43  NH1       -0.7230  -11.8390   21.2260 N.pl3  46  ARG46       0.1354
     44  NH2       -0.5250   -9.6730   20.4860 N.pl3  46  ARG46       0.1354
     45  N         -1.3860   -6.2180   16.2140 N.3    57  SER57      -0.1202
     46  CA        -1.5920   -7.6370   16.4970 C.3    57  SER57       0.2020
     47  C         -2.7570   -7.9000   17.4420 C.2    57  SER57       0.2619
     48  O         -2.9060   -9.0110   17.9450 O.2    57  SER57      -0.2717
     49  CB        -0.3270   -8.2620   17.0900 C.3    57  SER57       0.2103
     50  OG        -0.0230   -7.6760   18.3390 O.3    57  SER57      -0.2182
     51  N         -3.5870   -6.8920   17.6920 N.am   58  SER58      -0.1951
     52  CA        -4.7040   -7.0100   18.6210 C.3    58  SER58       0.1924
     53  C         -6.0070   -7.4660   17.9490 C.2    58  SER58       0.2314
     54  O         -7.0830   -7.3290   18.5290 O.2    58  SER58      -0.2863
     55  CB        -4.9440   -5.6690   19.3260 C.3    58  SER58       0.2116
     56  OG        -3.7270   -5.1080   19.8070 O.3    58  SER58      -0.2180
     57  N         -8.7090  -10.2070   16.6750 N.3    60  MET60      -0.1245
     58  CA        -9.1590  -11.5880   16.8990 C.3    60  MET60       0.1570
     59  C        -10.3030  -11.8780   15.9500 C.2    60  MET60       0.2261
     60  O        -11.1640  -11.0270   15.7480 O.2    60  MET60      -0.2867
     61  CB        -9.6880  -11.7800   18.3260 C.3    60  MET60       0.0387
     62  CG        -8.7230  -11.4050   19.4150 C.3    60  MET60       0.0595
     63  SD        -7.4390  -12.6250   19.7300 S.3    60  MET60      -0.1393
     64  CE        -6.4490  -11.7370   20.9460 C.3    60  MET60       0.0692
     65  N        -10.2300   -4.5400   27.4550 N.3    90  LEU90      -0.1245
     66  CA       -10.0220   -5.4280   28.5830 C.3    90  LEU90       0.1561
     67  C         -9.8860   -4.6350   29.8820 C.2    90  LEU90       0.2260
     68  O         -9.6560   -3.4170   29.8580 O.2    90  LEU90      -0.2867
     69  CB        -8.7620   -6.2480   28.3400 C.3    90  LEU90       0.0270
     70  CG        -8.7640   -6.9580   26.9800 C.3    90  LEU90       0.0019
     71  CD1       -7.4950   -7.7850   26.8710 C.3    90  LEU90       0.0001
     72  CD2       -9.9950   -7.8440   26.8370 C.3    90  LEU90       0.0001
     73  N         -6.0050   -2.7500   27.6260 N.3    94  ARG94      -0.1231
     74  CA        -5.7010   -3.1470   26.2540 C.3    94  ARG94       0.1694
     75  C         -6.9690   -3.2890   25.4180 C.2    94  ARG94       0.2592
     76  O         -8.0270   -3.6960   25.9140 O.2    94  ARG94      -0.2718
     77  CB        -4.8890   -4.4390   26.2210 C.3    94  ARG94       0.0321
     78  CG        -3.4550   -4.2680   26.7280 C.3    94  ARG94       0.0489
     79  CD        -2.7340   -5.6000   26.7350 C.3    94  ARG94       0.2205
     80  NE        -3.4060   -6.5380   27.6270 N.pl3  94  ARG94      -0.0865
     81  CZ        -3.1060   -7.8290   27.7350 C.cat  94  ARG94       0.5346
     82  NH1       -2.1400   -8.3600   26.9940 N.pl3  94  ARG94       0.1354
     83  NH2       -3.7860   -8.5900   28.5830 N.pl3  94  ARG94       0.1354
     84  N         -6.8580   -2.9580   24.1390 N.am   95  ARG95      -0.1966
     85  CA        -8.0010   -3.0830   23.2580 C.3    95  ARG95       0.1729
     86  C         -7.7940   -4.2010   22.2570 C.2    95  ARG95       0.2616
     87  O         -6.6820   -4.4230   21.7740 O.2    95  ARG95      -0.2715
     88  CB        -8.3020   -1.7540   22.5710 C.3    95  ARG95       0.0348
     89  CG        -8.8840   -0.7600   23.5620 C.3    95  ARG95       0.0492
     90  CD        -9.3340    0.5400   22.9370 C.3    95  ARG95       0.2205
     91  NE       -10.2070    1.2880   23.8410 N.pl3  95  ARG95      -0.0865
     92  CZ       -10.3750    2.6110   23.7940 C.cat  95  ARG95       0.5346
     93  NH1       -9.7030    3.3200   22.8950 N.pl3  95  ARG95       0.1354
     94  NH2      -11.1910    3.2270   24.6440 N.pl3  95  ARG95       0.1354
     95  N         -8.8700   -4.9400   22.0080 N.am   96  VAL96      -0.1977
     96  CA        -8.8460   -6.0100   21.0200 C.3    96  VAL96       0.1596
     97  C         -9.8860   -5.7070   19.9520 C.2    96  VAL96       0.2287
     98  O        -10.9630   -5.1730   20.2350 O.2    96  VAL96      -0.2864
     99  CB        -9.1160   -7.4010   21.6390 C.3    96  VAL96       0.0276
    100  CG1       -7.9500   -7.8440   22.5230 C.3    96  VAL96       0.0022
    101  CG2      -10.4030   -7.3880   22.4370 C.3    96  VAL96       0.0022
@<TRIPOS>BOND
     1     1     2    1
     2    37    36    2
     3     2     5    1
     4     2     3    1
     5    36    35    1
     6    60    59    2
     7    59    58    1
     8     5     6    1
     9    18    17    1
    10    18    12    1
    11     3    12   am
    12     3     4    2
    13    45    46    1
    14    17    16    1
    15    12    13    1
    16    46    49    1
    17    46    47    1
    18    34    35    1
    19    57    58    1
    20    35    38    1
    21    58    61    1
    22     6     7    1
    23    49    50    1
    24    47    51   am
    25    47    48    2
    26     7     8    1
    27    13    16    1
    28    13    14    1
    29    51    52    1
    30    38    39    1
    31    53    54    2
    32    53    52    1
    33    39    40    1
    34    61    62    1
    35     8     9    2
    36    52    55    1
    37    14    15    2
    38    14    19   am
    39    40    41    1
    40    55    56    1
    41    62    63    1
    42    41    42    2
    43     9    10    1
    44     9    11    1
    45    19    20    1
    46    63    64    1
    47    97    98    2
    48    97    96    1
    49    42    44    1
    50    42    43    1
    51    26    24    1
    52    24    23    1
    53    96    99    1
    54    96    95    1
    55    20    23    1
    56    20    21    1
    57    23    25    1
    58    22    21    2
    59    99   101    1
    60    99   100    1
    61    87    86    2
    62    21    27   am
    63    95    86   am
    64    86    85    1
    65    88    85    1
    66    88    89    1
    67    93    92    1
    68    90    89    1
    69    90    91    1
    70    27    28    1
    71    85    84    1
    72    92    91    2
    73    92    94    1
    74    28    29    1
    75    28    31    1
    76    84    75   am
    77    29    30    2
    78    32    31    1
    79    31    33    1
    80    75    76    2
    81    75    74    1
    82    77    74    1
    83    77    78    1
    84    74    73    1
    85    78    79    1
    86    79    80    1
    87    72    70    1
    88    71    70    1
    89    70    69    1
    90    82    81    1
    91    65    66    1
    92    80    81    2
    93    81    83    1
    94    69    66    1
    95    66    67    1
    96    68    67    2
