@<TRIPOS>MOLECULE
tmp/4lw1A00.pdb
 87 78 0 0 0
SMALL
GASTEIGER

@<TRIPOS>ATOM
      1  N         -9.5660  -19.9800   19.0110 N.3    44  ARG44      -0.1245
      2  CA        -9.6770  -18.5670   18.6780 C.3    44  ARG44       0.1563
      3  C         -8.4190  -18.1550   17.9370 C.2    44  ARG44       0.2260
      4  O         -7.3160  -18.5380   18.3330 O.2    44  ARG44      -0.2867
      5  CB        -9.7990  -17.7230   19.9540 C.3    44  ARG44       0.0307
      6  CG       -11.1010  -17.8880   20.7260 C.3    44  ARG44       0.0489
      7  CD       -11.5280  -16.5510   21.3340 C.3    44  ARG44       0.2205
      8  NE       -11.9830  -15.6400   20.2890 N.pl3  44  ARG44      -0.0865
      9  CZ       -13.2530  -15.2960   20.0990 C.cat  44  ARG44       0.5346
     10  NH1      -14.2000  -15.7540   20.9110 N.pl3  44  ARG44       0.1354
     11  NH2      -13.5710  -14.4770   19.1060 N.pl3  44  ARG44       0.1354
     12  N         -8.7090  -10.2070   16.6750 N.3    60  MET60      -0.1245
     13  CA        -9.1590  -11.5880   16.8990 C.3    60  MET60       0.1570
     14  C        -10.3030  -11.8780   15.9500 C.2    60  MET60       0.2261
     15  O        -11.1640  -11.0270   15.7480 O.2    60  MET60      -0.2867
     16  CB        -9.6880  -11.7800   18.3260 C.3    60  MET60       0.0387
     17  CG        -8.7230  -11.4050   19.4150 C.3    60  MET60       0.0595
     18  SD        -7.4390  -12.6250   19.7300 S.3    60  MET60      -0.1393
     19  CE        -6.4490  -11.7370   20.9460 C.3    60  MET60       0.0692
     20  N        -13.8270  -13.4550   15.1180 N.3    62  ALA62      -0.1231
     21  CA       -15.0340  -14.0420   15.6650 C.3    62  ALA62       0.1694
     22  C        -15.0220  -15.5450   15.3570 C.2    62  ALA62       0.2593
     23  O        -14.5720  -15.9680   14.2810 O.2    62  ALA62      -0.2718
     24  CB       -16.2590  -13.3780   15.0490 C.3    62  ALA62       0.0304
     25  N        -15.4910  -16.3560   16.2980 N.am   63  THR63      -0.1939
     26  CA       -15.4310  -17.7970   16.1090 C.3    63  THR63       0.2028
     27  C        -16.2100  -18.2450   14.8690 C.2    63  THR63       0.2642
     28  O        -15.8390  -19.2240   14.2100 O.2    63  THR63      -0.2714
     29  CB       -15.8640  -18.5490   17.3790 C.3    63  THR63       0.1808
     30  OG1      -17.2510  -18.3180   17.6340 O.3    63  THR63      -0.2208
     31  CG2      -15.0450  -18.0590   18.5650 C.3    63  THR63       0.0379
     32  N        -17.2580  -17.5020   14.5120 N.am   64  GLN64      -0.1976
     33  CA       -18.0280  -17.8510   13.3170 C.3    64  GLN64       0.1601
     34  C        -17.1960  -17.7860   12.0340 C.2    64  GLN64       0.2287
     35  O        -17.5880  -18.3730   11.0250 O.2    64  GLN64      -0.2864
     36  CB       -19.2590  -16.9440   13.1610 C.3    64  GLN64       0.0394
     37  CG       -18.9220  -15.4910   12.7800 C.3    64  GLN64       0.0908
     38  CD       -20.0920  -14.5410   13.0110 C.2    64  GLN64       0.2608
     39  OE1      -21.1670  -14.9570   13.4530 O.2    64  GLN64      -0.2717
     40  NE2      -19.8860  -13.2580   12.7170 N.am   64  GLN64      -0.0878
     41  N        -15.9160   -5.0350   15.9590 N.3    86  ILE86      -0.1245
     42  CA       -16.1660   -4.2620   17.1750 C.3    86  ILE86       0.1561
     43  C        -14.8750   -4.1820   17.9520 C.2    86  ILE86       0.2260
     44  O        -14.0240   -5.0580   17.8400 O.2    86  ILE86      -0.2867
     45  CB       -17.2440   -4.9010   18.0550 C.3    86  ILE86       0.0252
     46  CG1      -16.8390   -6.3280   18.4270 C.3    86  ILE86       0.0019
     47  CG2      -18.5950   -4.8840   17.3520 C.3    86  ILE86       0.0019
     48  CD1      -17.6450   -6.9120   19.5670 C.3    86  ILE86       0.0001
     49  N        -13.2250   -4.1170   21.7040 N.3    88  ASN88      -0.1240
     50  CA       -13.4870   -4.4250   23.1040 C.3    88  ASN88       0.1653
     51  C        -12.2970   -4.0580   23.9570 C.2    88  ASN88       0.2266
     52  O        -11.1630   -4.2870   23.5750 O.2    88  ASN88      -0.2867
     53  CB       -13.8030   -5.9160   23.2660 C.3    88  ASN88       0.1155
     54  CG       -15.2810   -6.1930   23.1500 C.2    88  ASN88       0.2627
     55  OD1      -15.7220   -7.0740   22.4120 O.2    88  ASN88      -0.2716
     56  ND2      -16.0640   -5.4170   23.8780 N.am   88  ASN88      -0.0877
     57  N        -10.2300   -4.5400   27.4550 N.3    90  LEU90      -0.1245
     58  CA       -10.0220   -5.4280   28.5830 C.3    90  LEU90       0.1561
     59  C         -9.8860   -4.6350   29.8820 C.2    90  LEU90       0.2260
     60  O         -9.6560   -3.4170   29.8580 O.2    90  LEU90      -0.2867
     61  CB        -8.7620   -6.2480   28.3400 C.3    90  LEU90       0.0270
     62  CG        -8.7640   -6.9580   26.9800 C.3    90  LEU90       0.0019
     63  CD1       -7.4950   -7.7850   26.8710 C.3    90  LEU90       0.0001
     64  CD2       -9.9950   -7.8440   26.8370 C.3    90  LEU90       0.0001
     65  N         -8.8700   -4.9400   22.0080 N.3    96  VAL96      -0.1245
     66  CA        -8.8460   -6.0100   21.0200 C.3    96  VAL96       0.1561
     67  C         -9.8860   -5.7070   19.9520 C.2    96  VAL96       0.2260
     68  O        -10.9630   -5.1730   20.2350 O.2    96  VAL96      -0.2867
     69  CB        -9.1160   -7.4010   21.6390 C.3    96  VAL96       0.0252
     70  CG1       -7.9500   -7.8440   22.5230 C.3    96  VAL96       0.0019
     71  CG2      -10.4030   -7.3880   22.4370 C.3    96  VAL96       0.0019
     72  N        -12.3010   -7.2300   17.3290 N.3    98  ILE98      -0.1245
     73  CA       -12.9210   -8.4850   16.9250 C.3    98  ILE98       0.1561
     74  C        -13.4900   -8.3300   15.5190 C.2    98  ILE98       0.2260
     75  O        -14.3380   -7.4570   15.2790 O.2    98  ILE98      -0.2867
     76  CB       -14.0540   -8.9130   17.8830 C.3    98  ILE98       0.0252
     77  CG1      -13.6100   -8.7760   19.3460 C.3    98  ILE98       0.0019
     78  CG2      -14.5080  -10.3430   17.5650 C.3    98  ILE98       0.0019
     79  CD1      -12.3240   -9.5240   19.6750 C.3    98  ILE98       0.0001
     80  N        -15.8230   -9.4810   12.7210 N.3   100  MET100     -0.1245
     81  CA       -17.0920  -10.2010   12.6850 C.3   100  MET100      0.1570
     82  C        -17.4850  -10.6530   11.2830 C.2   100  MET100      0.2261
     83  O        -18.0560  -11.7370   11.0930 O.2   100  MET100     -0.2867
     84  CB       -18.2020   -9.3210   13.2640 C.3   100  MET100      0.0387
     85  CG       -17.9290   -8.8400   14.6640 C.3   100  MET100      0.0595
     86  SD       -17.8020  -10.1940   15.8560 S.3   100  MET100     -0.1393
     87  CE       -19.3530  -11.0510   15.6070 C.3   100  MET100      0.0692
@<TRIPOS>BOND
     1    35    34    2
     2    83    82    2
     3    82    81    1
     4    34    33    1
     5    81    80    1
     6    81    84    1
     7    40    38   am
     8    37    38    1
     9    37    36    1
    10    38    39    2
    11    36    33    1
    12    84    85    1
    13    33    32    1
    14    28    27    2
    15    23    22    2
    16    32    27   am
    17    85    86    1
    18    27    26    1
    19    24    21    1
    20    20    21    1
    21    75    74    2
    22    22    21    1
    23    22    25   am
    24    74    73    1
    25    87    86    1
    26    15    14    2
    27    14    13    1
    28    41    42    1
    29    26    25    1
    30    26    29    1
    31    12    13    1
    32    13    16    1
    33    73    72    1
    34    73    76    1
    35    42    43    1
    36    42    45    1
    37    47    45    1
    38    29    30    1
    39    29    31    1
    40    78    76    1
    41    44    43    2
    42    76    77    1
    43     3     4    2
    44     3     2    1
    45    45    46    1
    46    16    17    1
    47    46    48    1
    48     2     1    1
    49     2     5    1
    50    11     9    1
    51    77    79    1
    52    17    18    1
    53    18    19    1
    54    67    68    2
    55    67    66    1
    56     5     6    1
    57     9     8    2
    58     9    10    1
    59     8     7    1
    60     6     7    1
    61    66    69    1
    62    66    65    1
    63    69    71    1
    64    69    70    1
    65    49    50    1
    66    55    54    2
    67    50    53    1
    68    50    51    1
    69    54    53    1
    70    54    56   am
    71    52    51    2
    72    64    62    1
    73    63    62    1
    74    62    61    1
    75    57    58    1
    76    61    58    1
    77    58    59    1
    78    60    59    2
