@<TRIPOS>MOLECULE
tmp/4lw3A00.pdb
 221 219 0 0 0
SMALL
GASTEIGER

@<TRIPOS>ATOM
      1  N         14.0400   23.2800   11.3070 N.3    13  PRO13      -0.2102
      2  CA        14.3890   24.4000   10.4250 C.3    13  PRO13       0.1504
      3  C         15.4680   23.9350    9.4750 C.2    13  PRO13       0.2576
      4  O         16.3850   23.2210    9.8890 O.2    13  PRO13      -0.2718
      5  CB        14.9240   25.4790   11.3830 C.3    13  PRO13       0.0282
      6  CG        15.0130   24.8330   12.7580 C.3    13  PRO13       0.0208
      7  CD        14.1010   23.6410   12.7360 C.3    13  PRO13       0.0893
      8  N         15.3620   24.3120    8.2100 N.am   14  PHE14      -0.1963
      9  CA        16.1460   23.6330    7.2050 C.3    14  PHE14       0.1771
     10  C         16.4050   24.5000    5.9840 C.2    14  PHE14       0.2619
     11  O         15.5030   25.1910    5.5020 O.2    14  PHE14      -0.2715
     12  CB        15.3750   22.3800    6.7790 C.3    14  PHE14       0.0574
     13  CG        16.0930   21.5230    5.7730 C.ar   14  PHE14      -0.0200
     14  CD1       16.0040   21.7920    4.4130 C.ar   14  PHE14      -0.0042
     15  CD2       16.8280   20.4240    6.1890 C.ar   14  PHE14      -0.0042
     16  CE1       16.6590   21.0000    3.4820 C.ar   14  PHE14      -0.0003
     17  CE2       17.4860   19.6180    5.2670 C.ar   14  PHE14      -0.0003
     18  CZ        17.3980   19.9030    3.9100 C.ar   14  PHE14      -0.0000
     19  N         17.6520   24.4690    5.5190 N.am   15  ARG15      -0.1963
     20  CA        17.9990   24.9480    4.1830 C.3    15  ARG15       0.1729
     21  C         19.3450   24.3630    3.7870 C.2    15  ARG15       0.2616
     22  O         20.3300   24.4730    4.5310 O.2    15  ARG15      -0.2715
     23  CB        18.0480   26.4740    4.1130 C.3    15  ARG15       0.0348
     24  CG        18.6090   26.9860    2.7850 C.3    15  ARG15       0.0492
     25  CD        19.0950   28.4140    2.9220 C.3    15  ARG15       0.2205
     26  NE        18.0040   29.3470    2.7120 N.pl3  15  ARG15      -0.0865
     27  CZ        18.0490   30.6380    3.0130 C.cat  15  ARG15       0.5346
     28  NH1       19.1340   31.1680    3.5670 N.pl3  15  ARG15       0.1354
     29  NH2       16.9940   31.3950    2.7580 N.pl3  15  ARG15       0.1354
     30  N         19.3710   23.7060    2.6290 N.am   16  ASP16      -0.1957
     31  CA        20.6130   23.1620    2.0730 C.3    16  ASP16       0.1840
     32  C         21.3170   22.1560    2.9950 C.2    16  ASP16       0.2621
     33  O         22.5340   22.2200    3.1530 O.2    16  ASP16      -0.2715
     34  CB        21.5900   24.3050    1.7540 C.3    16  ASP16       0.1450
     35  CG        21.0610   25.2640    0.6840 C.2    16  ASP16       0.3671
     36  OD1       20.1920   24.8690   -0.1200 O.co2  16  ASP16      -0.2456
     37  OD2       21.5270   26.4210    0.6590 O.co2  16  ASP16      -0.2456
     38  N         20.5640   21.2450    3.6070 N.am   17  ARG17      -0.1977
     39  CA        21.1580   20.2320    4.4830 C.3    17  ARG17       0.1597
     40  C         20.6000   18.8510    4.1660 C.2    17  ARG17       0.2287
     41  O         20.3180   18.0710    5.0670 O.2    17  ARG17      -0.2864
     42  CB        20.9170   20.5600    5.9600 C.3    17  ARG17       0.0334
     43  CG        21.4840   21.8950    6.4100 C.3    17  ARG17       0.0492
     44  CD        23.0170   21.9120    6.3550 C.3    17  ARG17       0.2205
     45  NE        23.5630   23.1720    6.8650 N.pl3  17  ARG17      -0.0865
     46  CZ        23.8970   24.2060    6.0960 C.cat  17  ARG17       0.5346
     47  NH1       23.7570   24.1320    4.7760 N.pl3  17  ARG17       0.1354
     48  NH2       24.3840   25.3120    6.6410 N.pl3  17  ARG17       0.1354
     49  N         19.4230   32.7850    6.6460 N.3    52  PHE52      -0.1241
     50  CA        18.7110   31.7300    7.3580 C.3    52  PHE52       0.1605
     51  C         18.1040   32.2250    8.6750 C.2    52  PHE52       0.2264
     52  O         18.8170   32.7460    9.5300 O.2    52  PHE52      -0.2867
     53  CB        19.6450   30.5480    7.6210 C.3    52  PHE52       0.0534
     54  CG        18.9330   29.3270    8.1140 C.ar   52  PHE52      -0.0203
     55  CD1       18.0590   28.6420    7.2850 C.ar   52  PHE52      -0.0042
     56  CD2       19.1160   28.8770    9.4130 C.ar   52  PHE52      -0.0042
     57  CE1       17.3860   27.5130    7.7330 C.ar   52  PHE52      -0.0003
     58  CE2       18.4400   27.7500    9.8710 C.ar   52  PHE52      -0.0003
     59  CZ        17.5740   27.0670    9.0320 C.ar   52  PHE52      -0.0000
     60  N         16.1080   30.5660   11.5280 N.3    54  ARG54      -0.1245
     61  CA        15.5240   29.3330   12.0540 C.3    54  ARG54       0.1563
     62  C         14.3330   29.6000   12.9740 C.2    54  ARG54       0.2260
     63  O         13.3780   28.8200   13.0010 O.2    54  ARG54      -0.2867
     64  CB        16.5800   28.4510   12.7430 C.3    54  ARG54       0.0307
     65  CG        17.0390   28.9170   14.1000 C.3    54  ARG54       0.0489
     66  CD        18.1040   27.9640   14.6870 C.3    54  ARG54       0.2205
     67  NE        17.5570   26.6870   15.1440 N.pl3  54  ARG54      -0.0865
     68  CZ        16.9780   26.5120   16.3320 C.cat  54  ARG54       0.5346
     69  NH1       16.8480   27.5320   17.1670 N.pl3  54  ARG54       0.1354
     70  NH2       16.5120   25.3260   16.6860 N.pl3  54  ARG54       0.1354
     71  N         17.9150   20.8070   15.7460 N.3    76  ASP76      -0.1225
     72  CA        18.9150   20.9500   14.6860 C.3    76  ASP76       0.1805
     73  C         18.9880   19.6410   13.9050 C.2    76  ASP76       0.2598
     74  O         18.8410   18.5640   14.4840 O.2    76  ASP76      -0.2718
     75  CB        20.3040   21.2520   15.2610 C.3    76  ASP76       0.1424
     76  CG        20.3670   22.5740   15.9950 C.2    76  ASP76       0.3668
     77  OD1       19.3720   23.3340   15.9600 O.co2  76  ASP76      -0.2456
     78  OD2       21.4220   22.8540   16.6220 O.co2  76  ASP76      -0.2456
     79  N         19.2390   19.7260   12.6010 N.am   77  VAL77      -0.1966
     80  CA        19.2160   18.5380   11.7600 C.3    77  VAL77       0.1727
     81  C         20.5090   17.7200   11.8920 C.2    77  VAL77       0.2616
     82  O         20.5560   16.5540   11.4930 O.2    77  VAL77      -0.2715
     83  CB        18.9760   18.9180   10.2810 C.3    77  VAL77       0.0290
     84  CG1       20.2580   19.4750    9.6670 C.3    77  VAL77       0.0023
     85  CG2       18.4740   17.7230    9.4830 C.3    77  VAL77       0.0023
     86  N         21.5490   18.3220   12.4660 N.am   78  ASP78      -0.1971
     87  CA        22.8850   17.7040   12.5010 C.3    78  ASP78       0.1709
     88  C         23.2520   17.1580   13.8870 C.2    78  ASP78       0.2293
     89  O         24.4060   16.7820   14.1420 O.2    78  ASP78      -0.2864
     90  CB        23.9410   18.7340   12.0940 C.3    78  ASP78       0.1436
     91  CG        23.9590   19.9350   13.0210 C.2    78  ASP78       0.3671
     92  OD1       23.2010   19.9200   14.0160 O.co2  78  ASP78      -0.2456
     93  OD2       24.7310   20.8920   12.7740 O.co2  78  ASP78      -0.2456
     94  N         26.2560   18.7580   25.6640 N.3   105  HIS105     -0.1241
     95  CA        26.4960   19.2000   24.2950 C.3   105  HIS105      0.1621
     96  C         27.9980   19.2260   23.9980 C.2   105  HIS105      0.2264
     97  O         28.7980   19.6210   24.8520 O.2   105  HIS105     -0.2867
     98  CB        25.8670   20.5740   24.0470 C.3   105  HIS105      0.0745
     99  CG        25.7660   20.9320   22.5940 C.ar  105  HIS105      0.0817
    100  ND1       26.8320   21.4270   21.8740 N.ar  105  HIS105     -0.2268
    101  CD2       24.7340   20.8390   21.7220 C.ar  105  HIS105      0.1154
    102  CE1       26.4610   21.6300   20.6220 C.ar  105  HIS105      0.1986
    103  NE2       25.1920   21.2800   20.5010 N.ar  105  HIS105     -0.2212
    104  N         28.6580   23.6290   23.0570 N.3   108  TYR108     -0.1241
    105  CA        28.1380   24.7730   23.8020 C.3   108  TYR108      0.1605
    106  C         27.9290   24.3920   25.2600 C.2   108  TYR108      0.2264
    107  O         27.1800   23.4600   25.5660 O.2   108  TYR108     -0.2867
    108  CB        26.8520   25.3100   23.1600 C.3   108  TYR108      0.0534
    109  CG        27.0750   25.7920   21.7360 C.ar  108  TYR108     -0.0201
    110  CD1       27.8070   26.9450   21.4800 C.ar  108  TYR108     -0.0009
    111  CD2       26.5750   25.0790   20.6530 C.ar  108  TYR108     -0.0009
    112  CE1       28.0250   27.3830   20.1770 C.ar  108  TYR108      0.0417
    113  CE2       26.7880   25.5050   19.3560 C.ar  108  TYR108      0.0417
    114  CZ        27.5140   26.6560   19.1230 C.ar  108  TYR108      0.1957
    115  OH        27.7270   27.0820   17.8290 O.3   108  TYR108     -0.2866
    116  N         22.5350   28.0020   27.8630 N.3   113  PHE113     -0.1241
    117  CA        22.3840   27.4480   26.5220 C.3   113  PHE113      0.1605
    118  C         21.1300   26.5850   26.4670 C.2   113  PHE113      0.2264
    119  O         20.9740   25.6630   27.2720 O.2   113  PHE113     -0.2867
    120  CB        23.5980   26.5920   26.1700 C.3   113  PHE113      0.0534
    121  CG        23.4710   25.8610   24.8580 C.ar  113  PHE113     -0.0203
    122  CD1       23.5620   26.5500   23.6470 C.ar  113  PHE113     -0.0042
    123  CD2       23.2770   24.4870   24.8320 C.ar  113  PHE113     -0.0042
    124  CE1       23.4560   25.8720   22.4290 C.ar  113  PHE113     -0.0003
    125  CE2       23.1720   23.7940   23.6160 C.ar  113  PHE113     -0.0003
    126  CZ        23.2650   24.4890   22.4140 C.ar  113  PHE113     -0.0000
    127  N         19.9310   25.5760   23.1720 N.3   115  GLY115     -0.1210
    128  CA        19.8370   25.3030   21.7460 C.3   115  GLY115      0.1956
    129  C         19.9280   23.8300   21.3880 C.2   115  GLY115      0.2612
    130  O         19.9050   22.9620   22.2680 O.2   115  GLY115     -0.2717
    131  N         20.0350   23.5410   20.0930 N.am  116  GLY116     -0.1956
    132  CA        20.1880   22.1680   19.6490 C.3   116  GLY116      0.1869
    133  C         18.8860   21.3850   19.6330 C.2   116  GLY116      0.2309
    134  O         18.3610   21.0730   18.5590 O.2   116  GLY116     -0.2863
    135  N         20.4090   34.9910   10.0050 N.3   137  GLY137     -0.1210
    136  CA        21.7990   34.5670   10.1140 C.3   137  GLY137      0.1956
    137  C         22.0240   33.8830   11.4550 C.2   137  GLY137      0.2612
    138  O         21.1280   33.8530   12.3000 O.2   137  GLY137     -0.2717
    139  N         23.2190   33.3410   11.6530 N.am  138  TRP138     -0.1962
    140  CA        23.5240   32.5530   12.8480 C.3   138  TRP138      0.1771
    141  C         23.4280   33.3400   14.1590 C.2   138  TRP138      0.2620
    142  O         23.7790   34.5330   14.2150 O.2   138  TRP138     -0.2715
    143  CB        24.9290   31.9390   12.7310 C.3   138  TRP138      0.0590
    144  CG        25.3120   31.0580   13.9210 C.ar  138  TRP138      0.0006
    145  CD1       25.1650   29.6980   14.0290 C.ar  138  TRP138      0.0946
    146  CD2       25.8970   31.4960   15.1550 C.ar  138  TRP138      0.0152
    147  NE1       25.6240   29.2690   15.2620 N.ar  138  TRP138     -0.2442
    148  CE2       26.0790   30.3550   15.9670 C.ar  138  TRP138      0.0810
    149  CE3       26.2990   32.7450   15.6470 C.ar  138  TRP138      0.0012
    150  CZ2       26.6350   30.4310   17.2500 C.ar  138  TRP138      0.0191
    151  CZ3       26.8460   32.8180   16.9210 C.ar  138  TRP138      0.0001
    152  CH2       27.0070   31.6680   17.7080 C.ar  138  TRP138      0.0015
    153  N         22.9360   32.6590   15.2000 N.am  139  GLY139     -0.1940
    154  CA        23.1410   33.0840   16.5790 C.3   139  GLY139      0.2014
    155  C         22.0160   33.7890   17.3010 C.2   139  GLY139      0.2639
    156  O         21.1160   34.3480   16.6680 O.2   139  GLY139     -0.2714
    157  N         22.0850   33.7350   18.6340 N.am  140  LEU140     -0.1963
    158  CA        21.2920   34.5610   19.5610 C.3   140  LEU140      0.1728
    159  C         19.7940   34.2530   19.7070 C.2   140  LEU140      0.2616
    160  O         19.1930   34.5930   20.7370 O.2   140  LEU140     -0.2715
    161  CB        21.4990   36.0560   19.2750 C.3   140  LEU140      0.0311
    162  CG        22.8910   36.6290   19.5730 C.3   140  LEU140      0.0022
    163  CD1       22.9570   38.1090   19.2090 C.3   140  LEU140      0.0001
    164  CD2       23.2540   36.4220   21.0380 C.3   140  LEU140      0.0001
    165  N         19.1810   33.6300   18.7040 N.am  141  GLU141     -0.1963
    166  CA        17.7250   33.4560   18.7390 C.3   141  GLU141      0.1733
    167  C         17.2550   32.5860   19.9090 C.2   141  GLU141      0.2616
    168  O         16.1960   32.8430   20.4900 O.2   141  GLU141     -0.2715
    169  CB        17.1770   32.9450   17.3960 C.3   141  GLU141      0.0429
    170  CG        17.1350   31.4310   17.2470 C.3   141  GLU141      0.1163
    171  CD        18.5190   30.8070   17.1260 C.2   141  GLU141      0.3649
    172  OE1       19.4560   31.5000   16.6720 O.co2 141  GLU141     -0.2457
    173  OE2       18.6630   29.6170   17.4840 O.co2 141  GLU141     -0.2457
    174  N         18.0450   31.5800   20.2740 N.am  142  ASN142     -0.1972
    175  CA        17.6790   30.7050   21.3890 C.3   142  ASN142      0.1688
    176  C         17.9450   31.3760   22.7210 C.2   142  ASN142      0.2292
    177  O         17.2680   31.1040   23.7200 O.2   142  ASN142     -0.2864
    178  CB        18.4330   29.3700   21.3130 C.3   142  ASN142      0.1181
    179  CG        17.6480   28.2980   20.5860 C.2   142  ASN142      0.2629
    180  OD1       16.4310   28.2110   20.7260 O.2   142  ASN142     -0.2716
    181  ND2       18.3430   27.4650   19.8070 N.am  142  ASN142     -0.0877
    182  N         27.4580   15.4980   16.8080 N.3   172  HIS172     -0.1241
    183  CA        27.2670   16.7810   16.1370 C.3   172  HIS172      0.1621
    184  C         28.1640   16.7890   14.9170 C.2   172  HIS172      0.2264
    185  O         29.3190   17.2050   14.9910 O.2   172  HIS172     -0.2867
    186  CB        27.6390   17.9540   17.0450 C.3   172  HIS172      0.0745
    187  CG        27.3600   19.3030   16.4390 C.ar  172  HIS172      0.0817
    188  ND1       28.1160   20.4190   16.7360 N.ar  172  HIS172     -0.2268
    189  CD2       26.4070   19.7140   15.5720 C.ar  172  HIS172      0.1154
    190  CE1       27.6350   21.4600   16.0780 C.ar  172  HIS172      0.1986
    191  NE2       26.5990   21.0630   15.3650 N.ar  172  HIS172     -0.2212
    192  N         29.0510   18.4900   12.0700 N.3   174  HIS174     -0.1241
    193  CA        28.9250   19.8190   11.5090 C.3   174  HIS174      0.1621
    194  C         30.3410   20.3550   11.4060 C.2   174  HIS174      0.2264
    195  O         30.9080   20.8240   12.3940 O.2   174  HIS174     -0.2867
    196  CB        28.0780   20.7070   12.4400 C.3   174  HIS174      0.0745
    197  CG        27.9100   22.1220   11.9590 C.ar  174  HIS174      0.0817
    198  ND1       27.0340   23.0080   12.5550 N.ar  174  HIS174     -0.2268
    199  CD2       28.5010   22.8010   10.9470 C.ar  174  HIS174      0.1154
    200  CE1       27.0970   24.1720   11.9310 C.ar  174  HIS174      0.1986
    201  NE2       27.9780   24.0740   10.9480 N.ar  174  HIS174     -0.2212
    202  N         29.0260   26.4920    6.7010 N.3   180  LYS180     -0.1231
    203  CA        29.4860   27.7040    7.3810 C.3   180  LYS180      0.1693
    204  C         28.3920   28.3280    8.2300 C.2   180  LYS180      0.2591
    205  O         27.2120   28.2720    7.8800 O.2   180  LYS180     -0.2718
    206  CB        30.0210   28.7350    6.3880 C.3   180  LYS180      0.0285
    207  CG        31.4140   28.4110    5.8740 C.3   180  LYS180      0.0035
    208  CD        31.9160   29.4820    4.9160 C.3   180  LYS180      0.0206
    209  CE        33.3130   29.1460    4.3990 C.3   180  LYS180      0.1093
    210  NZ        33.3690   27.7930    3.7910 N.3   180  LYS180     -0.1314
    211  N         28.7910   28.9050    9.3560 N.am  181  ARG181     -0.1980
    212  CA        27.8800   29.6910   10.1680 C.3   181  ARG181      0.1597
    213  C         27.8620   31.1110    9.6230 C.2   181  ARG181      0.2287
    214  O         28.9130   31.7310    9.4450 O.2   181  ARG181     -0.2864
    215  CB        28.3130   29.6730   11.6380 C.3   181  ARG181      0.0334
    216  CG        28.1930   28.2900   12.2930 C.3   181  ARG181      0.0492
    217  CD        28.6720   28.2800   13.7570 C.3   181  ARG181      0.2205
    218  NE        28.3640   26.9870   14.3650 N.pl3 181  ARG181     -0.0865
    219  CZ        29.1410   25.9120   14.2680 C.cat 181  ARG181      0.5346
    220  NH1       30.2970   25.9840   13.6130 N.pl3 181  ARG181      0.1354
    221  NH2       28.7670   24.7640   14.8320 N.pl3 181  ARG181      0.1354
@<TRIPOS>BOND
     1    36    35   ar
     2    37    35   ar
     3    35    34    1
     4    34    31    1
     5    31    30    1
     6    31    32    1
     7    30    21   am
     8    26    25    1
     9    26    27    2
    10    29    27    1
    11    24    25    1
    12    24    23    1
    13    32    33    2
    14    32    38   am
    15    27    28    1
    16    16    18   ar
    17    16    14   ar
    18    38    39    1
    19    21    20    1
    20    21    22    2
    21   210   209    1
    22    18    17   ar
    23    23    20    1
    24    40    39    1
    25    40    41    2
    26    20    19    1
    27   209   208    1
    28    14    13   ar
    29    39    42    1
    30    47    46    1
    31   208   207    1
    32    17    15   ar
    33    11    10    2
    34    19    10   am
    35    13    15   ar
    36    13    12    1
    37   207   206    1
    38    42    43    1
    39    10     9    1
    40    46    48    1
    41    46    45    2
    42    44    43    1
    43    44    45    1
    44   206   203    1
    45    49    50    1
    46   202   203    1
    47    12     9    1
    48     9     8    1
    49    55    57   ar
    50    55    54   ar
    51    50    53    1
    52    50    51    1
    53   203   204    1
    54    53    54    1
    55    57    59   ar
    56   205   204    2
    57    54    56   ar
    58     8     3   am
    59   204   211   am
    60    51    52    2
    61    59    58   ar
    62   211   212    1
    63    56    58   ar
    64   214   213    2
    65     3     4    2
    66     3     2    1
    67    85    83    1
    68   213   212    1
    69    84    83    1
    70   135   136    1
    71   136   137    1
    72   212   215    1
    73    83    80    1
    74     2     1    1
    75     2     5    1
    76   199   201   ar
    77   199   197   ar
    78   201   200   ar
    79     1     7    1
    80     5     6    1
    81   194   193    1
    82   194   195    2
    83   137   139   am
    84   137   138    2
    85    82    81    2
    86   193   192    1
    87   193   196    1
    88    60    61    1
    89   215   216    1
    90   139   140    1
    91    80    81    1
    92    80    79    1
    93    81    86   am
    94   200   198   ar
    95   197   196    1
    96   197   198   ar
    97    61    64    1
    98    61    62    1
    99    90    87    1
   100    90    91    1
   101   216   217    1
   102    86    87    1
   103    87    88    1
   104    79    73   am
   105   143   140    1
   106   143   144    1
   107     7     6    1
   108    64    65    1
   109    93    91   ar
   110   140   141    1
   111    62    63    2
   112    91    92   ar
   113   220   219    1
   114   217   218    1
   115    88    89    2
   116    73    74    2
   117    73    72    1
   118   144   145   ar
   119   144   146   ar
   120   145   147   ar
   121    65    66    1
   122   141   142    2
   123   141   153   am
   124   219   218    2
   125   219   221    1
   126    72    75    1
   127    72    71    1
   128    66    67    1
   129   184   185    2
   130   184   183    1
   131    67    68    2
   132   146   149   ar
   133   146   148   ar
   134   153   154    1
   135    75    76    1
   136   147   148   ar
   137   191   189   ar
   138   191   190   ar
   139   189   187   ar
   140   149   151   ar
   141    77    76   ar
   142   148   150   ar
   143    76    78   ar
   144   190   188   ar
   145   183   182    1
   146   183   186    1
   147    68    70    1
   148    68    69    1
   149   187   188   ar
   150   187   186    1
   151   154   155    1
   152   156   155    2
   153   172   171   ar
   154   151   152   ar
   155   171   170    1
   156   171   173   ar
   157   170   169    1
   158   150   152   ar
   159   155   157   am
   160   169   166    1
   161   115   114    1
   162   134   133    2
   163   157   158    1
   164   165   166    1
   165   165   159   am
   166   166   167    1
   167   114   113   ar
   168   114   112   ar
   169   163   162    1
   170   161   158    1
   171   161   162    1
   172   113   111   ar
   173   158   159    1
   174   162   164    1
   175   133   132    1
   176   132   131    1
   177   159   160    2
   178   181   179   am
   179   167   174   am
   180   167   168    2
   181   131   129   am
   182   112   110   ar
   183   174   175    1
   184   103   102   ar
   185   103   101   ar
   186   179   180    2
   187   179   178    1
   188   102   100   ar
   189   111   109   ar
   190   178   175    1
   191   129   128    1
   192   129   130    2
   193   175   176    1
   194   110   109   ar
   195   101    99   ar
   196   109   108    1
   197   128   127    1
   198   100    99   ar
   199   126   124   ar
   200   126   125   ar
   201   124   122   ar
   202    99    98    1
   203   176   177    2
   204   104   105    1
   205   108   105    1
   206   125   123   ar
   207   122   121   ar
   208   105   106    1
   209    96    95    1
   210    96    97    2
   211    98    95    1
   212    95    94    1
   213   123   121   ar
   214   121   120    1
   215   106   107    2
   216   120   117    1
   217   118   117    1
   218   118   119    2
   219   117   116    1
