@<TRIPOS>MOLECULE
tmp/4lwcA00.pdb
 152 139 0 0 0
SMALL
GASTEIGER

@<TRIPOS>ATOM
      1  N         -7.0940    0.6390   -3.4270 N.3    34  ARG34      -0.1245
      2  CA        -7.4260    1.4880   -4.5540 C.3    34  ARG34       0.1563
      3  C         -6.2950    2.4380   -4.8810 C.2    34  ARG34       0.2260
      4  O         -5.5130    2.8120   -4.0020 O.2    34  ARG34      -0.2867
      5  CB        -8.7270    2.2420   -4.2970 C.3    34  ARG34       0.0307
      6  CG        -8.6310    3.2500   -3.1960 C.3    34  ARG34       0.0489
      7  CD        -9.9420    3.9900   -3.0530 C.3    34  ARG34       0.2205
      8  NE        -9.8290    5.0810   -2.0960 N.pl3  34  ARG34      -0.0865
      9  CZ        -9.4170    6.3020   -2.4150 C.cat  34  ARG34       0.5346
     10  NH1       -9.0800    6.5800   -3.6680 N.pl3  34  ARG34       0.1354
     11  NH2       -9.3380    7.2390   -1.4820 N.pl3  34  ARG34       0.1354
     12  N         -4.5240    5.9730   -5.8040 N.3    36  ILE36      -0.1231
     13  CA        -4.6990    7.3650   -5.4320 C.3    36  ILE36       0.1692
     14  C         -4.5700    8.2270   -6.6730 C.2    36  ILE36       0.2592
     15  O         -3.8250    7.8790   -7.5860 O.2    36  ILE36      -0.2718
     16  CB        -3.6350    7.7530   -4.3750 C.3    36  ILE36       0.0266
     17  CG1       -4.1440    7.3990   -2.9870 C.3    36  ILE36       0.0019
     18  CG2       -3.2630    9.2330   -4.4380 C.3    36  ILE36       0.0020
     19  CD1       -3.2150    7.8150   -1.9110 C.3    36  ILE36       0.0001
     20  N         -5.3250    9.3230   -6.7310 N.am   37  THR37      -0.1953
     21  CA        -5.1060   10.3440   -7.7530 C.3    37  THR37       0.1897
     22  C         -3.7080   10.9310   -7.5600 C.2    37  THR37       0.2313
     23  O         -3.4630   11.6310   -6.5740 O.2    37  THR37      -0.2863
     24  CB        -6.1430   11.4780   -7.6450 C.3    37  THR37       0.1794
     25  OG1       -7.4610   10.9430   -7.8270 O.3    37  THR37      -0.2208
     26  CG2       -5.8800   12.5500   -8.6970 C.3    37  THR37       0.0378
     27  N          0.0900    5.4050   -6.5910 N.3    44  ARG44      -0.1245
     28  CA         0.1740    5.0490   -5.1850 C.3    44  ARG44       0.1563
     29  C         -1.0590    4.2380   -4.8550 C.2    44  ARG44       0.2260
     30  O         -2.1540    4.5280   -5.3560 O.2    44  ARG44      -0.2867
     31  CB         0.1700    6.2970   -4.3110 C.3    44  ARG44       0.0307
     32  CG         1.5210    6.9290   -4.0950 C.3    44  ARG44       0.0489
     33  CD         2.2040    6.3960   -2.8370 C.3    44  ARG44       0.2205
     34  NE         3.4870    7.0640   -2.6320 N.pl3  44  ARG44      -0.0865
     35  CZ         4.5350    6.5210   -2.0230 C.cat  44  ARG44       0.5346
     36  NH1        4.4660    5.2910   -1.5390 N.pl3  44  ARG44       0.1354
     37  NH2        5.6550    7.2190   -1.8970 N.pl3  44  ARG44       0.1354
     38  N         -3.6130    2.9410   -1.8480 N.3    46  ARG46      -0.1245
     39  CA        -4.0990    3.0890   -0.4830 C.3    46  ARG46       0.1563
     40  C         -4.8320    1.8150   -0.0970 C.2    46  ARG46       0.2260
     41  O         -5.5610    1.2370   -0.9090 O.2    46  ARG46      -0.2867
     42  CB        -5.0280    4.2970   -0.3940 C.3    46  ARG46       0.0307
     43  CG        -5.5380    4.5950    1.0070 C.3    46  ARG46       0.0489
     44  CD        -6.3640    5.8710    1.0180 C.3    46  ARG46       0.2205
     45  NE        -6.9710    6.0960    2.3280 N.pl3  46  ARG46      -0.0865
     46  CZ        -7.7190    7.1460    2.6380 C.cat  46  ARG46       0.5346
     47  NH1       -7.9670    8.0790    1.7300 N.pl3  46  ARG46       0.1354
     48  NH2       -8.2240    7.2580    3.8590 N.pl3  46  ARG46       0.1354
     49  N         -5.8420    4.2110    6.5340 N.3    58  SER58      -0.1217
     50  CA        -4.7310    5.1340    6.3080 C.3    58  SER58       0.1889
     51  C         -3.4120    4.4470    5.9610 C.2    58  SER58       0.2288
     52  O         -2.3390    4.9440    6.2790 O.2    58  SER58      -0.2866
     53  CB        -4.5320    6.0440    7.5160 C.3    58  SER58       0.2089
     54  OG        -4.2540    5.2800    8.6660 O.3    58  SER58      -0.2183
     55  N         -0.6530    3.1760    3.1330 N.3    60  MET60      -0.1245
     56  CA        -0.2060    3.3500    1.7560 C.3    60  MET60       0.1570
     57  C          0.9760    2.4480    1.4650 C.2    60  MET60       0.2261
     58  O          1.8430    2.2380    2.3120 O.2    60  MET60      -0.2867
     59  CB         0.1640    4.8020    1.4710 C.3    60  MET60       0.0387
     60  CG        -1.0450    5.6890    1.2390 C.3    60  MET60       0.0595
     61  SD        -0.6290    7.3950    0.8410 S.3    60  MET60      -0.1393
     62  CE        -0.1820    8.0180    2.4610 C.3    60  MET60       0.0692
     63  N          4.4980    1.4670   -0.1840 N.3    62  ALA62      -0.1231
     64  CA         5.7090    2.0140   -0.7900 C.3    62  ALA62       0.1694
     65  C          5.6710    1.6570   -2.2720 C.2    62  ALA62       0.2593
     66  O          5.2270    0.5730   -2.6400 O.2    62  ALA62      -0.2718
     67  CB         6.9490    1.4380   -0.1380 C.3    62  ALA62       0.0304
     68  N          6.1280    2.5690   -3.1230 N.am   63  THR63      -0.1939
     69  CA         6.0460    2.3370   -4.5600 C.3    63  THR63       0.2028
     70  C          6.8040    1.0910   -5.0010 C.2    63  THR63       0.2642
     71  O          6.4510    0.4740   -6.0050 O.2    63  THR63      -0.2714
     72  CB         6.5030    3.5600   -5.3640 C.3    63  THR63       0.1808
     73  OG1        7.7620    4.0180   -4.8650 O.3    63  THR63      -0.2208
     74  CG2        5.4800    4.6760   -5.2420 C.3    63  THR63       0.0379
     75  N          7.8340    0.7130   -4.2470 N.am   64  GLN64      -0.1976
     76  CA         8.5840   -0.5010   -4.5600 C.3    64  GLN64       0.1601
     77  C          7.7200   -1.7580   -4.4650 C.2    64  GLN64       0.2287
     78  O          8.0580   -2.7870   -5.0470 O.2    64  GLN64      -0.2864
     79  CB         9.8140   -0.6410   -3.6530 C.3    64  GLN64       0.0394
     80  CG         9.4870   -0.9950   -2.2070 C.3    64  GLN64       0.0908
     81  CD        10.6550   -0.7470   -1.2790 C.2    64  GLN64       0.2608
     82  OE1       11.7020   -0.2550   -1.6990 O.2    64  GLN64      -0.2717
     83  NE2       10.4800   -1.0770   -0.0070 N.am   64  GLN64      -0.0878
     84  N          6.5200    2.4410    8.4220 N.3    86  ILE86      -0.1245
     85  CA         6.7300    3.6610    9.1840 C.3    86  ILE86       0.1561
     86  C          5.4170    4.4080    9.3040 C.2    86  ILE86       0.2260
     87  O          4.5330    4.2870    8.4470 O.2    86  ILE86      -0.2867
     88  CB         7.8040    4.5770    8.5640 C.3    86  ILE86       0.0252
     89  CG1        7.3710    5.0620    7.1870 C.3    86  ILE86       0.0019
     90  CG2        9.1650    3.8780    8.4990 C.3    86  ILE86       0.0019
     91  CD1        7.5440    6.5560    7.0210 C.3    86  ILE86       0.0001
     92  N          3.7560    8.1650    9.5390 N.3    88  ASN88      -0.1240
     93  CA         3.9950    9.5870    9.3420 C.3    88  ASN88       0.1653
     94  C          2.7700   10.3690    9.7740 C.2    88  ASN88       0.2266
     95  O          1.6570    9.8610    9.7320 O.2    88  ASN88      -0.2867
     96  CB         4.3140    9.8810    7.8710 C.3    88  ASN88       0.1155
     97  CG         5.8010    9.9240    7.5970 C.2    88  ASN88       0.2627
     98  OD1        6.5990   10.1710    8.4970 O.2    88  ASN88      -0.2716
     99  ND2        6.1820    9.6870    6.3480 N.am   88  ASN88      -0.0877
    100  N          0.5800   13.9050    9.1940 N.3    90  LEU90      -0.1245
    101  CA         0.3490   15.0450    8.3120 C.3    90  LEU90       0.1561
    102  C          0.1690   16.3380    9.1040 C.2    90  LEU90       0.2260
    103  O         -0.0050   16.3100   10.3270 O.2    90  LEU90      -0.2867
    104  CB        -0.8830   14.7920    7.4470 C.3    90  LEU90       0.0270
    105  CG        -0.8560   13.4540    6.7100 C.3    90  LEU90       0.0019
    106  CD1       -2.0530   13.3410    5.7880 C.3    90  LEU90       0.0001
    107  CD2        0.4430   13.2730    5.9400 C.3    90  LEU90       0.0001
    108  N         -3.5200   13.9450   11.0040 N.3    94  ARG94      -0.1231
    109  CA        -3.8140   12.5750   10.6000 C.3    94  ARG94       0.1694
    110  C         -2.5460   11.7530   10.4950 C.2    94  ARG94       0.2592
    111  O         -1.4910   12.2480   10.0810 O.2    94  ARG94      -0.2718
    112  CB        -4.5500   12.5450    9.2630 C.3    94  ARG94       0.0321
    113  CG        -6.0320   12.8560    9.3650 C.3    94  ARG94       0.0489
    114  CD        -6.6580   12.8410    7.9820 C.3    94  ARG94       0.2205
    115  NE        -5.9950   13.8030    7.1070 N.pl3  94  ARG94      -0.0865
    116  CZ        -6.2870   13.9770    5.8240 C.cat  94  ARG94       0.5346
    117  NH1       -5.6230   14.8760    5.1120 N.pl3  94  ARG94       0.1354
    118  NH2       -7.2410   13.2530    5.2530 N.pl3  94  ARG94       0.1354
    119  N         -2.6420   10.4850   10.8680 N.am   95  ARG95      -0.1966
    120  CA        -1.5010    9.6030   10.7210 C.3    95  ARG95       0.1729
    121  C         -1.6910    8.6120    9.5990 C.2    95  ARG95       0.2616
    122  O         -2.7940    8.1110    9.3690 O.2    95  ARG95      -0.2715
    123  CB        -1.1720    8.9090   12.0350 C.3    95  ARG95       0.0348
    124  CG        -0.5450    9.8860   13.0030 C.3    95  ARG95       0.0492
    125  CD         0.0210    9.2260   14.2140 C.3    95  ARG95       0.2205
    126  NE         0.7880   10.1810   15.0080 N.pl3  95  ARG95      -0.0865
    127  CZ         0.9210   10.1000   16.3250 C.cat  95  ARG95       0.5346
    128  NH1        0.3200    9.1150   16.9810 N.pl3  95  ARG95       0.1354
    129  NH2        1.6390   10.9910   16.9810 N.pl3  95  ARG95       0.1354
    130  N         -0.6020    8.3710    8.8800 N.am   96  VAL96      -0.1977
    131  CA        -0.6310    7.4270    7.7780 C.3    96  VAL96       0.1596
    132  C          0.4700    6.3990    7.9670 C.2    96  VAL96       0.2287
    133  O          1.5310    6.6840    8.5250 O.2    96  VAL96      -0.2864
    134  CB        -0.4560    8.1210    6.4280 C.3    96  VAL96       0.0276
    135  CG1       -1.5360    9.1710    6.2240 C.3    96  VAL96       0.0022
    136  CG2        0.8920    8.7620    6.3630 C.3    96  VAL96       0.0022
    137  N          2.9910    3.8030    6.1690 N.3    98  ILE98      -0.1245
    138  CA         3.5930    3.4490    4.8890 C.3    98  ILE98       0.1561
    139  C          4.1500    2.0370    5.0140 C.2    98  ILE98       0.2260
    140  O          5.0390    1.7730    5.8350 O.2    98  ILE98      -0.2867
    141  CB         4.7160    4.4170    4.4660 C.3    98  ILE98       0.0252
    142  CG1        4.2260    5.8660    4.5130 C.3    98  ILE98       0.0019
    143  CG2        5.2160    4.0550    3.0670 C.3    98  ILE98       0.0019
    144  CD1        3.0160    6.1200    3.6500 C.3    98  ILE98       0.0001
    145  N          6.4080   -0.8200    3.8860 N.3   100  MET100     -0.1245
    146  CA         7.6690   -0.8890    3.1420 C.3   100  MET100      0.1570
    147  C          8.0370   -2.3020    2.6980 C.2   100  MET100      0.2261
    148  O          8.5800   -2.5090    1.6020 O.2   100  MET100     -0.2867
    149  CB         8.8050   -0.3090    3.9860 C.3   100  MET100      0.0387
    150  CG         8.5760    1.1220    4.4340 C.3   100  MET100      0.0595
    151  SD         8.5080    2.3000    3.0640 S.3   100  MET100     -0.1393
    152  CE         9.9750    1.8580    2.1360 C.3   100  MET100      0.0692
@<TRIPOS>BOND
     1    26    24    1
     2    25    24    1
     3    21    24    1
     4    21    22    1
     5    21    20    1
     6    15    14    2
     7    22    23    2
     8    20    14   am
     9    14    13    1
    10    27    28    1
    11    71    70    2
    12    12    13    1
    13    13    16    1
    14    72    74    1
    15    72    73    1
    16    72    69    1
    17    30    29    2
    18    28    29    1
    19    28    31    1
    20    78    77    2
    21    70    69    1
    22    70    75   am
    23     3     2    1
    24     3     4    2
    25    76    77    1
    26    76    75    1
    27    76    79    1
    28    69    68    1
    29     2     5    1
    30     2     1    1
    31    18    16    1
    32    16    17    1
    33    31    32    1
    34     5     6    1
    35    32    33    1
    36    10     9    1
    37    79    80    1
    38     6     7    1
    39    68    65   am
    40     7     8    1
    41    17    19    1
    42    33    34    1
    43    66    65    2
    44    34    35    2
    45     9     8    2
    46     9    11    1
    47    65    64    1
    48    80    81    1
    49    35    37    1
    50    35    36    1
    51    38    39    1
    52    82    81    2
    53    81    83   am
    54    41    40    2
    55    64    63    1
    56    64    67    1
    57    39    42    1
    58    39    40    1
    59    42    43    1
    60    61    60    1
    61    61    62    1
    62    43    44    1
    63    44    45    1
    64    60    59    1
    65    57    56    1
    66    57    58    2
    67    59    56    1
    68   148   147    2
    69    47    46    1
    70    56    55    1
    71   152   151    1
    72    45    46    2
    73    46    48    1
    74   147   146    1
    75   151   150    1
    76   143   141    1
    77   146   145    1
    78   146   149    1
    79   144   142    1
    80   149   150    1
    81   141   142    1
    82   141   138    1
    83   138   139    1
    84   138   137    1
    85   139   140    2
    86   117   116    1
    87   118   116    1
    88   106   105    1
    89   116   115    2
    90   107   105    1
    91    51    52    2
    92    51    50    1
    93   135   134    1
    94    50    49    1
    95    50    53    1
    96    99    97   am
    97   136   134    1
    98   134   131    1
    99   105   104    1
   100    91    89    1
   101   115   114    1
   102    89    88    1
   103   104   101    1
   104    53    54    1
   105    97    96    1
   106    97    98    2
   107   131   132    1
   108   131   130    1
   109    96    93    1
   110   132   133    2
   111   114   113    1
   112   101   102    1
   113   101   100    1
   114    84    85    1
   115    87    86    2
   116    90    88    1
   117    88    85    1
   118   130   121   am
   119   102   103    2
   120    85    86    1
   121   112   113    1
   122   112   109    1
   123    93    92    1
   124    93    94    1
   125   122   121    2
   126   121   120    1
   127    95    94    2
   128   111   110    2
   129   110   109    1
   130   110   119   am
   131   109   108    1
   132   120   119    1
   133   120   123    1
   134   123   124    1
   135   124   125    1
   136   125   126    1
   137   126   127    2
   138   127   128    1
   139   127   129    1
