@<TRIPOS>MOLECULE
tmp/4lwfA00.pdb
 123 112 0 0 0
SMALL
GASTEIGER

@<TRIPOS>ATOM
      1  N         -1.6410  -11.4530  -15.9050 N.3    32  LEU32      -0.1245
      2  CA        -2.2420  -11.9060  -17.1580 C.3    32  LEU32       0.1561
      3  C         -3.5360  -11.1530  -17.4600 C.2    32  LEU32       0.2260
      4  O         -3.8190  -10.8000  -18.6180 O.2    32  LEU32      -0.2867
      5  CB        -2.4720  -13.4260  -17.1520 C.3    32  LEU32       0.0270
      6  CG        -1.1820  -14.2440  -17.0420 C.3    32  LEU32       0.0019
      7  CD1       -1.4840  -15.7360  -16.9020 C.3    32  LEU32       0.0001
      8  CD2       -0.2760  -14.0120  -18.2470 C.3    32  LEU32       0.0001
      9  N         -2.5330   -7.8260  -18.8190 N.3    35  ASN35      -0.1225
     10  CA        -2.1540   -7.9220  -20.2210 C.3    35  ASN35       0.1785
     11  C         -3.3960   -7.9950  -21.1190 C.2    35  ASN35       0.2597
     12  O         -3.4600   -7.3410  -22.1580 O.2    35  ASN35      -0.2718
     13  CB        -1.3000   -9.1600  -20.4700 C.3    35  ASN35       0.1169
     14  CG         0.1230   -9.0170  -19.9460 C.2    35  ASN35       0.2627
     15  OD1        0.5600   -7.9390  -19.5230 O.2    35  ASN35      -0.2716
     16  ND2        0.8620  -10.1150  -19.9990 N.am   35  ASN35      -0.0877
     17  N         -4.3710   -8.8060  -20.7180 N.am   36  SER36      -0.1952
     18  CA        -5.6090   -8.9470  -21.5010 C.3    36  SER36       0.1924
     19  C         -6.3290   -7.5990  -21.5950 C.2    36  SER36       0.2314
     20  O         -6.8140   -7.2180  -22.6620 O.2    36  SER36      -0.2863
     21  CB        -6.5410   -9.9940  -20.8800 C.3    36  SER36       0.2116
     22  OG        -6.0070  -11.3040  -21.0340 O.3    36  SER36      -0.2180
     23  N         -4.6580   -5.4490  -24.1340 N.3    39  ALA39      -0.1245
     24  CA        -4.9460   -5.9020  -25.5020 C.3    39  ALA39       0.1562
     25  C         -6.3690   -5.5310  -25.9320 C.2    39  ALA39       0.2260
     26  O         -6.6390   -5.2470  -27.1060 O.2    39  ALA39      -0.2867
     27  CB        -4.7230   -7.4000  -25.6150 C.3    39  ALA39       0.0290
     28  N         -6.4740   -1.9820  -26.8670 N.3    42  LYS42      -0.1245
     29  CA        -5.8870   -1.7340  -28.1950 C.3    42  LYS42       0.1561
     30  C         -6.8990   -1.9390  -29.3140 C.2    42  LYS42       0.2260
     31  O         -7.0050   -1.1160  -30.2320 O.2    42  LYS42      -0.2867
     32  CB        -4.6540   -2.6150  -28.4490 C.3    42  LYS42       0.0271
     33  CG        -3.4520   -2.3070  -27.5500 C.3    42  LYS42       0.0035
     34  CD        -2.2920   -3.2600  -27.8540 C.3    42  LYS42       0.0206
     35  CE        -1.1570   -3.1250  -26.8450 C.3    42  LYS42       0.1093
     36  NZ        -0.1120   -4.1690  -27.0730 N.3    42  LYS42      -0.1314
     37  N         -8.9300  -13.7550  -23.8090 N.3    77  ASP77      -0.1239
     38  CA        -9.4670  -12.4270  -24.0800 C.3    77  ASP77       0.1674
     39  C         -9.7920  -12.2480  -25.5560 C.2    77  ASP77       0.2266
     40  O         -9.3250  -13.0110  -26.4040 O.2    77  ASP77      -0.2867
     41  CB        -8.5420  -11.3070  -23.5790 C.3    77  ASP77       0.1410
     42  CG        -7.2200  -11.2370  -24.3420 C.2    77  ASP77       0.3668
     43  OD1       -7.2430  -10.9690  -25.5630 O.co2  77  ASP77      -0.2456
     44  OD2       -6.1560  -11.4340  -23.7100 O.co2  77  ASP77      -0.2456
     45  N         -6.7930   -7.4540  -29.1990 N.3    80  ILE80      -0.1231
     46  CA        -6.3030   -7.2380  -30.5570 C.3    80  ILE80       0.1692
     47  C         -5.5850   -8.4550  -31.1620 C.2    80  ILE80       0.2593
     48  O         -5.5310   -8.6080  -32.3820 O.2    80  ILE80      -0.2718
     49  CB        -5.4160   -5.9680  -30.6260 C.3    80  ILE80       0.0266
     50  CG1       -5.1450   -5.5860  -32.0820 C.3    80  ILE80       0.0019
     51  CG2       -4.1280   -6.1640  -29.8250 C.3    80  ILE80       0.0020
     52  CD1       -4.7820   -4.1370  -32.2540 C.3    80  ILE80       0.0001
     53  N         -5.0650   -9.3350  -30.3150 N.am   81  GLY81      -0.1942
     54  CA        -4.3450  -10.4970  -30.7960 C.3    81  GLY81       0.2014
     55  C         -2.9410  -10.1570  -31.2740 C.2    81  GLY81       0.2638
     56  O         -2.5740   -8.9890  -31.3810 O.2    81  GLY81      -0.2714
     57  N         -2.1600  -11.1870  -31.5660 N.am   82  MET82      -0.1976
     58  CA        -0.7710  -10.9990  -31.9590 C.3    82  MET82       0.1605
     59  C         -0.4980  -11.6470  -33.2990 C.2    82  MET82       0.2287
     60  O         -1.0870  -12.6780  -33.6260 O.2    82  MET82      -0.2864
     61  CB         0.1460  -11.6330  -30.9170 C.3    82  MET82       0.0413
     62  CG         0.2530  -10.8670  -29.6220 C.3    82  MET82       0.0598
     63  SD         1.3000  -11.7280  -28.4220 S.3    82  MET82      -0.1393
     64  CE         0.2000  -13.0580  -27.9430 C.3    82  MET82       0.0692
     65  N          4.9100  -10.8710  -33.8220 N.3    86  ASP86      -0.1239
     66  CA         4.7590  -10.4880  -32.4120 C.3    86  ASP86       0.1674
     67  C          5.1020  -11.6400  -31.4810 C.2    86  ASP86       0.2266
     68  O          5.7970  -11.4600  -30.4880 O.2    86  ASP86      -0.2867
     69  CB         3.3250  -10.0690  -32.1020 C.3    86  ASP86       0.1410
     70  CG         2.9350   -8.7600  -32.7470 C.2    86  ASP86       0.3668
     71  OD1        3.8190   -7.9010  -32.9690 O.co2  86  ASP86      -0.2456
     72  OD2        1.7200   -8.5950  -33.0150 O.co2  86  ASP86      -0.2456
     73  N          6.3590  -12.1240  -27.5440 N.3    91  LEU91      -0.1231
     74  CA         4.9170  -11.9720  -27.3600 C.3    91  LEU91       0.1693
     75  C          4.4800  -10.5030  -27.2890 C.2    91  LEU91       0.2593
     76  O          3.6710  -10.1180  -26.4410 O.2    91  LEU91      -0.2718
     77  CB         4.4370  -12.7630  -26.1340 C.3    91  LEU91       0.0284
     78  CG         4.8290  -14.2500  -26.2220 C.3    91  LEU91       0.0019
     79  CD1        5.9600  -14.5530  -25.2550 C.3    91  LEU91       0.0001
     80  CD2        3.6620  -15.1870  -25.9750 C.3    91  LEU91       0.0001
     81  N          5.0150   -9.6980  -28.1990 N.am   92  GLY92      -0.1942
     82  CA         4.6320   -8.3040  -28.3170 C.3    92  GLY92       0.2014
     83  C          5.0830   -7.3990  -27.1860 C.2    92  GLY92       0.2639
     84  O          4.5310   -6.3090  -27.0110 O.2    92  GLY92      -0.2714
     85  N          6.0820   -7.8360  -26.4200 N.am   93  THR93      -0.1950
     86  CA         6.5850   -7.0600  -25.2900 C.3    93  THR93       0.1897
     87  C          7.9960   -6.5650  -25.5840 C.2    93  THR93       0.2313
     88  O          8.6490   -7.0550  -26.5080 O.2    93  THR93      -0.2863
     89  CB         6.6370   -7.9010  -23.9780 C.3    93  THR93       0.1794
     90  OG1        7.6750   -8.8880  -24.0690 O.3    93  THR93      -0.2208
     91  CG2        5.3050   -8.5910  -23.7070 C.3    93  THR93       0.0378
     92  N          4.0260  -11.1840  -18.0440 N.3   122  PHE122     -0.1241
     93  CA         3.6640  -12.4960  -18.5910 C.3   122  PHE122      0.1605
     94  C          4.4830  -13.6380  -18.0050 C.2   122  PHE122      0.2264
     95  O          3.9430  -14.7100  -17.7320 O.2   122  PHE122     -0.2867
     96  CB         3.8440  -12.5280  -20.1070 C.3   122  PHE122      0.0534
     97  CG         3.8010  -13.9170  -20.6900 C.ar  122  PHE122     -0.0203
     98  CD1        2.5960  -14.5890  -20.8150 C.ar  122  PHE122     -0.0042
     99  CD2        4.9690  -14.5480  -21.1090 C.ar  122  PHE122     -0.0042
    100  CE1        2.5390  -15.8850  -21.3610 C.ar  122  PHE122     -0.0003
    101  CE2        4.9350  -15.8310  -21.6580 C.ar  122  PHE122     -0.0003
    102  CZ         3.7220  -16.5020  -21.7910 C.ar  122  PHE122     -0.0000
    103  N          0.3160  -20.3310  -25.6830 N.3   134  VAL134     -0.1245
    104  CA        -0.3900  -19.1030  -26.0120 C.3   134  VAL134      0.1561
    105  C         -0.9560  -19.2310  -27.4160 C.2   134  VAL134      0.2260
    106  O         -0.2050  -19.3880  -28.3790 O.2   134  VAL134     -0.2867
    107  CB         0.5370  -17.8760  -25.9130 C.3   134  VAL134      0.0252
    108  CG1       -0.1770  -16.6070  -26.3580 C.3   134  VAL134      0.0019
    109  CG2        1.0640  -17.7100  -24.4790 C.3   134  VAL134      0.0019
    110  N         -6.4780  -13.4900  -27.6250 N.3   168  THR168     -0.1218
    111  CA        -5.3900  -14.3050  -27.1100 C.3   168  THR168      0.1862
    112  C         -5.8780  -15.2160  -26.0040 C.2   168  THR168      0.2287
    113  O         -6.6920  -14.8130  -25.1660 O.2   168  THR168     -0.2866
    114  CB        -4.2370  -13.3920  -26.6250 C.3   168  THR168      0.1770
    115  OG1       -3.7520  -12.6450  -27.7510 O.3   168  THR168     -0.2211
    116  CG2       -3.0900  -14.2000  -26.0150 C.3   168  THR168      0.0375
    117  N         -4.2310  -17.7550  -23.0590 N.3   170  VAL170     -0.1245
    118  CA        -3.0230  -18.2220  -22.3690 C.3   170  VAL170      0.1561
    119  C         -3.4090  -19.4590  -21.5710 C.2   170  VAL170      0.2260
    120  O         -4.2630  -19.3830  -20.6860 O.2   170  VAL170     -0.2867
    121  CB        -2.4450  -17.1460  -21.4260 C.3   170  VAL170      0.0252
    122  CG1       -1.2300  -17.7040  -20.6470 C.3   170  VAL170      0.0019
    123  CG2       -2.0620  -15.8900  -22.2210 C.3   170  VAL170      0.0019
@<TRIPOS>BOND
     1    65    66    1
     2    60    59    2
     3    59    58    1
     4    72    70   ar
     5    71    70   ar
     6    70    69    1
     7    66    69    1
     8    66    67    1
     9    48    47    2
    10    52    50    1
    11    50    49    1
    12    58    57    1
    13    58    61    1
    14    57    55   am
    15    67    68    2
    16    56    55    2
    17    55    54    1
    18    47    46    1
    19    47    53   am
    20    61    62    1
    21    54    53    1
    22    49    46    1
    23    49    51    1
    24    46    45    1
    25    31    30    2
    26    62    63    1
    27    30    29    1
    28    32    29    1
    29    32    33    1
    30    63    64    1
    31   106   105    2
    32    82    81    1
    33    82    83    1
    34    81    75   am
    35    29    28    1
    36    34    33    1
    37    34    35    1
    38   115   114    1
    39   110   111    1
    40    73    74    1
    41   105   104    1
    42    74    75    1
    43    74    77    1
    44    75    76    2
    45    83    84    2
    46    83    85   am
    47   111   114    1
    48   111   112    1
    49    26    25    2
    50    36    35    1
    51   114   116    1
    52    88    87    2
    53    85    86    1
    54    40    39    2
    55   108   107    1
    56    78    77    1
    57    78    80    1
    58    78    79    1
    59   104   107    1
    60   104   103    1
    61   112   113    2
    62    25    24    1
    63   107   109    1
    64    27    24    1
    65    87    86    1
    66    43    42   ar
    67    39    38    1
    68    24    23    1
    69    86    89    1
    70    42    44   ar
    71    42    41    1
    72    38    37    1
    73    38    41    1
    74    90    89    1
    75    89    91    1
    76   117   118    1
    77    20    19    2
    78   118   119    1
    79   118   121    1
    80   123   121    1
    81    12    11    2
    82   102   101   ar
    83   102   100   ar
    84   101    99   ar
    85    19    18    1
    86   119   120    2
    87    18    21    1
    88    18    17    1
    89   121   122    1
    90   100    98   ar
    91    11    17   am
    92    11    10    1
    93    99    97   ar
    94    22    21    1
    95    98    97   ar
    96    97    96    1
    97    13    10    1
    98    13    14    1
    99    10     9    1
   100    96    93    1
   101    16    14   am
   102    14    15    2
   103     4     3    2
   104    93    92    1
   105    93    94    1
   106     8     6    1
   107    94    95    2
   108     3     2    1
   109     2     5    1
   110     2     1    1
   111     5     6    1
   112     6     7    1
