@<TRIPOS>MOLECULE
tmp/4lwgA00.pdb
 123 113 0 0 0
SMALL
GASTEIGER

@<TRIPOS>ATOM
      1  N         -1.5840  -11.2310  -15.9690 N.3    32  LEU32      -0.1245
      2  CA        -2.1850  -11.7020  -17.2120 C.3    32  LEU32       0.1561
      3  C         -3.4720  -10.9490  -17.5340 C.2    32  LEU32       0.2260
      4  O         -3.7590  -10.6610  -18.6990 O.2    32  LEU32      -0.2867
      5  CB        -2.4320  -13.2080  -17.1610 C.3    32  LEU32       0.0270
      6  CG        -1.1470  -14.0400  -17.0760 C.3    32  LEU32       0.0019
      7  CD1       -1.4890  -15.5210  -16.9540 C.3    32  LEU32       0.0001
      8  CD2       -0.2210  -13.7830  -18.2760 C.3    32  LEU32       0.0001
      9  N         -2.4190   -7.6600  -18.9800 N.3    35  ASN35      -0.1225
     10  CA        -2.0570   -7.8330  -20.3840 C.3    35  ASN35       0.1785
     11  C         -3.2970   -7.9160  -21.2770 C.2    35  ASN35       0.2597
     12  O         -3.3410   -7.3180  -22.3540 O.2    35  ASN35      -0.2718
     13  CB        -1.1960   -9.0790  -20.5690 C.3    35  ASN35       0.1169
     14  CG         0.2320   -8.8800  -20.1010 C.2    35  ASN35       0.2627
     15  OD1        0.6040   -7.8120  -19.6160 O.2    35  ASN35      -0.2716
     16  ND2        1.0380   -9.9170  -20.2370 N.am   35  ASN35      -0.0877
     17  N         -4.3000   -8.6670  -20.8300 N.am   36  SER36      -0.1952
     18  CA        -5.5450   -8.7880  -21.5770 C.3    36  SER36       0.1924
     19  C         -6.2100   -7.4240  -21.7130 C.2    36  SER36       0.2314
     20  O         -6.7000   -7.0500  -22.7860 O.2    36  SER36      -0.2863
     21  CB        -6.4890   -9.7720  -20.8870 C.3    36  SER36       0.2116
     22  OG        -6.0100  -11.1040  -21.0040 O.3    36  SER36      -0.2180
     23  N         -4.7670   -4.5380  -21.6920 N.3    38  ASP38      -0.1225
     24  CA        -3.9890   -3.7620  -22.6580 C.3    38  ASP38       0.1805
     25  C         -4.3290   -4.1350  -24.1050 C.2    38  ASP38       0.2597
     26  O         -4.3960   -3.2720  -24.9790 O.2    38  ASP38      -0.2718
     27  CB        -2.4910   -3.9420  -22.4150 C.3    38  ASP38       0.1424
     28  CG        -2.0260   -3.3190  -21.1000 C.2    38  ASP38       0.3668
     29  OD1       -2.7380   -2.4540  -20.5460 O.co2  38  ASP38      -0.2456
     30  OD2       -0.9330   -3.6850  -20.6220 O.co2  38  ASP38      -0.2456
     31  N         -4.5320   -5.4230  -24.3510 N.am   39  ALA39      -0.1979
     32  CA        -4.8970   -5.9110  -25.6840 C.3    39  ALA39       0.1597
     33  C         -6.3020   -5.4560  -26.0800 C.2    39  ALA39       0.2287
     34  O         -6.5740   -5.1590  -27.2480 O.2    39  ALA39      -0.2864
     35  CB        -4.8050   -7.4230  -25.7330 C.3    39  ALA39       0.0319
     36  N         -6.2790   -1.8640  -27.0430 N.3    42  LYS42      -0.1245
     37  CA        -5.7360   -1.6570  -28.3840 C.3    42  LYS42       0.1561
     38  C         -6.7810   -1.8540  -29.4830 C.2    42  LYS42       0.2260
     39  O         -6.8830   -1.0380  -30.4050 O.2    42  LYS42      -0.2867
     40  CB        -4.5330   -2.5570  -28.6420 C.3    42  LYS42       0.0271
     41  CG        -3.7860   -2.1970  -29.9220 C.3    42  LYS42       0.0035
     42  CD        -2.5040   -2.9950  -30.0660 C.3    42  LYS42       0.0206
     43  CE        -1.7500   -2.6010  -31.3330 C.3    42  LYS42       0.1093
     44  NZ        -0.5420   -3.4410  -31.5530 N.3    42  LYS42      -0.1314
     45  N         -8.9870  -13.4340  -23.6790 N.3    77  ASP77      -0.1239
     46  CA        -9.4870  -12.1020  -23.9960 C.3    77  ASP77       0.1674
     47  C         -9.8600  -11.9860  -25.4690 C.2    77  ASP77       0.2266
     48  O         -9.3710  -12.7430  -26.3130 O.2    77  ASP77      -0.2867
     49  CB        -8.4920  -11.0060  -23.5940 C.3    77  ASP77       0.1410
     50  CG        -7.2200  -11.0290  -24.4210 C.2    77  ASP77       0.3668
     51  OD1       -7.2900  -10.7500  -25.6410 O.co2  77  ASP77      -0.2456
     52  OD2       -6.1380  -11.3040  -23.8430 O.co2  77  ASP77      -0.2456
     53  N         -6.7950   -7.4530  -29.2310 N.3    80  ILE80      -0.1231
     54  CA        -6.3220   -7.2590  -30.5920 C.3    80  ILE80       0.1692
     55  C         -5.6950   -8.5220  -31.1760 C.2    80  ILE80       0.2593
     56  O         -5.6390   -8.6920  -32.3990 O.2    80  ILE80      -0.2718
     57  CB        -5.3190   -6.0900  -30.6520 C.3    80  ILE80       0.0266
     58  CG1       -5.0030   -5.7310  -32.1060 C.3    80  ILE80       0.0019
     59  CG2       -4.0560   -6.4200  -29.8670 C.3    80  ILE80       0.0020
     60  CD1       -5.0360   -4.2540  -32.3700 C.3    80  ILE80       0.0001
     61  N         -5.2380   -9.4140  -30.3030 N.am   81  GLY81      -0.1942
     62  CA        -4.5600  -10.6180  -30.7420 C.3    81  GLY81       0.2014
     63  C         -3.1420  -10.3340  -31.2070 C.2    81  GLY81       0.2638
     64  O         -2.6750   -9.1900  -31.1700 O.2    81  GLY81      -0.2714
     65  N         -2.4530  -11.3780  -31.6500 N.am   82  MET82      -0.1976
     66  CA        -1.0630  -11.2480  -32.0760 C.3    82  MET82       0.1605
     67  C         -0.8170  -11.9160  -33.4130 C.2    82  MET82       0.2287
     68  O         -1.3220  -13.0030  -33.6770 O.2    82  MET82      -0.2864
     69  CB        -0.1180  -11.8640  -31.0400 C.3    82  MET82       0.0413
     70  CG         0.0490  -11.0350  -29.7760 C.3    82  MET82       0.0598
     71  SD         0.9310  -11.9250  -28.4880 S.3    82  MET82      -0.1393
     72  CE        -0.3430  -13.0630  -27.9500 C.3    82  MET82       0.0692
     73  N          5.7920  -12.0350  -27.7190 N.3    91  LEU91      -0.1231
     74  CA         4.3650  -11.8210  -27.5100 C.3    91  LEU91       0.1693
     75  C          3.9700  -10.3420  -27.4840 C.2    91  LEU91       0.2593
     76  O          3.1160   -9.9240  -26.6910 O.2    91  LEU91      -0.2718
     77  CB         3.8930  -12.5360  -26.2380 C.3    91  LEU91       0.0284
     78  CG         4.1390  -14.0470  -26.2470 C.3    91  LEU91       0.0019
     79  CD1        5.4080  -14.3940  -25.4870 C.3    91  LEU91       0.0001
     80  CD2        2.9510  -14.7890  -25.6720 C.3    91  LEU91       0.0001
     81  N          4.5810   -9.5610  -28.3680 N.am   92  GLY92      -0.1942
     82  CA         4.2150   -8.1680  -28.5420 C.3    92  GLY92       0.2014
     83  C          4.7650   -7.2550  -27.4660 C.2    92  GLY92       0.2639
     84  O          4.3810   -6.0870  -27.3810 O.2    92  GLY92      -0.2714
     85  N          5.6640   -7.7830  -26.6410 N.am   93  THR93      -0.1950
     86  CA         6.2120   -7.0170  -25.5260 C.3    93  THR93       0.1897
     87  C          7.6570   -6.6050  -25.7880 C.2    93  THR93       0.2313
     88  O          8.3200   -7.1550  -26.6670 O.2    93  THR93      -0.2863
     89  CB         6.1540   -7.8050  -24.1950 C.3    93  THR93       0.1794
     90  OG1        7.1380   -8.8480  -24.2060 O.3    93  THR93      -0.2208
     91  CG2        4.7610   -8.4050  -23.9670 C.3    93  THR93       0.0378
     92  N          3.9310  -11.0600  -18.3660 N.3   122  PHE122     -0.1241
     93  CA         3.5320  -12.3500  -18.9210 C.3   122  PHE122      0.1605
     94  C          4.3140  -13.5060  -18.2960 C.2   122  PHE122      0.2264
     95  O          3.7510  -14.5620  -17.9940 O.2   122  PHE122     -0.2867
     96  CB         3.7300  -12.3850  -20.4360 C.3   122  PHE122      0.0534
     97  CG         3.6250  -13.7570  -21.0170 C.ar  122  PHE122     -0.0203
     98  CD1        2.3830  -14.3590  -21.1940 C.ar  122  PHE122     -0.0042
     99  CD2        4.7660  -14.4580  -21.3820 C.ar  122  PHE122     -0.0042
    100  CE1        2.2850  -15.6370  -21.7270 C.ar  122  PHE122     -0.0003
    101  CE2        4.6750  -15.7320  -21.9240 C.ar  122  PHE122     -0.0003
    102  CZ         3.4330  -16.3230  -22.0920 C.ar  122  PHE122     -0.0000
    103  N         -0.1290  -20.4030  -25.6340 N.3   134  VAL134     -0.1245
    104  CA        -0.8300  -19.1800  -25.9890 C.3   134  VAL134      0.1561
    105  C         -1.4400  -19.3210  -27.3790 C.2   134  VAL134      0.2260
    106  O         -0.7160  -19.4560  -28.3640 O.2   134  VAL134     -0.2867
    107  CB         0.1190  -17.9550  -25.9470 C.3   134  VAL134      0.0252
    108  CG1       -0.6410  -16.6900  -26.3580 C.3   134  VAL134      0.0019
    109  CG2        0.7250  -17.8030  -24.5480 C.3   134  VAL134      0.0019
    110  N         -6.7180  -13.5530  -27.6230 N.3   168  THR168     -0.1218
    111  CA        -5.6510  -14.3990  -27.1190 C.3   168  THR168      0.1862
    112  C         -6.1440  -15.2480  -25.9550 C.2   168  THR168      0.2287
    113  O         -6.9050  -14.7740  -25.1030 O.2   168  THR168     -0.2866
    114  CB        -4.4650  -13.5320  -26.6560 C.3   168  THR168      0.1770
    115  OG1       -3.9750  -12.7870  -27.7760 O.3   168  THR168     -0.2211
    116  CG2       -3.3340  -14.3830  -26.0730 C.3   168  THR168      0.0375
    117  N         -4.4410  -17.5530  -22.9540 N.3   170  VAL170     -0.1245
    118  CA        -3.2470  -18.0130  -22.2590 C.3   170  VAL170      0.1561
    119  C         -3.6250  -19.2220  -21.4120 C.2   170  VAL170      0.2260
    120  O         -4.3980  -19.1100  -20.4590 O.2   170  VAL170     -0.2867
    121  CB        -2.6530  -16.9180  -21.3670 C.3   170  VAL170      0.0252
    122  CG1       -1.4340  -17.4460  -20.6390 C.3   170  VAL170      0.0019
    123  CG2       -2.2760  -15.6940  -22.2110 C.3   170  VAL170      0.0019
@<TRIPOS>BOND
     1    68    67    2
     2    67    66    1
     3    56    55    2
     4    60    58    1
     5    58    57    1
     6    66    65    1
     7    66    69    1
     8    65    63   am
     9    44    43    1
    10    43    42    1
    11    63    64    2
    12    63    62    1
    13    55    54    1
    14    55    61   am
    15    69    70    1
    16    62    61    1
    17    57    54    1
    18    57    59    1
    19    54    53    1
    20    39    38    2
    21    42    41    1
    22    41    40    1
    23    70    71    1
    24    38    37    1
    25    40    37    1
    26    82    81    1
    27    82    83    1
    28    71    72    1
    29    37    36    1
    30    81    75   am
    31   106   105    2
    32   115   114    1
    33    73    74    1
    34   110   111    1
    35    74    75    1
    36    74    77    1
    37    75    76    2
    38    83    84    2
    39    83    85   am
    40   105   104    1
    41    34    33    2
    42   111   114    1
    43   111   112    1
    44    88    87    2
    45   114   116    1
    46    85    86    1
    47   108   107    1
    48    48    47    2
    49    78    77    1
    50    78    80    1
    51    78    79    1
    52    33    32    1
    53   104   107    1
    54   104   103    1
    55   112   113    2
    56   107   109    1
    57    87    86    1
    58    35    32    1
    59    32    31    1
    60    51    50   ar
    61    86    89    1
    62    47    46    1
    63    26    25    2
    64    50    52   ar
    65    50    49    1
    66    31    25   am
    67    90    89    1
    68    89    91    1
    69    25    24    1
    70    46    45    1
    71    46    49    1
    72   117   118    1
    73    20    19    2
    74    24    27    1
    75    24    23    1
    76    27    28    1
    77    12    11    2
    78   118   119    1
    79   118   121    1
    80   123   121    1
    81   102   101   ar
    82   102   100   ar
    83   101    99   ar
    84   100    98   ar
    85    19    18    1
    86    18    21    1
    87    18    17    1
    88   119   120    2
    89    99    97   ar
    90   121   122    1
    91    11    17   am
    92    11    10    1
    93    98    97   ar
    94    28    30   ar
    95    28    29   ar
    96    97    96    1
    97    22    21    1
    98    13    10    1
    99    13    14    1
   100    96    93    1
   101    10     9    1
   102    16    14   am
   103    14    15    2
   104    93    92    1
   105    93    94    1
   106     4     3    2
   107    94    95    2
   108     8     6    1
   109     3     2    1
   110     2     5    1
   111     2     1    1
   112     5     6    1
   113     6     7    1
