@<TRIPOS>MOLECULE
tmp/4lwhA00.pdb
 159 145 0 0 0
SMALL
GASTEIGER

@<TRIPOS>ATOM
      1  N          1.5100  -33.0000  -16.0270 N.3    33  LEU33      -0.1245
      2  CA         2.1000  -32.5050  -17.2720 C.3    33  LEU33       0.1561
      3  C          3.4090  -33.2310  -17.5840 C.2    33  LEU33       0.2260
      4  O          3.6640  -33.6050  -18.7240 O.2    33  LEU33      -0.2867
      5  CB         2.3100  -30.9940  -17.1950 C.3    33  LEU33       0.0270
      6  CG         0.9840  -30.2330  -17.0890 C.3    33  LEU33       0.0019
      7  CD1        1.2560  -28.7310  -16.9830 C.3    33  LEU33       0.0001
      8  CD2        0.0660  -30.5510  -18.2570 C.3    33  LEU33       0.0001
      9  N          2.5560  -36.6060  -18.9210 N.3    36  ASN36      -0.1225
     10  CA         2.1680  -36.5300  -20.3180 C.3    36  ASN36       0.1785
     11  C          3.3850  -36.4180  -21.2270 C.2    36  ASN36       0.2597
     12  O          3.4570  -37.0810  -22.2590 O.2    36  ASN36      -0.2718
     13  CB         1.2160  -35.3490  -20.5510 C.3    36  ASN36       0.1169
     14  CG        -0.1860  -35.6220  -20.0220 C.2    36  ASN36       0.2627
     15  OD1       -0.5080  -36.7450  -19.6240 O.2    36  ASN36      -0.2716
     16  ND2       -1.0300  -34.5950  -20.0340 N.am   36  ASN36      -0.0877
     17  N          4.3440  -35.5870  -20.8300 N.am   37  SER37      -0.1952
     18  CA         5.5530  -35.4200  -21.6210 C.3    37  SER37       0.1924
     19  C          6.2870  -36.7460  -21.7030 C.2    37  SER37       0.2314
     20  O          6.7440  -37.1400  -22.7780 O.2    37  SER37      -0.2863
     21  CB         6.4650  -34.3800  -20.9960 C.3    37  SER37       0.2116
     22  OG         5.8880  -33.0900  -21.0670 O.3    37  SER37      -0.2180
     23  N          5.0650  -39.7380  -21.5060 N.3    39  ASP39      -0.1225
     24  CA         4.3540  -40.6320  -22.4240 C.3    39  ASP39       0.1805
     25  C          4.6340  -40.2860  -23.8890 C.2    39  ASP39       0.2597
     26  O          4.7750  -41.1740  -24.7380 O.2    39  ASP39      -0.2718
     27  CB         2.8380  -40.6200  -22.1750 C.3    39  ASP39       0.1424
     28  CG         2.4620  -41.1880  -20.8260 C.2    39  ASP39       0.3668
     29  OD1        3.3010  -41.8770  -20.2040 O.co2  39  ASP39      -0.2456
     30  OD2        1.3240  -40.9340  -20.3780 O.co2  39  ASP39      -0.2456
     31  N          4.7070  -38.9920  -24.2000 N.am   40  ALA40      -0.1979
     32  CA         4.9610  -38.5870  -25.5830 C.3    40  ALA40       0.1597
     33  C          6.3920  -38.9040  -25.9840 C.2    40  ALA40       0.2287
     34  O          6.6670  -39.1950  -27.1580 O.2    40  ALA40      -0.2864
     35  CB         4.6870  -37.0960  -25.7680 C.3    40  ALA40       0.0319
     36  N          6.7090  -42.5110  -26.8260 N.3    43  LYS43      -0.1245
     37  CA         6.1320  -42.8460  -28.1160 C.3    43  LYS43       0.1561
     38  C          7.0970  -42.5870  -29.2700 C.2    43  LYS43       0.2260
     39  O          7.2480  -43.4250  -30.1540 O.2    43  LYS43      -0.2867
     40  CB         4.8010  -42.1270  -28.3460 C.3    43  LYS43       0.0271
     41  CG         4.1230  -42.5740  -29.6300 C.3    43  LYS43       0.0035
     42  CD         2.6740  -42.1440  -29.6890 C.3    43  LYS43       0.0206
     43  CE         1.9700  -42.7720  -30.8870 C.3    43  LYS43       0.1093
     44  NZ         0.5110  -42.4580  -30.8860 N.3    43  LYS43      -0.1314
     45  N          6.3520  -25.8840  -19.8080 N.3    76  ILE76      -0.1245
     46  CA         6.8930  -27.2420  -19.7970 C.3    76  ILE76       0.1561
     47  C          7.1320  -27.6340  -21.2540 C.2    76  ILE76       0.2260
     48  O          6.1970  -27.6740  -22.0450 O.2    76  ILE76      -0.2867
     49  CB         5.9230  -28.2420  -19.1240 C.3    76  ILE76       0.0252
     50  CG1        5.6830  -27.8670  -17.6570 C.3    76  ILE76       0.0019
     51  CG2        6.4730  -29.6730  -19.1950 C.3    76  ILE76       0.0019
     52  CD1        4.6200  -26.7970  -17.4580 C.3    76  ILE76       0.0001
     53  N          8.7200  -30.4440  -24.0150 N.3    78  ASP78      -0.1239
     54  CA         9.3010  -31.7620  -24.2630 C.3    78  ASP78       0.1674
     55  C          9.6010  -31.9690  -25.7420 C.2    78  ASP78       0.2266
     56  O          9.0710  -31.2610  -26.6010 O.2    78  ASP78      -0.2867
     57  CB         8.4080  -32.8920  -23.7030 C.3    78  ASP78       0.1410
     58  CG         7.1100  -33.0410  -24.4520 C.2    78  ASP78       0.3668
     59  OD1        7.1380  -33.3930  -25.6570 O.co2  78  ASP78      -0.2456
     60  OD2        6.0470  -32.8100  -23.8220 O.co2  78  ASP78      -0.2456
     61  N          6.6750  -36.9790  -29.2240 N.3    81  ILE81      -0.1231
     62  CA         6.1510  -37.2280  -30.5570 C.3    81  ILE81       0.1692
     63  C          5.4110  -36.0410  -31.1690 C.2    81  ILE81       0.2593
     64  O          5.3730  -35.8910  -32.3840 O.2    81  ILE81      -0.2718
     65  CB         5.2420  -38.4740  -30.5680 C.3    81  ILE81       0.0266
     66  CG1        4.8580  -38.8170  -32.0080 C.3    81  ILE81       0.0019
     67  CG2        4.0160  -38.2440  -29.6690 C.3    81  ILE81       0.0020
     68  CD1        4.5850  -40.2730  -32.2420 C.3    81  ILE81       0.0001
     69  N          4.8280  -35.1850  -30.3360 N.am   82  GLY82      -0.1942
     70  CA         4.0730  -34.0560  -30.8550 C.3    82  GLY82       0.2014
     71  C          2.6680  -34.4360  -31.2910 C.2    82  GLY82       0.2638
     72  O          2.3540  -35.6110  -31.4920 O.2    82  GLY82      -0.2714
     73  N          1.8070  -33.4340  -31.4290 N.am   83  MET83      -0.1976
     74  CA         0.4160  -33.6790  -31.7750 C.3    83  MET83       0.1605
     75  C          0.0870  -33.0630  -33.1190 C.2    83  MET83       0.2287
     76  O          0.6140  -32.0090  -33.4790 O.2    83  MET83      -0.2864
     77  CB        -0.5210  -33.1000  -30.6980 C.3    83  MET83       0.0413
     78  CG        -0.5790  -33.9380  -29.4310 C.3    83  MET83       0.0598
     79  SD        -1.6290  -33.2050  -28.1550 S.3    83  MET83      -0.1393
     80  CE        -0.6090  -31.8130  -27.6840 C.3    83  MET83       0.0692
     81  N         -5.2650  -34.1400  -33.5180 N.3    87  ASP87      -0.1239
     82  CA        -5.0580  -34.4990  -32.1060 C.3    87  ASP87       0.1674
     83  C         -5.5050  -33.3640  -31.1860 C.2    87  ASP87       0.2266
     84  O         -6.1990  -33.5850  -30.1940 O.2    87  ASP87      -0.2867
     85  CB        -3.5820  -34.8120  -31.8130 C.3    87  ASP87       0.1410
     86  CG        -3.1250  -36.1430  -32.3870 C.2    87  ASP87       0.3668
     87  OD1       -3.9370  -37.0930  -32.4720 O.co2  87  ASP87      -0.2456
     88  OD2       -1.9290  -36.2480  -32.7380 O.co2  87  ASP87      -0.2456
     89  N         -6.8390  -32.9080  -27.3050 N.3    92  LEU92      -0.1231
     90  CA        -5.4170  -33.0750  -27.0280 C.3    92  LEU92       0.1693
     91  C         -5.0340  -34.5510  -26.9590 C.2    92  LEU92       0.2593
     92  O         -4.3820  -34.9970  -26.0080 O.2    92  LEU92      -0.2718
     93  CB        -5.0360  -32.3460  -25.7350 C.3    92  LEU92       0.0284
     94  CG        -5.5040  -30.8860  -25.6640 C.3    92  LEU92       0.0019
     95  CD1       -5.5880  -30.4410  -24.2230 C.3    92  LEU92       0.0001
     96  CD2       -4.5770  -29.9840  -26.4390 C.3    92  LEU92       0.0001
     97  N         -5.4460  -35.3030  -27.9760 N.am   93  GLY93      -0.1942
     98  CA        -5.0190  -36.6810  -28.1330 C.3    93  GLY93       0.2014
     99  C         -5.5420  -37.6180  -27.0620 C.2    93  GLY93       0.2640
    100  O         -4.9260  -38.6560  -26.7870 O.2    93  GLY93      -0.2714
    101  N         -6.6840  -37.2740  -26.4700 N.am   94  THR94      -0.1936
    102  CA        -7.2320  -38.0550  -25.3630 C.3    94  THR94       0.2028
    103  C         -8.7030  -38.3870  -25.5550 C.2    94  THR94       0.2642
    104  O         -9.4260  -37.6550  -26.2280 O.2    94  THR94      -0.2714
    105  CB        -7.0730  -37.2900  -24.0330 C.3    94  THR94       0.1808
    106  OG1       -5.7280  -36.8100  -23.9250 O.3    94  THR94      -0.2208
    107  CG2       -7.3930  -38.1830  -22.8450 C.3    94  THR94       0.0379
    108  N         -9.1500  -39.4920  -24.9660 N.am   95  ILE95      -0.1977
    109  CA       -10.5790  -39.8010  -24.9700 C.3    95  ILE95       0.1596
    110  C        -11.2380  -39.0950  -23.7830 C.2    95  ILE95       0.2287
    111  O        -11.7330  -39.7260  -22.8450 O.2    95  ILE95      -0.2864
    112  CB       -10.8570  -41.3230  -24.9530 C.3    95  ILE95       0.0276
    113  CG1      -10.0780  -42.0140  -23.8370 C.3    95  ILE95       0.0022
    114  CG2      -10.4880  -41.9530  -26.3030 C.3    95  ILE95       0.0022
    115  CD1      -10.5540  -43.4550  -23.5960 C.3    95  ILE95       0.0001
    116  N         -5.3910  -38.2420  -12.9120 N.3   117  GLY117     -0.1225
    117  CA        -4.5700  -38.9220  -13.8990 C.3   117  GLY117      0.1811
    118  C         -5.0250  -40.3390  -14.1980 C.2   117  GLY117      0.2280
    119  O         -4.8220  -40.8420  -15.3020 O.2   117  GLY117     -0.2866
    120  N         -7.2030  -40.3990  -17.2010 N.3   120  GLY120     -0.1225
    121  CA        -6.6100  -40.0090  -18.4710 C.3   120  GLY120      0.1811
    122  C         -6.8170  -38.5510  -18.8450 C.2   120  GLY120      0.2280
    123  O         -6.5470  -38.1550  -19.9750 O.2   120  GLY120     -0.2866
    124  N         -5.5900  -35.8480  -16.8750 N.3   122  GLY122     -0.1210
    125  CA        -4.7530  -35.0710  -15.9820 C.3   122  GLY122      0.1956
    126  C         -4.3990  -33.6920  -16.5070 C.2   122  GLY122      0.2611
    127  O         -4.1740  -32.7750  -15.7180 O.2   122  GLY122     -0.2717
    128  N         -4.3410  -33.5400  -17.8280 N.am  123  PHE123     -0.1976
    129  CA        -4.0230  -32.2370  -18.4090 C.3   123  PHE123      0.1639
    130  C         -4.8520  -31.1010  -17.7980 C.2   123  PHE123      0.2290
    131  O         -4.3370  -30.0190  -17.5300 O.2   123  PHE123     -0.2864
    132  CB        -4.2380  -32.2420  -19.9310 C.3   123  PHE123      0.0560
    133  CG        -4.2530  -30.8610  -20.5280 C.ar  123  PHE123     -0.0200
    134  CD1       -3.0730  -30.1610  -20.7150 C.ar  123  PHE123     -0.0042
    135  CD2       -5.4550  -30.2550  -20.8660 C.ar  123  PHE123     -0.0042
    136  CE1       -3.0810  -28.8720  -21.2480 C.ar  123  PHE123     -0.0003
    137  CE2       -5.4860  -28.9660  -21.3970 C.ar  123  PHE123     -0.0003
    138  CZ        -4.2870  -28.2750  -21.5930 C.ar  123  PHE123     -0.0000
    139  N         -0.9100  -24.4140  -25.7370 N.3   135  VAL135     -0.1245
    140  CA        -0.1680  -25.6240  -26.0720 C.3   135  VAL135      0.1561
    141  C          0.3370  -25.4800  -27.4990 C.2   135  VAL135      0.2260
    142  O         -0.4620  -25.3660  -28.4370 O.2   135  VAL135     -0.2867
    143  CB        -1.0490  -26.8820  -25.9770 C.3   135  VAL135      0.0252
    144  CG1       -0.2800  -28.1060  -26.4850 C.3   135  VAL135      0.0019
    145  CG2       -1.5590  -27.1070  -24.5360 C.3   135  VAL135      0.0019
    146  N          6.2150  -30.7590  -27.7890 N.3   169  THR169     -0.1218
    147  CA         5.0860  -30.0050  -27.2480 C.3   169  THR169      0.1862
    148  C          5.5470  -29.0480  -26.1660 C.2   169  THR169      0.2287
    149  O          6.3940  -29.3830  -25.3280 O.2   169  THR169     -0.2866
    150  CB         4.0210  -30.9820  -26.6970 C.3   169  THR169      0.1770
    151  OG1        3.5190  -31.7710  -27.7800 O.3   169  THR169     -0.2211
    152  CG2        2.8510  -30.2440  -26.0250 C.3   169  THR169      0.0375
    153  N          3.8740  -26.5690  -23.2400 N.3   171  VAL171     -0.1245
    154  CA         2.6730  -26.1660  -22.5140 C.3   171  VAL171      0.1561
    155  C          3.0020  -24.9240  -21.7040 C.2   171  VAL171      0.2260
    156  O          3.8470  -24.9540  -20.8150 O.2   171  VAL171     -0.2867
    157  CB         2.1570  -27.2790  -21.5880 C.3   171  VAL171      0.0252
    158  CG1        0.9280  -26.7890  -20.8030 C.3   171  VAL171      0.0019
    159  CG2        1.8340  -28.5340  -22.3950 C.3   171  VAL171      0.0019
@<TRIPOS>BOND
     1    81    82    1
     2    76    75    2
     3    75    74    1
     4    88    86   ar
     5    87    86   ar
     6    86    85    1
     7    64    63    2
     8    68    66    1
     9    82    85    1
    10    82    83    1
    11    66    65    1
    12    74    73    1
    13    74    77    1
    14    72    71    2
    15    73    71   am
    16    71    70    1
    17    83    84    2
    18    63    62    1
    19    63    69   am
    20    43    44    1
    21    43    42    1
    22    70    69    1
    23    77    78    1
    24    65    62    1
    25    65    67    1
    26    62    61    1
    27    39    38    2
    28    42    41    1
    29    41    40    1
    30    78    79    1
    31    38    37    1
    32   142   141    2
    33    40    37    1
    34    79    80    1
    35    98    97    1
    36    98    99    1
    37    37    36    1
    38    97    91   am
    39   146   147    1
    40   151   150    1
    41   141   140    1
    42    89    90    1
    43   147   150    1
    44   147   148    1
    45    34    33    2
    46    99   100    2
    47    99   101   am
    48    90    91    1
    49    90    93    1
    50    91    92    2
    51   150   152    1
    52    56    55    2
    53   144   143    1
    54   101   102    1
    55    96    94    1
    56   114   112    1
    57   104   103    2
    58   148   149    2
    59   140   143    1
    60   140   139    1
    61    33    32    1
    62   143   145    1
    63    35    32    1
    64    55    54    1
    65    93    94    1
    66    94    95    1
    67    59    58   ar
    68    32    31    1
    69   103   102    1
    70   103   108   am
    71   102   105    1
    72   109   108    1
    73   109   112    1
    74   109   110    1
    75   112   113    1
    76    26    25    2
    77    58    60   ar
    78    58    57    1
    79    54    53    1
    80    54    57    1
    81    31    25   am
    82   105   106    1
    83   105   107    1
    84    25    24    1
    85   113   115    1
    86   110   111    2
    87   153   154    1
    88    20    19    2
    89   154   155    1
    90   154   157    1
    91    24    27    1
    92    24    23    1
    93   159   157    1
    94    12    11    2
    95    27    28    1
    96    48    47    2
    97   155   156    2
    98    19    18    1
    99    18    21    1
   100    18    17    1
   101   138   137   ar
   102   138   136   ar
   103   157   158    1
   104   137   135   ar
   105    47    46    1
   106   136   134   ar
   107    11    17   am
   108    11    10    1
   109    22    21    1
   110   135   133   ar
   111    28    30   ar
   112    28    29   ar
   113   134   133   ar
   114    13    10    1
   115    13    14    1
   116   133   132    1
   117    10     9    1
   118    16    14   am
   119    14    15    2
   120   123   122    2
   121   132   129    1
   122    45    46    1
   123    46    49    1
   124    51    49    1
   125    49    50    1
   126   122   121    1
   127     4     3    2
   128   121   120    1
   129   129   128    1
   130   129   130    1
   131     8     6    1
   132   128   126   am
   133   130   131    2
   134    50    52    1
   135     3     2    1
   136     2     5    1
   137     2     1    1
   138     5     6    1
   139     6     7    1
   140   124   125    1
   141   126   125    1
   142   126   127    2
   143   119   118    2
   144   118   117    1
   145   117   116    1
