@<TRIPOS>MOLECULE
tmp/4lwiA00.pdb
 139 127 0 0 0
SMALL
GASTEIGER

@<TRIPOS>ATOM
      1  N          1.5050  -33.1000  -15.9500 N.3    32  LEU32      -0.1245
      2  CA         2.1000  -32.6250  -17.1980 C.3    32  LEU32       0.1561
      3  C          3.3940  -33.3570  -17.5180 C.2    32  LEU32       0.2260
      4  O          3.6500  -33.6860  -18.6770 O.2    32  LEU32      -0.2867
      5  CB         2.3280  -31.1120  -17.1660 C.3    32  LEU32       0.0270
      6  CG         1.0220  -30.3150  -17.0750 C.3    32  LEU32       0.0019
      7  CD1        1.3380  -28.8190  -16.9410 C.3    32  LEU32       0.0001
      8  CD2        0.1170  -30.5730  -18.2890 C.3    32  LEU32       0.0001
      9  N          2.4390  -36.7060  -18.9050 N.3    35  ASN35      -0.1225
     10  CA         2.0710  -36.6090  -20.3070 C.3    35  ASN35       0.1785
     11  C          3.2950  -36.5380  -21.2100 C.2    35  ASN35       0.2597
     12  O          3.3580  -37.2110  -22.2290 O.2    35  ASN35      -0.2718
     13  CB         1.1780  -35.3950  -20.5350 C.3    35  ASN35       0.1169
     14  CG        -0.2290  -35.6160  -20.0310 C.2    35  ASN35       0.2627
     15  OD1       -0.5530  -36.6860  -19.5030 O.2    35  ASN35      -0.2716
     16  ND2       -1.0790  -34.6080  -20.1980 N.am   35  ASN35      -0.0877
     17  N          4.2640  -35.7190  -20.8180 N.am   36  SER36      -0.1952
     18  CA         5.5100  -35.5840  -21.5710 C.3    36  SER36       0.1924
     19  C          6.2350  -36.9320  -21.6520 C.2    36  SER36       0.2314
     20  O          6.7000  -37.3300  -22.7180 O.2    36  SER36      -0.2863
     21  CB         6.4320  -34.5540  -20.9030 C.3    36  SER36       0.2116
     22  OG         5.9270  -33.2330  -21.0300 O.3    36  SER36      -0.2180
     23  N          4.8600  -39.9000  -21.4500 N.3    38  ASP38      -0.1225
     24  CA         4.0930  -40.7280  -22.3800 C.3    38  ASP38       0.1805
     25  C          4.4160  -40.4240  -23.8430 C.2    38  ASP38       0.2597
     26  O          4.5910  -41.3410  -24.6450 O.2    38  ASP38      -0.2718
     27  CB         2.5910  -40.5610  -22.1440 C.3    38  ASP38       0.1424
     28  CG         2.1320  -41.1270  -20.8140 C.2    38  ASP38       0.3668
     29  OD1        2.9200  -41.8210  -20.1310 O.co2  38  ASP38      -0.2456
     30  OD2        0.9690  -40.8480  -20.4410 O.co2  38  ASP38      -0.2456
     31  N          4.5050  -39.1360  -24.1840 N.am   39  ALA39      -0.1979
     32  CA         4.8690  -38.7090  -25.5350 C.3    39  ALA39       0.1597
     33  C          6.3000  -39.0790  -25.9100 C.2    39  ALA39       0.2287
     34  O          6.5870  -39.3590  -27.0720 O.2    39  ALA39      -0.2864
     35  CB         4.6820  -37.2150  -25.7000 C.3    39  ALA39       0.0319
     36  N          6.5010  -42.7140  -26.7330 N.3    42  LYS42      -0.1245
     37  CA         5.9450  -43.0260  -28.0490 C.3    42  LYS42       0.1561
     38  C          6.9430  -42.7940  -29.1790 C.2    42  LYS42       0.2260
     39  O          7.1080  -43.6530  -30.0480 O.2    42  LYS42      -0.2867
     40  CB         4.6250  -42.2850  -28.3050 C.3    42  LYS42       0.0271
     41  CG         3.9220  -42.7630  -29.5810 C.3    42  LYS42       0.0035
     42  CD         2.4390  -42.3900  -29.6100 C.3    42  LYS42       0.0206
     43  CE         1.7560  -42.9680  -30.8580 C.3    42  LYS42       0.1093
     44  NZ         0.3300  -42.5350  -30.9840 N.3    42  LYS42      -0.1314
     45  N          8.8770  -30.7130  -23.8480 N.3    77  ASP77      -0.1239
     46  CA         9.3940  -32.0530  -24.0870 C.3    77  ASP77       0.1674
     47  C          9.6950  -32.2750  -25.5640 C.2    77  ASP77       0.2266
     48  O          9.2020  -31.5620  -26.4300 O.2    77  ASP77      -0.2867
     49  CB         8.4470  -33.1410  -23.5500 C.3    77  ASP77       0.1410
     50  CG         7.1450  -33.2340  -24.3320 C.2    77  ASP77       0.3668
     51  OD1        7.1750  -33.5960  -25.5290 O.co2  77  ASP77      -0.2456
     52  OD2        6.0740  -32.9770  -23.7280 O.co2  77  ASP77      -0.2456
     53  N          6.6640  -37.1830  -29.1000 N.3    80  ILE80      -0.1231
     54  CA         6.1260  -37.4170  -30.4330 C.3    80  ILE80       0.1692
     55  C          5.4550  -36.1760  -31.0410 C.2    80  ILE80       0.2593
     56  O          5.4230  -36.0110  -32.2660 O.2    80  ILE80      -0.2718
     57  CB         5.1540  -38.6310  -30.4250 C.3    80  ILE80       0.0266
     58  CG1        4.7630  -39.0520  -31.8460 C.3    80  ILE80       0.0019
     59  CG2        3.9230  -38.3420  -29.5760 C.3    80  ILE80       0.0020
     60  CD1        5.7980  -39.8790  -32.5210 C.3    80  ILE80       0.0001
     61  N          4.9540  -35.2840  -30.1920 N.am   81  GLY81      -0.1942
     62  CA         4.2390  -34.1180  -30.6820 C.3    81  GLY81       0.2014
     63  C          2.8310  -34.4640  -31.1410 C.2    81  GLY81       0.2638
     64  O          2.4850  -35.6370  -31.3100 O.2    81  GLY81      -0.2714
     65  N          2.0110  -33.4390  -31.3390 N.am   82  MET82      -0.1976
     66  CA         0.6270  -33.6360  -31.7590 C.3    82  MET82       0.1605
     67  C          0.3600  -32.9430  -33.0850 C.2    82  MET82       0.2287
     68  O          0.9270  -31.8940  -33.3820 O.2    82  MET82      -0.2864
     69  CB        -0.3290  -33.0790  -30.6990 C.3    82  MET82       0.0413
     70  CG        -0.3920  -33.8940  -29.4260 C.3    82  MET82       0.0598
     71  SD        -1.3070  -33.0460  -28.1070 S.3    82  MET82      -0.1393
     72  CE        -0.1070  -31.8150  -27.6260 C.3    82  MET82       0.0692
     73  N         -5.0370  -33.7100  -33.6730 N.3    86  ASP86      -0.1239
     74  CA        -4.9110  -34.0990  -32.2620 C.3    86  ASP86       0.1674
     75  C         -5.3070  -32.9520  -31.3320 C.2    86  ASP86       0.2266
     76  O         -6.0620  -33.1500  -30.3760 O.2    86  ASP86      -0.2867
     77  CB        -3.4730  -34.5200  -31.9200 C.3    86  ASP86       0.1410
     78  CG        -3.0550  -35.8300  -32.5780 C.2    86  ASP86       0.3668
     79  OD1       -3.9110  -36.7240  -32.7530 O.co2  86  ASP86      -0.2456
     80  OD2       -1.8460  -35.9630  -32.9020 O.co2  86  ASP86      -0.2456
     81  N         -6.5520  -32.4790  -27.4650 N.3    91  LEU91      -0.1231
     82  CA        -5.1110  -32.6300  -27.2340 C.3    91  LEU91       0.1693
     83  C         -4.6550  -34.0960  -27.1800 C.2    91  LEU91       0.2593
     84  O         -3.8150  -34.4750  -26.3610 O.2    91  LEU91      -0.2718
     85  CB        -4.6640  -31.8390  -25.9930 C.3    91  LEU91       0.0284
     86  CG        -5.1700  -30.3850  -26.0690 C.3    91  LEU91       0.0019
     87  CD1       -6.2720  -30.1210  -25.0550 C.3    91  LEU91       0.0001
     88  CD2       -4.0730  -29.3640  -25.9300 C.3    91  LEU91       0.0001
     89  N         -5.2130  -34.9150  -28.0650 N.am   92  GLY92      -0.1942
     90  CA        -4.8320  -36.3130  -28.1530 C.3    92  GLY92       0.2014
     91  C         -5.3310  -37.1870  -27.0160 C.2    92  GLY92       0.2639
     92  O         -4.9040  -38.3360  -26.8850 O.2    92  GLY92      -0.2714
     93  N         -6.2190  -36.6420  -26.1880 N.am   93  THR93      -0.1950
     94  CA        -6.7650  -37.3740  -25.0480 C.3    93  THR93       0.1897
     95  C         -8.1480  -37.9410  -25.3510 C.2    93  THR93       0.2313
     96  O         -8.8370  -37.4860  -26.2660 O.2    93  THR93      -0.2863
     97  CB        -6.8630  -36.5030  -23.7700 C.3    93  THR93       0.1794
     98  OG1       -7.9340  -35.5500  -23.9050 O.3    93  THR93      -0.2208
     99  CG2       -5.5520  -35.7750  -23.4980 C.3    93  THR93       0.0378
    100  N         -7.0250  -40.2090  -17.8900 N.3   119  GLY119     -0.1225
    101  CA        -6.4850  -39.7390  -19.1480 C.3   119  GLY119      0.1811
    102  C         -6.6560  -38.2530  -19.3900 C.2   119  GLY119      0.2280
    103  O         -6.3270  -37.7700  -20.4760 O.2   119  GLY119     -0.2866
    104  N         -5.4610  -35.7460  -17.1170 N.3   121  GLY121     -0.1210
    105  CA        -4.5880  -35.0010  -16.2270 C.3   121  GLY121      0.1956
    106  C         -4.1840  -33.6230  -16.7310 C.2   121  GLY121      0.2611
    107  O         -3.9300  -32.7290  -15.9270 O.2   121  GLY121     -0.2717
    108  N         -4.1300  -33.4460  -18.0490 N.am  122  PHE122     -0.1976
    109  CA        -3.7670  -32.1490  -18.6200 C.3   122  PHE122      0.1639
    110  C         -4.5760  -31.0140  -18.0100 C.2   122  PHE122      0.2290
    111  O         -4.0420  -29.9510  -17.6930 O.2   122  PHE122     -0.2864
    112  CB        -3.9770  -32.1280  -20.1400 C.3   122  PHE122      0.0560
    113  CG        -3.9510  -30.7360  -20.7220 C.ar  122  PHE122     -0.0200
    114  CD1       -2.7640  -30.0250  -20.7810 C.ar  122  PHE122     -0.0042
    115  CD2       -5.1150  -30.1280  -21.1750 C.ar  122  PHE122     -0.0042
    116  CE1       -2.7310  -28.7240  -21.2990 C.ar  122  PHE122     -0.0003
    117  CE2       -5.0920  -28.8320  -21.6850 C.ar  122  PHE122     -0.0003
    118  CZ        -3.9020  -28.1330  -21.7530 C.ar  122  PHE122     -0.0000
    119  N         -0.5250  -24.3320  -25.6510 N.3   134  VAL134     -0.1245
    120  CA         0.1450  -25.5750  -25.9990 C.3   134  VAL134      0.1561
    121  C          0.6790  -25.4410  -27.4170 C.2   134  VAL134      0.2260
    122  O         -0.0980  -25.3500  -28.3790 O.2   134  VAL134     -0.2867
    123  CB        -0.8100  -26.7870  -25.9110 C.3   134  VAL134      0.0252
    124  CG1       -0.0930  -28.0660  -26.3710 C.3   134  VAL134      0.0019
    125  CG2       -1.3650  -26.9470  -24.4850 C.3   134  VAL134      0.0019
    126  N          6.3940  -30.9650  -27.6260 N.3   168  THR168     -0.1218
    127  CA         5.2900  -30.1690  -27.1060 C.3   168  THR168      0.1862
    128  C          5.7870  -29.2340  -26.0230 C.2   168  THR168      0.2287
    129  O          6.6350  -29.5970  -25.2010 O.2   168  THR168     -0.2866
    130  CB         4.1900  -31.1010  -26.5570 C.3   168  THR168      0.1770
    131  OG1        3.7020  -31.9110  -27.6350 O.3   168  THR168     -0.2211
    132  CG2        3.0120  -30.3190  -25.9680 C.3   168  THR168      0.0375
    133  N          4.1350  -26.7260  -23.1060 N.3   170  VAL170     -0.1245
    134  CA         2.9320  -26.2830  -22.4050 C.3   170  VAL170      0.1561
    135  C          3.3070  -25.0480  -21.5970 C.2   170  VAL170      0.2260
    136  O          4.1640  -25.1120  -20.7220 O.2   170  VAL170     -0.2867
    137  CB         2.3880  -27.3710  -21.4600 C.3   170  VAL170      0.0252
    138  CG1        1.1680  -26.8390  -20.6730 C.3   170  VAL170      0.0019
    139  CG2        1.9970  -28.6220  -22.2470 C.3   170  VAL170      0.0019
@<TRIPOS>BOND
     1    73    74    1
     2    68    67    2
     3    67    66    1
     4    80    78   ar
     5    79    78   ar
     6    78    77    1
     7    60    58    1
     8    56    55    2
     9    74    77    1
    10    74    75    1
    11    58    57    1
    12    66    65    1
    13    66    69    1
    14    65    63   am
    15    75    76    2
    16    64    63    2
    17    63    62    1
    18    55    54    1
    19    55    61   am
    20    44    43    1
    21    43    42    1
    22    69    70    1
    23    62    61    1
    24    54    57    1
    25    54    53    1
    26    57    59    1
    27    39    38    2
    28    42    41    1
    29    41    40    1
    30    70    71    1
    31    38    37    1
    32   122   121    2
    33    40    37    1
    34    90    89    1
    35    90    91    1
    36    71    72    1
    37    89    83   am
    38    37    36    1
    39   131   130    1
    40   126   127    1
    41    81    82    1
    42   121   120    1
    43    82    83    1
    44    82    85    1
    45    83    84    2
    46   127   130    1
    47   127   128    1
    48    34    33    2
    49    91    92    2
    50    91    93   am
    51   130   132    1
    52    48    47    2
    53   124   123    1
    54    96    95    2
    55    93    94    1
    56    86    85    1
    57    86    88    1
    58    86    87    1
    59   128   129    2
    60   120   123    1
    61   120   119    1
    62   123   125    1
    63    33    32    1
    64    35    32    1
    65    47    46    1
    66    32    31    1
    67    51    50   ar
    68    95    94    1
    69    94    97    1
    70    26    25    2
    71    50    52   ar
    72    50    49    1
    73    31    25   am
    74    46    45    1
    75    46    49    1
    76    98    97    1
    77    25    24    1
    78    97    99    1
    79   133   134    1
    80    20    19    2
    81   134   135    1
    82   134   137    1
    83    24    27    1
    84    24    23    1
    85   139   137    1
    86    12    11    2
    87    27    28    1
    88   118   117   ar
    89   118   116   ar
    90   117   115   ar
    91    19    18    1
    92   135   136    2
    93    18    21    1
    94    18    17    1
    95   137   138    1
    96   116   114   ar
    97    11    17   am
    98    11    10    1
    99   115   113   ar
   100    22    21    1
   101    28    30   ar
   102    28    29   ar
   103   114   113   ar
   104   113   112    1
   105    13    10    1
   106    13    14    1
   107   103   102    2
   108    10     9    1
   109    16    14   am
   110   112   109    1
   111    14    15    2
   112   102   101    1
   113   101   100    1
   114     4     3    2
   115   109   108    1
   116   109   110    1
   117     8     6    1
   118   108   106   am
   119   110   111    2
   120     3     2    1
   121     2     5    1
   122     2     1    1
   123     5     6    1
   124   104   105    1
   125     6     7    1
   126   106   105    1
   127   106   107    2
