@<TRIPOS>MOLECULE
tmp/4lwpA00.pdb
 164 154 0 0 0
SMALL
GASTEIGER

@<TRIPOS>ATOM
      1  N        -18.7510   30.5210  -18.9050 N.3     6  HIS6       -0.1241
      2  CA       -19.9930   30.3520  -18.1490 C.3     6  HIS6        0.1621
      3  C        -19.6910   30.0780  -16.6880 C.2     6  HIS6        0.2264
      4  O        -20.4220   30.5260  -15.8050 O.2     6  HIS6       -0.2867
      5  CB       -20.8560   29.2400  -18.7540 C.3     6  HIS6        0.0745
      6  CG       -21.5450   29.6570  -20.0210 C.ar    6  HIS6        0.0817
      7  ND1      -22.8260   30.1650  -20.0380 N.ar    6  HIS6       -0.2268
      8  CD2      -21.1080   29.7000  -21.3010 C.ar    6  HIS6        0.1154
      9  CE1      -23.1540   30.4850  -21.2780 C.ar    6  HIS6        0.1986
     10  NE2      -22.1310   30.2120  -22.0650 N.ar    6  HIS6       -0.2212
     11  N        -19.2640   33.2760  -14.9290 N.3     9  MET9       -0.1230
     12  CA       -20.5460   33.9090  -14.6340 C.3     9  MET9        0.1702
     13  C        -21.2640   33.1980  -13.4920 C.2     9  MET9        0.2592
     14  O        -21.9510   33.8320  -12.6970 O.2     9  MET9       -0.2718
     15  CB       -21.4250   33.9220  -15.8910 C.3     9  MET9        0.0401
     16  CG       -20.8760   34.7840  -17.0250 C.3     9  MET9        0.0596
     17  SD       -21.9900   34.8820  -18.4530 S.3     9  MET9       -0.1393
     18  CE       -22.2210   33.1520  -18.8110 C.3     9  MET9        0.0692
     19  N        -21.0870   31.8850  -13.3920 N.am   10  LEU10      -0.1980
     20  CA       -21.7060   31.1270  -12.3080 C.3    10  LEU10       0.1596
     21  C        -21.0070   31.3380  -10.9720 C.2    10  LEU10       0.2287
     22  O        -21.6290   31.1580   -9.9270 O.2    10  LEU10      -0.2864
     23  CB       -21.7000   29.6380  -12.6280 C.3    10  LEU10       0.0297
     24  CG       -22.5420   29.1960  -13.8170 C.3    10  LEU10       0.0022
     25  CD1      -22.2050   27.7550  -14.1570 C.3    10  LEU10       0.0001
     26  CD2      -24.0100   29.3540  -13.4560 C.3    10  LEU10       0.0001
     27  N        -24.0900   38.2800   -9.0450 N.3    15  ARG15      -0.1245
     28  CA       -24.9140   38.0170  -10.2100 C.3    15  ARG15       0.1563
     29  C        -25.8950   36.8920   -9.9140 C.2    15  ARG15       0.2260
     30  O        -27.1050   37.0340  -10.1010 O.2    15  ARG15      -0.2867
     31  CB       -24.0310   37.6590  -11.4000 C.3    15  ARG15       0.0307
     32  CG       -24.7500   37.5880  -12.7230 C.3    15  ARG15       0.0489
     33  CD       -23.9010   36.9200  -13.8030 C.3    15  ARG15       0.2205
     34  NE       -23.9970   35.4570  -13.7220 N.pl3  15  ARG15      -0.0865
     35  CZ       -24.7400   34.7090  -14.5380 C.cat  15  ARG15       0.5346
     36  NH1      -25.4550   35.2850  -15.5090 N.pl3  15  ARG15       0.1354
     37  NH2      -24.7760   33.3900  -14.3760 N.pl3  15  ARG15       0.1354
     38  N        -36.5680   31.9000  -21.2000 N.3    36  ASP36      -0.1239
     39  CA       -35.1980   32.2640  -20.8490 C.3    36  ASP36       0.1674
     40  C        -34.4130   32.5440  -22.1340 C.2    36  ASP36       0.2266
     41  O        -34.1540   31.6430  -22.9340 O.2    36  ASP36      -0.2867
     42  CB       -34.5560   31.1520  -20.0040 C.3    36  ASP36       0.1410
     43  CG       -33.1590   31.5030  -19.5010 C.2    36  ASP36       0.3668
     44  OD1      -32.6690   32.6480  -19.7310 O.co2  36  ASP36      -0.2456
     45  OD2      -32.5370   30.6160  -18.8560 O.co2  36  ASP36      -0.2456
     46  N        -31.1640   33.3940  -24.0510 N.3    38  GLY38      -0.1210
     47  CA       -29.7240   33.2550  -23.8690 C.3    38  GLY38       0.1956
     48  C        -29.3880   32.4950  -22.6000 C.2    38  GLY38       0.2613
     49  O        -28.6510   32.9720  -21.7360 O.2    38  GLY38      -0.2717
     50  N        -29.9320   31.2920  -22.5100 N.am   39  SER39      -0.1938
     51  CA       -29.9480   30.5090  -21.2840 C.3    39  SER39       0.2055
     52  C        -28.6130   29.8340  -20.9050 C.2    39  SER39       0.2644
     53  O        -28.4460   29.4060  -19.7570 O.2    39  SER39      -0.2714
     54  CB       -31.0510   29.4560  -21.3890 C.3    39  SER39       0.2130
     55  OG       -30.8670   28.6570  -22.5480 O.3    39  SER39      -0.2179
     56  N        -27.7030   29.6980  -21.8710 N.am   40  GLY40      -0.1939
     57  CA       -26.3750   29.1630  -21.6050 C.3    40  GLY40       0.2014
     58  C        -26.3850   27.7890  -20.9620 C.2    40  GLY40       0.2639
     59  O        -26.7270   26.8050  -21.6090 O.2    40  GLY40      -0.2714
     60  N        -26.0260   27.7250  -19.6860 N.am   41  THR41      -0.1950
     61  CA       -26.0560   26.4690  -18.9500 C.3    41  THR41       0.1897
     62  C        -27.4840   26.1100  -18.5370 C.2    41  THR41       0.2313
     63  O        -27.7310   25.0040  -18.0470 O.2    41  THR41      -0.2863
     64  CB       -25.1540   26.5060  -17.7050 C.3    41  THR41       0.1794
     65  OG1      -25.6140   27.5210  -16.8050 O.3    41  THR41      -0.2208
     66  CG2      -23.6770   26.7540  -18.1100 C.3    41  THR41       0.0378
     67  N        -29.1870   27.6380  -16.1700 N.3    43  ILE43      -0.1231
     68  CA       -29.3710   27.9050  -14.7490 C.3    43  ILE43       0.1692
     69  C        -30.6690   28.6780  -14.4280 C.2    43  ILE43       0.2591
     70  O        -31.4450   28.2540  -13.5670 O.2    43  ILE43      -0.2718
     71  CB       -28.1410   28.6590  -14.1920 C.3    43  ILE43       0.0266
     72  CG1      -28.3350   28.9900  -12.7180 C.3    43  ILE43       0.0019
     73  CG2      -27.8560   29.9220  -14.9840 C.3    43  ILE43       0.0020
     74  CD1      -28.3520   27.7850  -11.8510 C.3    43  ILE43       0.0001
     75  N        -30.9320   29.7750  -15.1370 N.am   44  LEU44      -0.1980
     76  CA       -32.1620   30.5390  -14.9070 C.3    44  LEU44       0.1596
     77  C        -33.4120   29.7520  -15.2850 C.2    44  LEU44       0.2287
     78  O        -34.4340   29.8580  -14.6060 O.2    44  LEU44      -0.2864
     79  CB       -32.1590   31.8710  -15.6710 C.3    44  LEU44       0.0297
     80  CG       -31.3840   33.1040  -15.1900 C.3    44  LEU44       0.0022
     81  CD1      -30.2140   32.7890  -14.3310 C.3    44  LEU44       0.0001
     82  CD2      -30.9780   33.9720  -16.3830 C.3    44  LEU44       0.0001
     83  N        -33.8360   29.2850  -24.5170 N.3    59  ILE59      -0.1231
     84  CA       -33.3130   29.6080  -25.8240 C.3    59  ILE59       0.1692
     85  C        -31.8090   29.8490  -25.7530 C.2    59  ILE59       0.2592
     86  O        -31.3480   30.7110  -24.9900 O.2    59  ILE59      -0.2718
     87  CB       -34.0010   30.8480  -26.4020 C.3    59  ILE59       0.0266
     88  CG1      -35.5230   30.6710  -26.4220 C.3    59  ILE59       0.0019
     89  CG2      -33.4810   31.1600  -27.8100 C.3    59  ILE59       0.0020
     90  CD1      -36.2510   31.9060  -26.9300 C.3    59  ILE59       0.0001
     91  N        -31.0540   29.0790  -26.5300 N.am   60  GLU60      -0.1966
     92  CA       -29.5950   29.2000  -26.5730 C.3    60  GLU60       0.1733
     93  C        -29.0700   28.8310  -27.9470 C.2    60  GLU60       0.2616
     94  O        -29.3080   27.7230  -28.4160 O.2    60  GLU60      -0.2715
     95  CB       -28.9440   28.3070  -25.5000 C.3    60  GLU60       0.0429
     96  CG       -27.4530   28.1540  -25.6590 C.3    60  GLU60       0.1163
     97  CD       -26.7220   29.4730  -25.5660 C.2    60  GLU60       0.3649
     98  OE1      -25.9130   29.7710  -26.4790 O.co2  60  GLU60      -0.2457
     99  OE2      -26.9630   30.2230  -24.5880 O.co2  60  GLU60      -0.2457
    100  N        -28.3550   29.7540  -28.5820 N.am   61  ALA61      -0.1963
    101  CA       -27.8920   29.5720  -29.9610 C.3    61  ALA61       0.1728
    102  C        -26.6860   28.6580  -30.0830 C.2    61  ALA61       0.2616
    103  O        -26.4850   28.0330  -31.1250 O.2    61  ALA61      -0.2715
    104  CB       -27.5280   30.9110  -30.5740 C.3    61  ALA61       0.0334
    105  N        -25.8750   28.5880  -29.0300 N.am   62  SER62      -0.1950
    106  CA       -24.5940   27.9070  -29.1490 C.3    62  SER62       0.1924
    107  C        -24.7680   26.4250  -28.9240 C.2    62  SER62       0.2314
    108  O        -25.8810   25.9450  -28.6860 O.2    62  SER62      -0.2863
    109  CB       -23.5690   28.4600  -28.1650 C.3    62  SER62       0.2116
    110  OG       -23.8150   27.9050  -26.8970 O.3    62  SER62      -0.2180
    111  N        -31.3150   27.5570  -30.9940 N.3    86  ASP86      -0.1225
    112  CA       -31.2690   28.4180  -32.1730 C.3    86  ASP86       0.1805
    113  C        -31.1680   29.8760  -31.7140 C.2    86  ASP86       0.2598
    114  O        -31.3810   30.1710  -30.5240 O.2    86  ASP86      -0.2718
    115  CB       -32.4960   28.1900  -33.0730 C.3    86  ASP86       0.1424
    116  CG       -32.1950   28.4410  -34.5530 C.2    86  ASP86       0.3668
    117  OD1      -31.1480   29.0470  -34.8860 O.co2  86  ASP86      -0.2456
    118  OD2      -33.0020   28.0160  -35.4020 O.co2  86  ASP86      -0.2456
    119  N        -30.8610   30.7890  -32.6320 N.am   87  THR87      -0.1939
    120  CA       -30.8560   32.1830  -32.2390 C.3    87  THR87       0.2028
    121  C        -32.2840   32.6160  -31.9950 C.2    87  THR87       0.2642
    122  O        -33.2130   32.0410  -32.5530 O.2    87  THR87      -0.2714
    123  CB       -30.2220   33.1010  -33.2980 C.3    87  THR87       0.1808
    124  OG1      -30.9740   32.9980  -34.5080 O.3    87  THR87      -0.2208
    125  CG2      -28.7440   32.7130  -33.5760 C.3    87  THR87       0.0379
    126  N        -32.4500   33.6190  -31.1400 N.am   88  VAL88      -0.1963
    127  CA       -33.7300   34.3030  -30.9870 C.3    88  VAL88       0.1727
    128  C        -34.2730   34.7110  -32.3490 C.2    88  VAL88       0.2616
    129  O        -35.4480   34.5290  -32.6460 O.2    88  VAL88      -0.2715
    130  CB       -33.5940   35.5670  -30.1060 C.3    88  VAL88       0.0290
    131  CG1      -34.7970   36.5050  -30.2940 C.3    88  VAL88       0.0023
    132  CG2      -33.4430   35.1770  -28.6590 C.3    88  VAL88       0.0023
    133  N        -33.4030   35.2630  -33.1790 N.am   89  GLU89      -0.1977
    134  CA       -33.8220   35.8350  -34.4460 C.3    89  GLU89       0.1602
    135  C        -34.3490   34.7830  -35.4220 C.2    89  GLU89       0.2287
    136  O        -35.3320   35.0320  -36.1360 O.2    89  GLU89      -0.2864
    137  CB       -32.6590   36.6010  -35.0450 C.3    89  GLU89       0.0415
    138  CG       -32.2890   37.8770  -34.2670 C.3    89  GLU89       0.1163
    139  CD       -31.5890   37.6160  -32.9260 C.2    89  GLU89       0.3649
    140  OE1      -31.1690   36.4590  -32.6600 O.co2  89  GLU89      -0.2457
    141  OE2      -31.4350   38.5870  -32.1470 O.co2  89  GLU89      -0.2457
    142  N        -30.0970   37.3610  -19.0450 N.3   118  GLU118     -0.1245
    143  CA       -28.9360   38.0290  -18.5040 C.3   118  GLU118      0.1567
    144  C        -28.1030   38.5210  -19.6740 C.2   118  GLU118      0.2260
    145  O        -27.2370   37.8130  -20.1950 O.2   118  GLU118     -0.2867
    146  CB       -28.1650   37.0880  -17.5900 C.3   118  GLU118      0.0388
    147  CG       -27.3270   37.8030  -16.5690 C.3   118  GLU118      0.1160
    148  CD       -26.0930   38.3830  -17.1730 C.2   118  GLU118      0.3649
    149  OE1      -26.1770   39.5160  -17.7150 O.co2 118  GLU118     -0.2457
    150  OE2      -25.0450   37.6970  -17.1250 O.co2 118  GLU118     -0.2457
    151  N        -26.3160   41.6850  -25.2330 N.3   129  MET129     -0.1245
    152  CA       -27.2450   41.1360  -26.1900 C.3   129  MET129      0.1570
    153  C        -28.6130   41.8090  -26.0390 C.2   129  MET129      0.2261
    154  O        -29.6380   41.2210  -26.3800 O.2   129  MET129     -0.2867
    155  CB       -27.3560   39.6120  -26.0580 C.3   129  MET129      0.0387
    156  CG       -27.6520   39.0870  -24.6690 C.3   129  MET129      0.0595
    157  SD       -27.7800   37.2650  -24.6260 S.3   129  MET129     -0.1393
    158  CE       -29.4380   37.0470  -25.3100 C.3   129  MET129      0.0692
    159  N        -31.2150   41.4930  -28.8560 N.3   132  SER132     -0.1217
    160  CA       -31.9160   40.2110  -28.9890 C.3   132  SER132      0.1889
    161  C        -33.0170   40.0470  -27.9380 C.2   132  SER132      0.2288
    162  O        -34.0300   39.3980  -28.2030 O.2   132  SER132     -0.2866
    163  CB       -30.9390   39.0330  -28.8930 C.3   132  SER132      0.2089
    164  OG       -30.0330   39.0110  -29.9980 O.3   132  SER132     -0.2183
@<TRIPOS>BOND
     1   136   135    2
     2   135   134    1
     3   118   116   ar
     4   137   134    1
     5   137   138    1
     6   117   116   ar
     7   116   115    1
     8   124   123    1
     9   134   133    1
    10   138   139    1
    11   125   123    1
    12   123   120    1
    13   133   128   am
    14   115   112    1
    15   139   140   ar
    16   139   141   ar
    17   129   128    2
    18   119   120    1
    19   119   113   am
    20   122   121    2
    21   128   127    1
    22   120   121    1
    23   112   113    1
    24   112   111    1
    25   121   126   am
    26   113   114    2
    27   126   127    1
    28   103   102    2
    29   127   130    1
    30   104   101    1
    31   131   130    1
    32   130   132    1
    33   102   101    1
    34   102   105   am
    35   164   163    1
    36   101   100    1
    37   106   105    1
    38   106   107    1
    39   106   109    1
    40   160   163    1
    41   160   159    1
    42   160   161    1
    43   107   108    2
    44   100    93   am
    45    94    93    2
    46   162   161    2
    47   109   110    1
    48    93    92    1
    49    89    87    1
    50    90    88    1
    51    92    91    1
    52    92    95    1
    53    91    85   am
    54    98    97   ar
    55    88    87    1
    56    87    84    1
    57   154   153    2
    58   152   155    1
    59   152   153    1
    60   152   151    1
    61   155   156    1
    62    84    85    1
    63    84    83    1
    64    85    86    2
    65    96    97    1
    66    96    95    1
    67    97    99   ar
    68   158   157    1
    69   156   157    1
    70    46    47    1
    71    47    48    1
    72    41    40    2
    73    48    50   am
    74    48    49    2
    75    55    54    1
    76    50    51    1
    77    40    39    1
    78    10     8   ar
    79    10     9   ar
    80    56    57    1
    81    56    52   am
    82    59    58    2
    83    57    58    1
    84    54    51    1
    85     8     6   ar
    86    51    52    1
    87     9     7   ar
    88    38    39    1
    89    58    60   am
    90    52    53    2
    91    39    42    1
    92   145   144    2
    93     7     6   ar
    94     6     5    1
    95    42    43    1
    96    44    43   ar
    97    60    61    1
    98   144   143    1
    99    43    45   ar
   100   142   143    1
   101    61    62    1
   102    61    64    1
   103     1     2    1
   104    18    17    1
   105     5     2    1
   106    62    63    2
   107   143   146    1
   108    17    16    1
   109     2     3    1
   110    66    64    1
   111   149   148   ar
   112    64    65    1
   113   146   147    1
   114   148   150   ar
   115   148   147    1
   116    16    15    1
   117     3     4    2
   118    82    80    1
   119    67    68    1
   120    15    12    1
   121    79    80    1
   122    79    76    1
   123    36    35    1
   124    77    76    1
   125    77    78    2
   126    80    81    1
   127    75    76    1
   128    75    69   am
   129    73    71    1
   130    11    12    1
   131    68    69    1
   132    68    71    1
   133    12    13    1
   134    35    37    1
   135    35    34    2
   136    69    70    2
   137    71    72    1
   138    25    24    1
   139    24    26    1
   140    24    23    1
   141    33    34    1
   142    33    32    1
   143    13    19   am
   144    13    14    2
   145    19    20    1
   146    32    31    1
   147    72    74    1
   148    23    20    1
   149    20    21    1
   150    31    28    1
   151    21    22    2
   152    28    29    1
   153    28    27    1
   154    30    29    2
