@<TRIPOS>MOLECULE
tmp/4lwtA00.pdb
 137 133 0 0 0
SMALL
GASTEIGER

@<TRIPOS>ATOM
      1  N          8.6710    9.7590   28.3050 N.3    31  LEU31      -0.1231
      2  CA         9.5450    9.9260   29.4610 C.3    31  LEU31       0.1693
      3  C          9.9070    8.5730   30.0660 C.2    31  LEU31       0.2592
      4  O         11.0510    8.3540   30.4830 O.2    31  LEU31      -0.2718
      5  CB         8.8560   10.8100   30.5040 C.3    31  LEU31       0.0284
      6  CG         8.8160   12.2910   30.1210 C.3    31  LEU31       0.0019
      7  CD1        7.7610   13.0320   30.9410 C.3    31  LEU31       0.0001
      8  CD2       10.2050   12.8820   30.3280 C.3    31  LEU31       0.0001
      9  N          8.9440    7.6550   30.0940 N.am   32  TYR32      -0.1976
     10  CA         9.2220    6.3170   30.6050 C.3    32  TYR32       0.1639
     11  C         10.3120    5.6290   29.7860 C.2    32  TYR32       0.2290
     12  O         11.2820    5.1080   30.3380 O.2    32  TYR32      -0.2864
     13  CB         7.9530    5.4550   30.5980 C.3    32  TYR32       0.0560
     14  CG         8.2280    4.0320   31.0360 C.ar   32  TYR32      -0.0198
     15  CD1        8.3990    3.7240   32.3810 C.ar   32  TYR32      -0.0009
     16  CD2        8.3970    3.0180   30.1050 C.ar   32  TYR32      -0.0009
     17  CE1        8.7400    2.4440   32.7820 C.ar   32  TYR32       0.0417
     18  CE2        8.7380    1.7380   30.4960 C.ar   32  TYR32       0.0417
     19  CZ         8.9110    1.4590   31.8370 C.ar   32  TYR32       0.1957
     20  OH         9.2830    0.1920   32.2270 O.3    32  TYR32      -0.2866
     21  N         12.5100    6.9410   27.7930 N.3    34  LEU34      -0.1231
     22  CA        13.7800    7.6480   27.9360 C.3    34  LEU34       0.1693
     23  C         14.4720    7.2860   29.2470 C.2    34  LEU34       0.2593
     24  O         15.6940    7.1400   29.2920 O.2    34  LEU34      -0.2718
     25  CB        13.5610    9.1620   27.8680 C.3    34  LEU34       0.0284
     26  CG        13.5410    9.7460   26.4560 C.3    34  LEU34       0.0019
     27  CD1       13.1280   11.2060   26.5050 C.3    34  LEU34       0.0001
     28  CD2       14.9230    9.5990   25.8350 C.3    34  LEU34       0.0001
     29  N         13.6880    7.1470   30.3110 N.am   35  GLY35      -0.1942
     30  CA        14.2390    6.7090   31.5820 C.3    35  GLY35       0.2014
     31  C         14.8380    5.3160   31.4890 C.2    35  GLY35       0.2638
     32  O         15.8750    5.0340   32.0900 O.2    35  GLY35      -0.2714
     33  N         14.1940    4.4400   30.7270 N.am   36  GLN36      -0.1977
     34  CA        14.7200    3.0940   30.5270 C.3    36  GLN36       0.1601
     35  C         16.0220    3.1260   29.7290 C.2    36  GLN36       0.2287
     36  O         16.9680    2.4040   30.0390 O.2    36  GLN36      -0.2864
     37  CB        13.6820    2.2300   29.8060 C.3    36  GLN36       0.0394
     38  CG        12.4350    1.9650   30.6280 C.3    36  GLN36       0.0908
     39  CD        12.7190    1.1380   31.8720 C.2    36  GLN36       0.2608
     40  OE1       13.0250   -0.0510   31.7790 O.2    36  GLN36      -0.2717
     41  NE2       12.6250    1.7650   33.0380 N.am   36  GLN36      -0.0878
     42  N         18.2100    5.6400   29.5670 N.3    38  ILE38      -0.1231
     43  CA        19.2450    6.2170   30.4160 C.3    38  ILE38       0.1692
     44  C         19.7850    5.1910   31.4020 C.2    38  ILE38       0.2591
     45  O         20.9950    5.0960   31.6130 O.2    38  ILE38      -0.2718
     46  CB        18.6950    7.4380   31.1730 C.3    38  ILE38       0.0266
     47  CG1       18.4900    8.5910   30.1840 C.3    38  ILE38       0.0019
     48  CG2       19.6290    7.8210   32.3100 C.3    38  ILE38       0.0020
     49  CD1       17.6410    9.7270   30.7180 C.3    38  ILE38       0.0001
     50  N         18.8870    4.4080   31.9890 N.am   39  MET39      -0.1979
     51  CA        19.2940    3.3520   32.9070 C.3    39  MET39       0.1605
     52  C         20.0590    2.2500   32.1760 C.2    39  MET39       0.2287
     53  O         21.0880    1.7740   32.6570 O.2    39  MET39      -0.2864
     54  CB        18.0630    2.7610   33.5930 C.3    39  MET39       0.0413
     55  CG        18.3800    1.6980   34.6180 C.3    39  MET39       0.0598
     56  SD        16.8960    1.1700   35.4720 S.3    39  MET39      -0.1393
     57  CE        16.3720    2.7130   36.2190 C.3    39  MET39       0.0692
     58  N         23.5140    7.5990   34.4270 N.3    44  TYR44      -0.1241
     59  CA        23.4300    8.3010   35.7030 C.3    44  TYR44       0.1605
     60  C         24.7990    8.4680   36.3370 C.2    44  TYR44       0.2264
     61  O         25.6350    7.5660   36.2850 O.2    44  TYR44      -0.2867
     62  CB        22.5180    7.5540   36.6820 C.3    44  TYR44       0.0534
     63  CG        21.0480    7.6670   36.3580 C.ar   44  TYR44      -0.0201
     64  CD1       20.3280    6.5640   35.9220 C.ar   44  TYR44      -0.0009
     65  CD2       20.3770    8.8760   36.4940 C.ar   44  TYR44      -0.0009
     66  CE1       18.9850    6.6580   35.6300 C.ar   44  TYR44       0.0417
     67  CE2       19.0320    8.9810   36.2040 C.ar   44  TYR44       0.0417
     68  CZ        18.3430    7.8690   35.7710 C.ar   44  TYR44       0.1957
     69  OH        17.0090    7.9650   35.4670 O.3    44  TYR44      -0.2866
     70  N         23.0150   11.1200   41.8610 N.3    49  GLN49      -0.1245
     71  CA        22.1800   10.2700   41.0260 C.3    49  GLN49       0.1566
     72  C         21.1170   11.0210   40.2330 C.2    49  GLN49       0.2260
     73  O         20.4290   10.4240   39.4100 O.2    49  GLN49      -0.2867
     74  CB        21.5170    9.1920   41.8840 C.3    49  GLN49       0.0367
     75  CG        22.5000    8.2250   42.5210 C.3    49  GLN49       0.0905
     76  CD        21.8230    7.2440   43.4560 C.2    49  GLN49       0.2608
     77  OE1       21.3920    6.1700   43.0390 O.2    49  GLN49      -0.2717
     78  NE2       21.7250    7.6110   44.7290 N.am   49  GLN49      -0.0878
     79  N         19.5990   15.9480   22.6930 N.3    63  PHE63      -0.1241
     80  CA        19.1050   16.9780   23.5970 C.3    63  PHE63       0.1605
     81  C         19.8950   18.2750   23.4540 C.2    63  PHE63       0.2264
     82  O         19.4110   19.3480   23.8140 O.2    63  PHE63      -0.2867
     83  CB        19.1790   16.4860   25.0460 C.3    63  PHE63       0.0534
     84  CG        18.0140   15.6220   25.4650 C.ar   63  PHE63      -0.0203
     85  CD1       17.0690   15.1980   24.5440 C.ar   63  PHE63      -0.0042
     86  CD2       17.8520   15.2610   26.7950 C.ar   63  PHE63      -0.0042
     87  CE1       15.9820   14.4310   24.9410 C.ar   63  PHE63      -0.0003
     88  CE2       16.7670   14.4940   27.1980 C.ar   63  PHE63      -0.0003
     89  CZ        15.8320   14.0800   26.2680 C.ar   63  PHE63      -0.0000
     90  N         22.4230   16.8170   32.0970 N.3    68  PHE68      -0.1241
     91  CA        21.2470   17.4660   32.6560 C.3    68  PHE68       0.1605
     92  C         20.8100   16.7860   33.9390 C.2    68  PHE68       0.2264
     93  O         21.2450   15.6760   34.2570 O.2    68  PHE68      -0.2867
     94  CB        20.0870   17.4760   31.6420 C.3    68  PHE68       0.0534
     95  CG        19.5140   16.1150   31.3390 C.ar   68  PHE68      -0.0203
     96  CD1       18.4090   15.6400   32.0310 C.ar   68  PHE68      -0.0042
     97  CD2       20.0600   15.3280   30.3400 C.ar   68  PHE68      -0.0042
     98  CE1       17.8610   14.4040   31.7300 C.ar   68  PHE68      -0.0003
     99  CE2       19.5200   14.0910   30.0310 C.ar   68  PHE68      -0.0003
    100  CZ        18.4200   13.6300   30.7270 C.ar   68  PHE68      -0.0000
    101  N         17.6770   15.3020   36.3250 N.3    70  VAL70      -0.1245
    102  CA        16.3340   14.7380   36.2050 C.3    70  VAL70       0.1561
    103  C         15.3130   15.5430   36.9970 C.2    70  VAL70       0.2260
    104  O         14.1090   15.3180   36.8810 O.2    70  VAL70      -0.2867
    105  CB        16.2910   13.2760   36.6860 C.3    70  VAL70       0.0252
    106  CG1       17.2680   12.4440   35.8710 C.3    70  VAL70       0.0019
    107  CG2       16.6340   13.1950   38.1680 C.3    70  VAL70       0.0019
    108  N         12.4880   19.4470   35.2000 N.3    73  HIS73      -0.1241
    109  CA        11.4420   18.8680   34.3700 C.3    73  HIS73       0.1621
    110  C         11.0450   19.7400   33.1870 C.2    73  HIS73       0.2264
    111  O         10.7570   19.2300   32.1060 O.2    73  HIS73      -0.2867
    112  CB        10.2150   18.5530   35.2260 C.3    73  HIS73       0.0745
    113  CG        10.4110   17.3890   36.1470 C.ar   73  HIS73       0.0817
    114  ND1        9.3650   16.6320   36.6250 N.ar   73  HIS73      -0.2268
    115  CD2       11.5390   16.8290   36.6450 C.ar   73  HIS73       0.1154
    116  CE1        9.8380   15.6520   37.3750 C.ar   73  HIS73       0.1986
    117  NE2       11.1550   15.7490   37.4020 N.ar   73  HIS73      -0.2212
    118  N         13.6760   19.2340   30.5460 N.3    76  ILE76      -0.1231
    119  CA        13.5680   17.9390   29.8880 C.3    76  ILE76       0.1692
    120  C         12.4120   17.9170   28.8910 C.2    76  ILE76       0.2592
    121  O         12.5340   17.3550   27.8040 O.2    76  ILE76      -0.2718
    122  CB        13.3830   16.8110   30.9250 C.3    76  ILE76       0.0266
    123  CG1       14.6810   16.6220   31.7170 C.3    76  ILE76       0.0019
    124  CG2       12.9700   15.5200   30.2320 C.3    76  ILE76       0.0020
    125  CD1       14.5530   15.6500   32.8730 C.3    76  ILE76       0.0001
    126  N         11.2910   18.5330   29.2540 N.am   77  TYR77      -0.1976
    127  CA        10.1770   18.6480   28.3170 C.3    77  TYR77       0.1639
    128  C         10.5640   19.4810   27.1010 C.2    77  TYR77       0.2290
    129  O         10.1600   19.1800   25.9820 O.2    77  TYR77      -0.2864
    130  CB         8.9550   19.2670   29.0080 C.3    77  TYR77       0.0560
    131  CG         8.0210   18.2540   29.6260 C.ar   77  TYR77      -0.0198
    132  CD1        6.7570   18.0340   29.0930 C.ar   77  TYR77      -0.0009
    133  CD2        8.4000   17.5110   30.7380 C.ar   77  TYR77      -0.0009
    134  CE1        5.8960   17.1030   29.6490 C.ar   77  TYR77       0.0417
    135  CE2        7.5420   16.5710   31.3010 C.ar   77  TYR77       0.0417
    136  CZ         6.2940   16.3750   30.7500 C.ar   77  TYR77       0.1957
    137  OH         5.4390   15.4420   31.2900 O.3    77  TYR77      -0.2866
@<TRIPOS>BOND
     1    79    80    1
     2    81    80    1
     3    81    82    2
     4    80    83    1
     5    85    87   ar
     6    85    84   ar
     7    87    89   ar
     8    83    84    1
     9    84    86   ar
    10    28    26    1
    11   129   128    2
    12    89    88   ar
    13    26    27    1
    14    26    25    1
    15    86    88   ar
    16   128   127    1
    17    21    22    1
    18   121   120    2
    19    25    22    1
    20    22    23    1
    21     1     2    1
    22   127   130    1
    23   127   126    1
    24   120   126   am
    25   120   119    1
    26   130   131    1
    27   132   131   ar
    28   132   134   ar
    29    23    24    2
    30    23    29   am
    31     2     3    1
    32     2     5    1
    33    42    43    1
    34   131   133   ar
    35   134   136   ar
    36    35    36    2
    37    35    34    1
    38    11    12    2
    39    11    10    1
    40    37    34    1
    41    37    38    1
    42   119   118    1
    43   119   122    1
    44    99    97   ar
    45    99   100   ar
    46     3     9   am
    47     3     4    2
    48     9    10    1
    49    16    18   ar
    50    16    14   ar
    51     6     8    1
    52     6     5    1
    53     6     7    1
    54    47    49    1
    55    47    46    1
    56   124   122    1
    57    29    30    1
    58    97    95   ar
    59    43    46    1
    60    43    44    1
    61    18    19   ar
    62    34    33    1
    63    13    10    1
    64    13    14    1
    65    38    39    1
    66    33    31   am
    67   100    98   ar
    68   133   135   ar
    69   136   137    1
    70   136   135   ar
    71   122   123    1
    72    14    15   ar
    73    46    48    1
    74    95    94    1
    75    95    96   ar
    76    44    45    2
    77    44    50   am
    78    31    30    1
    79    31    32    2
    80    94    91    1
    81   123   125    1
    82    98    96   ar
    83    40    39    2
    84    19    20    1
    85    19    17   ar
    86    39    41   am
    87    50    51    1
    88    90    91    1
    89   111   110    2
    90    52    53    2
    91    52    51    1
    92    15    17   ar
    93    91    92    1
    94    51    54    1
    95   110   109    1
    96    54    55    1
    97    92    93    2
    98   109   108    1
    99   109   112    1
   100    58    59    1
   101    55    56    1
   102   112   113    1
   103    69    68    1
   104    56    57    1
   105    66    68   ar
   106    66    64   ar
   107    59    60    1
   108    59    62    1
   109    68    67   ar
   110   106   105    1
   111    64    63   ar
   112   113   114   ar
   113   113   115   ar
   114    67    65   ar
   115   102   101    1
   116   102   105    1
   117   102   103    1
   118    61    60    2
   119    63    65   ar
   120    63    62    1
   121   114   116   ar
   122   115   117   ar
   123   105   107    1
   124   104   103    2
   125   116   117   ar
   126    73    72    2
   127    72    71    1
   128    71    70    1
   129    71    74    1
   130    74    75    1
   131    75    76    1
   132    77    76    2
   133    76    78   am
