@<TRIPOS>MOLECULE
tmp/4lwuA00.pdb
 154 149 0 0 0
SMALL
GASTEIGER

@<TRIPOS>ATOM
      1  N         -7.9300   11.6890   -6.6090 N.3    30  LEU30      -0.1231
      2  CA        -8.7230   12.9080   -6.6280 C.3    30  LEU30       0.1693
      3  C         -9.0620   13.3320   -8.0510 C.2    30  LEU30       0.2592
      4  O        -10.1620   13.8240   -8.3120 O.2    30  LEU30      -0.2718
      5  CB        -7.9770   14.0330   -5.9110 C.3    30  LEU30       0.0284
      6  CG        -8.0220   13.9180   -4.3880 C.3    30  LEU30       0.0019
      7  CD1       -6.9280   14.7690   -3.7680 C.3    30  LEU30       0.0001
      8  CD2       -9.3970   14.3340   -3.8910 C.3    30  LEU30       0.0001
      9  N         -8.1280   13.1450   -8.9740 N.am   31  TYR31      -0.1976
     10  CA        -8.3730   13.5410  -10.3520 C.3    31  TYR31       0.1639
     11  C         -9.4720   12.6880  -10.9710 C.2    31  TYR31       0.2290
     12  O        -10.4160   13.2050  -11.5670 O.2    31  TYR31      -0.2864
     13  CB        -7.1010   13.4060  -11.1810 C.3    31  TYR31       0.0560
     14  CG        -7.2830   13.9150  -12.5820 C.ar   31  TYR31      -0.0198
     15  CD1       -7.1490   15.2650  -12.8690 C.ar   31  TYR31      -0.0009
     16  CD2       -7.6150   13.0540  -13.6170 C.ar   31  TYR31      -0.0009
     17  CE1       -7.3420   15.7460  -14.1480 C.ar   31  TYR31       0.0417
     18  CE2       -7.8120   13.5280  -14.9050 C.ar   31  TYR31       0.0417
     19  CZ        -7.6720   14.8750  -15.1600 C.ar   31  TYR31       0.1957
     20  OH        -7.8460   15.3630  -16.4340 O.3    31  TYR31      -0.2866
     21  N        -11.7460   10.8610   -9.4490 N.3    33  LEU33      -0.1231
     22  CA       -13.0210   11.1090   -8.7920 C.3    33  LEU33       0.1693
     23  C        -13.6430   12.4190   -9.2600 C.2    33  LEU33       0.2592
     24  O        -14.8610   12.5180   -9.3720 O.2    33  LEU33      -0.2718
     25  CB       -12.8510   11.1120   -7.2730 C.3    33  LEU33       0.0284
     26  CG       -12.7880    9.7010   -6.6760 C.3    33  LEU33       0.0019
     27  CD1      -12.4870    9.7710   -5.1890 C.3    33  LEU33       0.0001
     28  CD2      -14.1150    8.9910   -6.9210 C.3    33  LEU33       0.0001
     29  N        -12.8150   13.4200   -9.5470 N.am   34  GLY34      -0.1957
     30  CA       -13.3330   14.6480  -10.1260 C.3    34  GLY34       0.1869
     31  C        -13.9880   14.3760  -11.4680 C.2    34  GLY34       0.2309
     32  O        -15.0620   14.9030  -11.7710 O.2    34  GLY34      -0.2863
     33  N        -17.2790   12.6200  -10.8450 N.3    37  ILE37      -0.1231
     34  CA       -18.2770   13.5710  -10.3870 C.3    37  ILE37       0.1692
     35  C        -18.8760   14.3460  -11.5520 C.2    37  ILE37       0.2591
     36  O        -20.0910   14.5500  -11.6150 O.2    37  ILE37      -0.2718
     37  CB       -17.6530   14.5410   -9.3630 C.3    37  ILE37       0.0266
     38  CG1      -17.5000   13.8210   -8.0210 C.3    37  ILE37       0.0019
     39  CG2      -18.4940   15.7980   -9.2270 C.3    37  ILE37       0.0020
     40  CD1      -16.5710   14.5110   -7.0550 C.3    37  ILE37       0.0001
     41  N        -18.0380   14.7670  -12.4910 N.am   38  MET38      -0.1979
     42  CA       -18.5500   15.5140  -13.6300 C.3    38  MET38       0.1605
     43  C        -19.3230   14.6060  -14.5830 C.2    38  MET38       0.2287
     44  O        -20.3530   15.0050  -15.1270 O.2    38  MET38      -0.2864
     45  CB       -17.4070   16.2160  -14.3670 C.3    38  MET38       0.0413
     46  CG       -16.7070   17.2910  -13.5350 C.3    38  MET38       0.0598
     47  SD       -17.8310   18.3870  -12.6090 S.3    38  MET38      -0.1393
     48  CE       -18.6790   19.2340  -13.9390 C.3    38  MET38       0.0692
     49  N        -22.0110   17.7280   -9.7960 N.3    43  TYR43      -0.1241
     50  CA       -21.4710   19.0410   -9.4590 C.3    43  TYR43       0.1605
     51  C        -21.8410   20.0500  -10.5300 C.2    43  TYR43       0.2264
     52  O        -21.6980   19.7860  -11.7220 O.2    43  TYR43      -0.2867
     53  CB       -19.9480   18.9660   -9.3360 C.3    43  TYR43       0.0534
     54  CG       -19.2830   20.2360   -8.8550 C.ar   43  TYR43      -0.0201
     55  CD1      -18.6820   21.1190   -9.7460 C.ar   43  TYR43      -0.0009
     56  CD2      -19.2070   20.5240   -7.5010 C.ar   43  TYR43      -0.0009
     57  CE1      -18.0170   22.2500   -9.2910 C.ar   43  TYR43       0.0417
     58  CE2      -18.5500   21.6420   -7.0410 C.ar   43  TYR43       0.0417
     59  CZ       -17.9550   22.5000   -7.9320 C.ar   43  TYR43       0.1957
     60  OH       -17.2850   23.5950   -7.4340 O.3    43  TYR43      -0.2866
     61  N        -20.5940   25.1480   -4.9370 N.3    49  HIS49      -0.1241
     62  CA       -19.4210   24.2900   -4.7860 C.3    49  HIS49       0.1621
     63  C        -19.7580   22.9950   -4.0460 C.2    49  HIS49       0.2264
     64  O        -18.9160   22.4320   -3.3430 O.2    49  HIS49      -0.2867
     65  CB       -18.3080   25.0420   -4.0460 C.3    49  HIS49       0.0745
     66  CG       -18.1350   26.4600   -4.5000 C.ar   49  HIS49       0.0817
     67  ND1      -17.8420   26.7940   -5.8040 N.ar   49  HIS49      -0.2268
     68  CD2      -18.2370   27.6290   -3.8250 C.ar   49  HIS49       0.1154
     69  CE1      -17.7720   28.1090   -5.9140 C.ar   49  HIS49       0.1986
     70  NE2      -18.0080   28.6390   -4.7280 N.ar   49  HIS49      -0.2212
     71  N        -21.4600    7.0280   -5.2440 N.3    58  LEU58      -0.1245
     72  CA       -20.4470    7.7690   -4.4950 C.3    58  LEU58       0.1561
     73  C        -20.9500    8.1530   -3.1060 C.2    58  LEU58       0.2260
     74  O        -20.1890    8.1530   -2.1340 O.2    58  LEU58      -0.2867
     75  CB       -20.0400    9.0340   -5.2500 C.3    58  LEU58       0.0270
     76  CG       -18.9230    9.8420   -4.5840 C.3    58  LEU58       0.0019
     77  CD1      -17.6630    8.9960   -4.5050 C.3    58  LEU58       0.0001
     78  CD2      -18.6650   11.1150   -5.3720 C.3    58  LEU58       0.0001
     79  N        -18.9610    7.2140    0.4110 N.3    62  PHE62      -0.1241
     80  CA       -18.5770    8.3670    1.2180 C.3    62  PHE62       0.1605
     81  C        -19.4860    8.5240    2.4420 C.2    62  PHE62       0.2264
     82  O        -19.0270    8.9250    3.5110 O.2    62  PHE62      -0.2867
     83  CB       -18.6460    9.6450    0.3750 C.3    62  PHE62       0.0534
     84  CG       -17.4100    9.9190   -0.4430 C.ar   62  PHE62      -0.0203
     85  CD1      -16.4930    8.9190   -0.7270 C.ar   62  PHE62      -0.0042
     86  CD2      -17.1640   11.1980   -0.9220 C.ar   62  PHE62      -0.0042
     87  CE1      -15.3530    9.1950   -1.4750 C.ar   62  PHE62      -0.0003
     88  CE2      -16.0340   11.4780   -1.6660 C.ar   62  PHE62      -0.0003
     89  CZ       -15.1280   10.4780   -1.9420 C.ar   62  PHE62      -0.0000
     90  N        -21.5170   17.0920   -0.1220 N.3    67  PHE67      -0.1241
     91  CA       -20.4040   17.6880    0.5960 C.3    67  PHE67       0.1605
     92  C        -19.8630   18.8380   -0.2300 C.2    67  PHE67       0.2264
     93  O        -20.0720   18.8910   -1.4410 O.2    67  PHE67      -0.2867
     94  CB       -19.3010   16.6540    0.8490 C.3    67  PHE67       0.0534
     95  CG       -18.7160   16.0630   -0.4010 C.ar   67  PHE67      -0.0203
     96  CD1      -17.6240   16.6520   -1.0160 C.ar   67  PHE67      -0.0042
     97  CD2      -19.2470   14.9090   -0.9540 C.ar   67  PHE67      -0.0042
     98  CE1      -17.0740   16.1030   -2.1600 C.ar   67  PHE67      -0.0003
     99  CE2      -18.7020   14.3540   -2.0970 C.ar   67  PHE67      -0.0003
    100  CZ       -17.6130   14.9510   -2.7020 C.ar   67  PHE67      -0.0000
    101  N        -16.8050   20.8350   -1.9850 N.3    69  VAL69      -0.1231
    102  CA       -15.4920   20.5090   -2.5250 C.3    69  VAL69       0.1692
    103  C        -14.3890   21.3230   -1.8620 C.2    69  VAL69       0.2591
    104  O        -13.2120   21.1150   -2.1480 O.2    69  VAL69      -0.2718
    105  CB       -15.4200   20.7280   -4.0550 C.3    69  VAL69       0.0266
    106  CG1      -16.4410   19.8430   -4.7500 C.3    69  VAL69       0.0020
    107  CG2      -15.6550   22.1870   -4.3940 C.3    69  VAL69       0.0020
    108  N        -14.7670   22.2390   -0.9740 N.am   70  LYS70      -0.1980
    109  CA       -13.7900   22.9750   -0.1770 C.3    70  LYS70       0.1596
    110  C        -13.3840   22.2220    1.0900 C.2    70  LYS70       0.2287
    111  O        -12.3890   22.5680    1.7270 O.2    70  LYS70      -0.2864
    112  CB       -14.3440   24.3460    0.2160 C.3    70  LYS70       0.0298
    113  CG       -14.6310   25.2770   -0.9480 C.3    70  LYS70       0.0038
    114  CD       -15.0990   26.6360   -0.4440 C.3    70  LYS70       0.0206
    115  CE       -15.4460   27.5710   -1.5880 C.3    70  LYS70       0.1093
    116  NZ       -15.8650   28.9100   -1.0840 N.3    70  LYS70      -0.1314
    117  N        -11.6100   19.7650    2.2620 N.3    72  HIS72      -0.1241
    118  CA       -10.6130   18.8100    1.8110 C.3    72  HIS72       0.1621
    119  C        -10.2420   17.7490    2.8340 C.2    72  HIS72       0.2264
    120  O        -10.0620   16.5910    2.4720 O.2    72  HIS72      -0.2867
    121  CB        -9.3630   19.5360    1.3240 C.3    72  HIS72       0.0745
    122  CG        -9.5570   20.2280    0.0130 C.ar   72  HIS72       0.0817
    123  ND1       -8.5080   20.6770   -0.7590 N.ar   72  HIS72      -0.2268
    124  CD2      -10.6840   20.5350   -0.6710 C.ar   72  HIS72       0.1154
    125  CE1       -8.9810   21.2300   -1.8630 C.ar   72  HIS72       0.1986
    126  NE2      -10.3000   21.1560   -1.8330 N.ar   72  HIS72      -0.2212
    127  N        -12.8730   15.1780    2.6330 N.3    75  ILE75      -0.1231
    128  CA       -12.8070   14.3950    1.4100 C.3    75  ILE75       0.1692
    129  C        -11.6840   13.3610    1.4710 C.2    75  ILE75       0.2592
    130  O        -11.8790   12.2100    1.0710 O.2    75  ILE75      -0.2718
    131  CB       -12.6500   15.3230    0.1840 C.3    75  ILE75       0.0266
    132  CG1      -13.9490   16.1150   -0.0050 C.3    75  ILE75       0.0019
    133  CG2      -12.3190   14.5160   -1.0650 C.3    75  ILE75       0.0020
    134  CD1      -13.8270   17.3080   -0.9090 C.3    75  ILE75       0.0001
    135  N        -10.5220   13.7430    1.9940 N.am   76  TYR76      -0.1976
    136  CA        -9.4620   12.7620    2.1870 C.3    76  TYR76       0.1639
    137  C         -9.8980   11.6290    3.1080 C.2    76  TYR76       0.2290
    138  O         -9.5480   10.4760    2.8780 O.2    76  TYR76      -0.2864
    139  CB        -8.2050   13.4260    2.7510 C.3    76  TYR76       0.0560
    140  CG        -7.4170   14.2090    1.7290 C.ar   76  TYR76      -0.0198
    141  CD1       -6.8700   13.5810    0.6190 C.ar   76  TYR76      -0.0009
    142  CD2       -7.2060   15.5730    1.8800 C.ar   76  TYR76      -0.0009
    143  CE1       -6.1350   14.2880   -0.3100 C.ar   76  TYR76       0.0417
    144  CE2       -6.4700   16.2860    0.9560 C.ar   76  TYR76       0.0417
    145  CZ        -5.9370   15.6380   -0.1360 C.ar   76  TYR76       0.1957
    146  OH        -5.1930   16.3380   -1.0610 O.3    76  TYR76      -0.2866
    147  N        -12.3450    9.3370    1.1990 N.3    79  ILE79      -0.1245
    148  CA       -11.6010    8.4970    0.2760 C.3    79  ILE79       0.1561
    149  C        -10.8730    7.3950    1.0430 C.2    79  ILE79       0.2260
    150  O        -10.8640    6.2370    0.6240 O.2    79  ILE79      -0.2867
    151  CB       -10.5910    9.3350   -0.5360 C.3    79  ILE79       0.0252
    152  CG1      -11.3470   10.2480   -1.5040 C.3    79  ILE79       0.0019
    153  CG2       -9.6350    8.4270   -1.2810 C.3    79  ILE79       0.0019
    154  CD1      -10.4750   11.2690   -2.2040 C.3    79  ILE79       0.0001
@<TRIPOS>BOND
     1    20    19    1
     2    19    18   ar
     3    19    17   ar
     4    44    43    2
     5    18    16   ar
     6    43    42    1
     7    45    42    1
     8    45    46    1
     9    17    15   ar
    10    48    47    1
    11    42    41    1
    12    16    14   ar
    13    46    47    1
    14    15    14   ar
    15    14    13    1
    16    41    35   am
    17    32    31    2
    18    52    51    2
    19    36    35    2
    20    12    11    2
    21    35    34    1
    22    31    30    1
    23    13    10    1
    24    11    10    1
    25    33    34    1
    26    51    50    1
    27    34    37    1
    28    10     9    1
    29    30    29    1
    30    49    50    1
    31    55    57   ar
    32    55    54   ar
    33    29    23   am
    34    50    53    1
    35    21    22    1
    36    24    23    2
    37    37    39    1
    38    37    38    1
    39    53    54    1
    40    57    59   ar
    41    23    22    1
    42     9     3   am
    43    54    56   ar
    44    22    25    1
    45     4     3    2
    46     3     2    1
    47    38    40    1
    48    59    60    1
    49    59    58   ar
    50    56    58   ar
    51    25    26    1
    52    28    26    1
    53    26    27    1
    54     2     1    1
    55     2     5    1
    56    69    67   ar
    57    69    70   ar
    58     5     6    1
    59    67    66   ar
    60    78    76    1
    61    75    76    1
    62    75    72    1
    63    71    72    1
    64    61    62    1
    65    62    65    1
    66    62    63    1
    67   106   105    1
    68    70    68   ar
    69    76    77    1
    70    66    65    1
    71    66    68   ar
    72    72    73    1
    73   107   105    1
    74     6     8    1
    75     6     7    1
    76   105   102    1
    77    63    64    2
    78    73    74    2
    79   100    98   ar
    80   100    99   ar
    81   102   101    1
    82   102   103    1
    83   154   152    1
    84    98    96   ar
    85   104   103    2
    86    99    97   ar
    87    89    88   ar
    88    89    87   ar
    89   125   126   ar
    90   125   123   ar
    91   103   108   am
    92   126   124   ar
    93    88    86   ar
    94   115   116    1
    95   115   114    1
    96   152   151    1
    97    87    85   ar
    98    93    92    2
    99   153   151    1
   100   133   131    1
   101   146   145    1
   102    96    95   ar
   103   108   109    1
   104    97    95   ar
   105   113   114    1
   106   113   112    1
   107    86    84   ar
   108   134   132    1
   109   123   122   ar
   110    85    84   ar
   111   124   122   ar
   112   151   148    1
   113    84    83    1
   114    95    94    1
   115   143   145   ar
   116   143   141   ar
   117    92    91    1
   118   109   112    1
   119   109   110    1
   120   145   144   ar
   121    90    91    1
   122   132   131    1
   123   122   121    1
   124   131   128    1
   125   148   149    1
   126   148   147    1
   127    83    80    1
   128    79    80    1
   129    91    94    1
   130   141   140   ar
   131   150   149    2
   132   144   142   ar
   133   130   129    2
   134   110   111    2
   135    80    81    1
   136   121   118    1
   137   128   129    1
   138   128   127    1
   139   129   135   am
   140   140   142   ar
   141   140   139    1
   142   118   117    1
   143   118   119    1
   144   135   136    1
   145   136   139    1
   146   136   137    1
   147    81    82    2
   148   120   119    2
   149   138   137    2
