@<TRIPOS>MOLECULE
tmp/4lwvA00.pdb
 145 141 0 0 0
SMALL
GASTEIGER

@<TRIPOS>ATOM
      1  N          1.1710  -38.9440   -8.9270 N.3    30  LEU30      -0.1231
      2  CA         1.1790  -37.5260   -9.2800 C.3    30  LEU30       0.1693
      3  C          1.6060  -36.6770   -8.1050 C.2    30  LEU30       0.2592
      4  O          2.3050  -35.6850   -8.2650 O.2    30  LEU30      -0.2718
      5  CB        -0.2000  -37.0830   -9.7510 C.3    30  LEU30       0.0284
      6  CG        -0.4990  -37.4800  -11.1970 C.3    30  LEU30       0.0019
      7  CD1       -1.9800  -37.3310  -11.4780 C.3    30  LEU30       0.0001
      8  CD2        0.3180  -36.6050  -12.1410 C.3    30  LEU30       0.0001
      9  N          1.1890  -37.0690   -6.9130 N.am   31  TYR31      -0.1976
     10  CA         1.5370  -36.3010   -5.7330 C.3    31  TYR31       0.1639
     11  C          3.0530  -36.2840   -5.5430 C.2    31  TYR31       0.2290
     12  O          3.6530  -35.2270   -5.3770 O.2    31  TYR31      -0.2864
     13  CB         0.8750  -36.8980   -4.4910 C.3    31  TYR31       0.0560
     14  CG         1.3860  -36.2530   -3.2440 C.ar   31  TYR31      -0.0198
     15  CD1        1.1350  -34.9170   -2.9940 C.ar   31  TYR31      -0.0009
     16  CD2        2.2100  -36.9440   -2.3690 C.ar   31  TYR31      -0.0009
     17  CE1        1.6960  -34.2780   -1.9170 C.ar   31  TYR31       0.0417
     18  CE2        2.7790  -36.3100   -1.2840 C.ar   31  TYR31       0.0417
     19  CZ         2.5200  -34.9760   -1.0710 C.ar   31  TYR31       0.1957
     20  OH         3.1190  -34.3190   -0.0290 O.3    31  TYR31      -0.2866
     21  N          5.5030  -37.2590   -7.7170 N.3    33  LEU33      -0.1231
     22  CA         6.1770  -36.6000   -8.8270 C.3    33  LEU33       0.1693
     23  C          6.1200  -35.0900   -8.6530 C.2    33  LEU33       0.2592
     24  O          7.1100  -34.4000   -8.8740 O.2    33  LEU33      -0.2718
     25  CB         5.5550  -37.0000  -10.1570 C.3    33  LEU33       0.0284
     26  CG         6.3200  -38.1440  -10.8310 C.3    33  LEU33       0.0019
     27  CD1        5.6470  -38.5550  -12.1310 C.3    33  LEU33       0.0001
     28  CD2        7.7390  -37.6970  -11.0910 C.3    33  LEU33       0.0001
     29  N          4.9740  -34.5710   -8.2350 N.am   34  GLY34      -0.1957
     30  CA         4.9110  -33.1620   -7.9060 C.3    34  GLY34       0.1869
     31  C          6.0150  -32.7360   -6.9470 C.2    34  GLY34       0.2309
     32  O          6.6860  -31.7350   -7.1820 O.2    34  GLY34      -0.2863
     33  N          9.4680  -32.7740   -8.4910 N.3    37  ILE37      -0.1231
     34  CA         9.6370  -31.6020   -9.3380 C.3    37  ILE37       0.1692
     35  C          9.8930  -30.3330   -8.5410 C.2    37  ILE37       0.2591
     36  O         10.7440  -29.5370   -8.9210 O.2    37  ILE37      -0.2718
     37  CB         8.4200  -31.3910  -10.2430 C.3    37  ILE37       0.0266
     38  CG1        8.3580  -32.5270  -11.2620 C.3    37  ILE37       0.0019
     39  CG2        8.5080  -30.0450  -10.9300 C.3    37  ILE37       0.0020
     40  CD1        7.0440  -32.6590  -11.9740 C.3    37  ILE37       0.0001
     41  N          9.1770  -30.1410   -7.4380 N.am   38  MET38      -0.1979
     42  CA         9.4280  -28.9870   -6.5850 C.3    38  MET38       0.1605
     43  C         10.8250  -29.0890   -5.9910 C.2    38  MET38       0.2287
     44  O         11.5570  -28.1040   -5.9170 O.2    38  MET38      -0.2864
     45  CB         8.3920  -28.9140   -5.4630 C.3    38  MET38       0.0413
     46  CG         7.0050  -28.4970   -5.9310 C.3    38  MET38       0.0598
     47  SD         5.7090  -28.7190   -4.6830 S.3    38  MET38      -0.1393
     48  CE         4.8200  -27.1530   -4.8450 C.3    38  MET38       0.0692
     49  N         10.4110  -26.8830  -12.1280 N.3    43  TYR43      -0.1241
     50  CA         9.2800  -26.0800  -12.5620 C.3    43  TYR43       0.1605
     51  C          9.6110  -24.6300  -12.3080 C.2    43  TYR43       0.2264
     52  O         10.1330  -24.2930  -11.2490 O.2    43  TYR43      -0.2867
     53  CB         8.0200  -26.4550  -11.7770 C.3    43  TYR43       0.0534
     54  CG         6.8540  -25.5140  -12.0150 C.ar   43  TYR43      -0.0201
     55  CD1        6.5630  -24.4920  -11.1220 C.ar   43  TYR43      -0.0009
     56  CD2        6.0660  -25.6290  -13.1560 C.ar   43  TYR43      -0.0009
     57  CE1        5.5230  -23.6110  -11.3600 C.ar   43  TYR43       0.0417
     58  CE2        5.0240  -24.7550  -13.4030 C.ar   43  TYR43       0.0417
     59  CZ         4.7570  -23.7470  -12.5040 C.ar   43  TYR43       0.1957
     60  OH         3.7270  -22.8680  -12.7600 O.3    43  TYR43      -0.2866
     61  N          4.2490  -22.3920  -17.3890 N.3    49  HIS49      -0.1241
     62  CA         3.8880  -23.6060  -16.6610 C.3    49  HIS49       0.1621
     63  C          4.5280  -24.8010  -17.3550 C.2    49  HIS49       0.2264
     64  O          3.8630  -25.7600  -17.7590 O.2    49  HIS49      -0.2867
     65  CB         2.3660  -23.7310  -16.5990 C.3    49  HIS49       0.0745
     66  CG         1.6920  -22.4530  -16.2090 C.ar   49  HIS49       0.0817
     67  ND1        1.7170  -21.9630  -14.9200 N.ar   49  HIS49      -0.2268
     68  CD2        1.0550  -21.5170  -16.9540 C.ar   49  HIS49       0.1154
     69  CE1        1.1310  -20.7790  -14.8890 C.ar   49  HIS49       0.1986
     70  NE2        0.7210  -20.4860  -16.1110 N.ar   49  HIS49      -0.2212
     71  N          7.7590  -27.6520  -17.2470 N.3    51  VAL51      -0.1245
     72  CA         8.7960  -28.3340  -16.4940 C.3    51  VAL51       0.1561
     73  C          9.9870  -28.5930  -17.4100 C.2    51  VAL51       0.2260
     74  O          9.8500  -29.2310  -18.4510 O.2    51  VAL51      -0.2867
     75  CB         8.2900  -29.6750  -15.9260 C.3    51  VAL51       0.0252
     76  CG1        9.4250  -30.4120  -15.2440 C.3    51  VAL51       0.0019
     77  CG2        7.1670  -29.4250  -14.9430 C.3    51  VAL51       0.0019
     78  N         10.3120  -39.5900  -18.8740 N.3    62  PHE62      -0.1241
     79  CA         9.2710  -39.1690  -19.8020 C.3    62  PHE62       0.1605
     80  C          9.7700  -39.1040  -21.2350 C.2    62  PHE62       0.2264
     81  O          8.9710  -39.0240  -22.1680 O.2    62  PHE62      -0.2867
     82  CB         8.7250  -37.7940  -19.4100 C.3    62  PHE62       0.0534
     83  CG         7.7730  -37.8250  -18.2490 C.ar   62  PHE62      -0.0203
     84  CD1        7.2530  -39.0250  -17.7890 C.ar   62  PHE62      -0.0042
     85  CD2        7.3930  -36.6510  -17.6230 C.ar   62  PHE62      -0.0042
     86  CE1        6.3730  -39.0520  -16.7250 C.ar   62  PHE62      -0.0003
     87  CE2        6.5140  -36.6670  -16.5600 C.ar   62  PHE62      -0.0003
     88  CZ         6.0020  -37.8690  -16.1090 C.ar   62  PHE62      -0.0000
     89  N          8.0180  -30.2680  -20.5420 N.3    67  PHE67      -0.1241
     90  CA         6.5970  -30.4090  -20.8230 C.3    67  PHE67       0.1605
     91  C          5.7440  -29.3880  -20.1000 C.2    67  PHE67       0.2264
     92  O          6.1800  -28.7590  -19.1370 O.2    67  PHE67      -0.2867
     93  CB         6.1070  -31.8200  -20.4720 C.3    67  PHE67       0.0534
     94  CG         6.3890  -32.2370  -19.0520 C.ar   67  PHE67      -0.0203
     95  CD1        5.4800  -31.9760  -18.0460 C.ar   67  PHE67      -0.0042
     96  CD2        7.5530  -32.9160  -18.7330 C.ar   67  PHE67      -0.0042
     97  CE1        5.7250  -32.3850  -16.7530 C.ar   67  PHE67      -0.0003
     98  CE2        7.7980  -33.3240  -17.4470 C.ar   67  PHE67      -0.0003
     99  CZ         6.8850  -33.0590  -16.4550 C.ar   67  PHE67      -0.0000
    100  N          2.6440  -28.5300  -17.6880 N.3    69  VAL69      -0.1231
    101  CA         1.9450  -29.1830  -16.5870 C.3    69  VAL69       0.1692
    102  C          0.4480  -29.0330  -16.7910 C.2    69  VAL69       0.2591
    103  O         -0.3500  -29.4490  -15.9580 O.2    69  VAL69      -0.2718
    104  CB         2.3160  -28.5450  -15.2420 C.3    69  VAL69       0.0266
    105  CG1        3.7870  -28.7750  -14.9470 C.3    69  VAL69       0.0020
    106  CG2        2.0080  -27.0570  -15.2780 C.3    69  VAL69       0.0020
    107  N          0.0810  -28.4370  -17.9190 N.am   70  LYS70      -0.1980
    108  CA        -1.2690  -27.9470  -18.1420 C.3    70  LYS70       0.1596
    109  C         -2.1120  -28.9350  -18.9430 C.2    70  LYS70       0.2287
    110  O         -3.3210  -28.7730  -19.0490 O.2    70  LYS70      -0.2864
    111  CB        -1.1960  -26.6050  -18.8700 C.3    70  LYS70       0.0298
    112  CG        -2.5190  -25.9100  -19.0940 C.3    70  LYS70       0.0038
    113  CD        -2.3180  -24.6410  -19.9210 C.3    70  LYS70       0.0206
    114  CE        -1.3130  -23.7000  -19.2490 C.3    70  LYS70       0.1093
    115  NZ        -0.5620  -22.8230  -20.2130 N.3    70  LYS70      -0.1314
    116  N         -3.1570  -32.6620  -18.8690 N.3    72  HIS72      -0.1241
    117  CA        -3.0980  -33.8300  -18.0170 C.3    72  HIS72       0.1621
    118  C         -3.1420  -35.1420  -18.7760 C.2    72  HIS72       0.2264
    119  O         -2.5740  -36.1330  -18.3310 O.2    72  HIS72      -0.2867
    120  CB        -4.2340  -33.7770  -17.0000 C.3    72  HIS72       0.0745
    121  CG        -4.1090  -32.6500  -16.0230 C.ar   72  HIS72       0.0817
    122  ND1       -5.0580  -32.3960  -15.0560 N.ar   72  HIS72      -0.2268
    123  CD2       -3.1440  -31.7150  -15.8610 C.ar   72  HIS72       0.1154
    124  CE1       -4.6790  -31.3510  -14.3400 C.ar   72  HIS72       0.1986
    125  NE2       -3.5220  -30.9190  -14.8080 N.ar   72  HIS72      -0.2212
    126  N          0.4650  -36.1010  -19.6770 N.3    75  ILE75      -0.1231
    127  CA         1.1490  -36.5460  -18.4750 C.3    75  ILE75       0.1692
    128  C          0.7100  -37.9340  -18.0250 C.2    75  ILE75       0.2592
    129  O          1.5470  -38.8050  -17.7870 O.2    75  ILE75      -0.2718
    130  CB         0.9370  -35.5360  -17.3470 C.3    75  ILE75       0.0266
    131  CG1        1.6870  -34.2540  -17.6970 C.3    75  ILE75       0.0019
    132  CG2        1.3950  -36.1170  -16.0150 C.3    75  ILE75       0.0020
    133  CD1        1.7500  -33.2650  -16.5840 C.3    75  ILE75       0.0001
    134  N         -0.5960  -38.1530  -17.9260 N.am   76  TYR76      -0.1976
    135  CA        -1.0960  -39.4810  -17.6140 C.3    76  TYR76       0.1639
    136  C         -0.5670  -40.4840  -18.6190 C.2    76  TYR76       0.2290
    137  O         -0.3700  -41.6460  -18.3000 O.2    76  TYR76      -0.2864
    138  CB        -2.6190  -39.5080  -17.6430 C.3    76  TYR76       0.0560
    139  CG        -3.2700  -38.8520  -16.4560 C.ar   76  TYR76      -0.0198
    140  CD1       -3.0180  -39.3050  -15.1720 C.ar   76  TYR76      -0.0009
    141  CD2       -4.1420  -37.7840  -16.6160 C.ar   76  TYR76      -0.0009
    142  CE1       -3.6190  -38.7100  -14.0710 C.ar   76  TYR76       0.0417
    143  CE2       -4.7440  -37.1820  -15.5230 C.ar   76  TYR76       0.0417
    144  CZ        -4.4760  -37.6480  -14.2560 C.ar   76  TYR76       0.1957
    145  OH        -5.0290  -37.0320  -13.1660 O.3    76  TYR76      -0.2866
@<TRIPOS>BOND
     1    81    80    2
     2    80    79    1
     3    90    89    1
     4    90    93    1
     5    90    91    1
     6    93    94    1
     7   115   114    1
     8    91    92    2
     9   113   114    1
    10   113   112    1
    11    79    82    1
    12    79    78    1
    13   126   127    1
    14    82    83    1
    15   112   111    1
    16    94    96   ar
    17    94    95   ar
    18   110   109    2
    19   109   108    1
    20   111   108    1
    21   116   117    1
    22   118   119    2
    23   118   117    1
    24    96    98   ar
    25   136   137    2
    26   136   135    1
    27   127   128    1
    28   127   130    1
    29    74    73    2
    30    83    84   ar
    31    83    85   ar
    32   108   107    1
    33    95    97   ar
    34   128   134   am
    35   128   129    2
    36   117   120    1
    37   134   135    1
    38   107   102   am
    39    84    86   ar
    40    64    63    2
    41   131   130    1
    42   131   133    1
    43   100   101    1
    44   138   135    1
    45   138   139    1
    46    85    87   ar
    47    98    99   ar
    48    73    72    1
    49    61    62    1
    50    63    62    1
    51   130   132    1
    52    71    72    1
    53   120   121    1
    54    68    66   ar
    55    68    70   ar
    56   102   101    1
    57   102   103    2
    58    97    99   ar
    59    86    88   ar
    60    62    65    1
    61   141   139   ar
    62   141   143   ar
    63    65    66    1
    64   101   104    1
    65    87    88   ar
    66    72    75    1
    67   139   140   ar
    68    66    67   ar
    69    70    69   ar
    70   121   123   ar
    71   121   122   ar
    72    75    76    1
    73    75    77    1
    74   123   125   ar
    75   143   144   ar
    76   106   104    1
    77   104   105    1
    78   140   142   ar
    79   122   124   ar
    80    67    69   ar
    81   125   124   ar
    82   144   142   ar
    83   144   145    1
    84    58    56   ar
    85    58    59   ar
    86    56    54   ar
    87    60    59    1
    88    50    51    1
    89    50    49    1
    90    50    53    1
    91    59    57   ar
    92    51    52    2
    93     8     6    1
    94    27    26    1
    95    54    53    1
    96    54    55   ar
    97    40    38    1
    98     7     6    1
    99    57    55   ar
   100    38    37    1
   101     6     5    1
   102    28    26    1
   103    39    37    1
   104    26    25    1
   105    37    34    1
   106    25    22    1
   107     5     2    1
   108    34    35    1
   109    34    33    1
   110     2     1    1
   111     2     3    1
   112    36    35    2
   113    24    23    2
   114    22    23    1
   115    22    21    1
   116    23    29   am
   117    35    41   am
   118     4     3    2
   119    29    30    1
   120     3     9   am
   121    30    31    1
   122    41    42    1
   123    32    31    2
   124     9    10    1
   125    42    43    1
   126    42    45    1
   127    43    44    2
   128    46    45    1
   129    46    47    1
   130    10    11    1
   131    10    13    1
   132    11    12    2
   133    48    47    1
   134    13    14    1
   135    14    15   ar
   136    14    16   ar
   137    15    17   ar
   138    16    18   ar
   139    17    19   ar
   140    18    19   ar
   141    19    20    1
