@<TRIPOS>MOLECULE
tmp/4lwwB00.pdb
 154 144 0 0 0
SMALL
GASTEIGER

@<TRIPOS>ATOM
      1  N          8.2860    5.1930   46.3980 N.3   172  TYR172     -0.1241
      2  CA         8.4980    3.7620   46.1750 C.3   172  TYR172      0.1605
      3  C          7.2730    3.0440   45.6030 C.2   172  TYR172      0.2264
      4  O          7.2090    1.8110   45.6320 O.2   172  TYR172     -0.2867
      5  CB         8.9850    3.0600   47.4490 C.3   172  TYR172      0.0534
      6  CG        10.3740    3.4820   47.8530 C.ar  172  TYR172     -0.0201
      7  CD1       11.4980    2.9060   47.2680 C.ar  172  TYR172     -0.0009
      8  CD2       10.5640    4.4860   48.7990 C.ar  172  TYR172     -0.0009
      9  CE1       12.7760    3.3090   47.6280 C.ar  172  TYR172      0.0417
     10  CE2       11.8390    4.8950   49.1640 C.ar  172  TYR172      0.0417
     11  CZ        12.9370    4.3040   48.5770 C.ar  172  TYR172      0.1957
     12  OH        14.1990    4.7150   48.9420 O.3   172  TYR172     -0.2866
     13  N          7.7200    0.8630   40.6640 N.3   175  HIS175     -0.1241
     14  CA         9.0410    0.2540   40.5940 C.3   175  HIS175      0.1621
     15  C          9.3280   -0.1240   39.1430 C.2   175  HIS175      0.2264
     16  O          8.4520   -0.6230   38.4570 O.2   175  HIS175     -0.2867
     17  CB         9.0790   -1.0050   41.4870 C.3   175  HIS175      0.0745
     18  CG        10.4630   -1.4460   41.8500 C.ar  175  HIS175      0.0817
     19  ND1       11.1020   -1.0160   42.9940 N.ar  175  HIS175     -0.2268
     20  CD2       11.3290   -2.2770   41.2240 C.ar  175  HIS175      0.1154
     21  CE1       12.3100   -1.5530   43.0460 C.ar  175  HIS175      0.1986
     22  NE2       12.4710   -2.3230   41.9830 N.ar  175  HIS175     -0.2212
     23  N         10.4920   -2.3910   36.3470 N.3   177  PHE177     -0.1241
     24  CA        10.6730   -3.8160   36.0460 C.3   177  PHE177      0.1605
     25  C         11.1050   -3.9870   34.5800 C.2   177  PHE177      0.2264
     26  O         10.9820   -5.0750   34.0110 O.2   177  PHE177     -0.2867
     27  CB         9.3320   -4.5610   36.1760 C.3   177  PHE177      0.0534
     28  CG         8.9000   -4.8820   37.5990 C.ar  177  PHE177     -0.0203
     29  CD1        9.5990   -4.4230   38.6970 C.ar  177  PHE177     -0.0042
     30  CD2        7.7750   -5.6790   37.8080 C.ar  177  PHE177     -0.0042
     31  CE1        9.1740   -4.7310   39.9900 C.ar  177  PHE177     -0.0003
     32  CE2        7.3490   -6.0010   39.0980 C.ar  177  PHE177     -0.0003
     33  CZ         8.0470   -5.5240   40.1850 C.ar  177  PHE177     -0.0000
     34  N         14.4370   -6.2490   31.0180 N.3   180  ARG180     -0.1245
     35  CA        14.3210   -7.2480   29.9550 C.3   180  ARG180      0.1563
     36  C         13.4580   -6.7800   28.7860 C.2   180  ARG180      0.2260
     37  O         13.5640   -7.3240   27.6820 O.2   180  ARG180     -0.2867
     38  CB        13.7400   -8.5560   30.5000 C.3   180  ARG180      0.0307
     39  CG        12.2160   -8.5190   30.6890 C.3   180  ARG180      0.0489
     40  CD        11.7140   -9.7140   31.5050 C.3   180  ARG180      0.2205
     41  NE        12.3130   -9.7220   32.8340 N.pl3 180  ARG180     -0.0865
     42  CZ        11.9720  -10.5550   33.8110 C.cat 180  ARG180      0.5346
     43  NH1       11.0180  -11.4630   33.6170 N.pl3 180  ARG180      0.1354
     44  NH2       12.5880  -10.4740   34.9850 N.pl3 180  ARG180      0.1354
     45  N         14.6800   -2.1120   39.4550 N.3   203  ASP203     -0.1239
     46  CA        15.4130   -3.3630   39.2790 C.3   203  ASP203      0.1674
     47  C         16.3210   -3.2670   38.0540 C.2   203  ASP203      0.2266
     48  O         17.0630   -4.1980   37.7370 O.2   203  ASP203     -0.2867
     49  CB        14.4660   -4.5660   39.1370 C.3   203  ASP203      0.1410
     50  CG        14.1680   -5.2490   40.4690 C.2   203  ASP203      0.3668
     51  OD1       13.9930   -4.5490   41.4920 O.co2 203  ASP203     -0.2456
     52  OD2       14.1100   -6.5070   40.4810 O.co2 203  ASP203     -0.2456
     53  N         16.9020    1.8000   44.5910 N.3   224  TYR224     -0.1227
     54  CA        16.9470    0.7110   45.5580 C.3   224  TYR224      0.1736
     55  C         16.0220   -0.4430   45.1850 C.2   224  TYR224      0.2596
     56  O         15.0590   -0.2620   44.4490 O.2   224  TYR224     -0.2718
     57  CB        16.5390    1.2390   46.9380 C.3   224  TYR224      0.0548
     58  CG        17.4030    2.3800   47.4340 C.ar  224  TYR224     -0.0200
     59  CD1       18.5820    2.1310   48.1240 C.ar  224  TYR224     -0.0009
     60  CD2       17.0430    3.7050   47.1980 C.ar  224  TYR224     -0.0009
     61  CE1       19.3800    3.1740   48.5730 C.ar  224  TYR224      0.0417
     62  CE2       17.8370    4.7540   47.6440 C.ar  224  TYR224      0.0417
     63  CZ        19.0010    4.4830   48.3290 C.ar  224  TYR224      0.1957
     64  OH        19.7930    5.5240   48.7810 O.3   224  TYR224     -0.2866
     65  N         16.3030   -1.6240   45.7300 N.am  225  SER225     -0.1938
     66  CA        15.3840   -2.7490   45.5990 C.3   225  SER225      0.2055
     67  C         15.4200   -3.6300   46.8430 C.2   225  SER225      0.2642
     68  O         16.1150   -3.3200   47.8030 O.2   225  SER225     -0.2714
     69  CB        15.7110   -3.5760   44.3530 C.3   225  SER225      0.2130
     70  OG        14.6440   -4.4710   44.0540 O.3   225  SER225     -0.2179
     71  N         14.6410   -4.7080   46.8250 N.am  226  VAL226     -0.1977
     72  CA        14.5630   -5.6470   47.9480 C.3   226  VAL226      0.1596
     73  C         14.5270   -7.0580   47.3710 C.2   226  VAL226      0.2287
     74  O         14.2110   -7.2380   46.1920 O.2   226  VAL226     -0.2864
     75  CB        13.3070   -5.4230   48.8410 C.3   226  VAL226      0.0276
     76  CG1       13.3010   -4.0140   49.4520 C.3   226  VAL226      0.0022
     77  CG2       12.0350   -5.7010   48.0800 C.3   226  VAL226      0.0022
     78  N         13.3830  -10.7500   46.2490 N.3   228  ALA228     -0.1231
     79  CA        12.1020  -11.1920   45.7260 C.3   228  ALA228      0.1694
     80  C         12.2710  -12.4520   44.9030 C.2   228  ALA228      0.2591
     81  O         13.3440  -12.7060   44.3550 O.2   228  ALA228     -0.2718
     82  CB        11.4790  -10.1040   44.8820 C.3   228  ALA228      0.0304
     83  N         11.1980  -13.2310   44.8160 N.am  229  ALA229     -0.1980
     84  CA        11.2040  -14.4520   44.0270 C.3   229  ALA229      0.1597
     85  C         10.8310  -14.1570   42.5830 C.2   229  ALA229      0.2287
     86  O         10.2460  -13.1170   42.2790 O.2   229  ALA229     -0.2864
     87  CB        10.2300  -15.4620   44.6290 C.3   229  ALA229      0.0319
     88  N         12.3750   -6.8070   53.7500 N.3   257  PRO257     -0.2116
     89  CA        11.1630   -7.0040   52.9480 C.3   257  PRO257      0.1372
     90  C         11.4160   -8.0680   51.8890 C.2   257  PRO257      0.2244
     91  O         12.5400   -8.1950   51.4030 O.2   257  PRO257     -0.2868
     92  CB        10.9630   -5.6460   52.2600 C.3   257  PRO257      0.0268
     93  CG        11.7250   -4.6740   53.0870 C.3   257  PRO257      0.0207
     94  CD        12.8780   -5.4250   53.6640 C.3   257  PRO257      0.0892
     95  N          9.3810   -9.9230   48.3770 N.3   259  SER259     -0.1217
     96  CA         8.2050  -10.0700   47.5320 C.3   259  SER259      0.1889
     97  C          8.1860  -11.4850   46.9880 C.2   259  SER259      0.2288
     98  O          9.2150  -12.0110   46.6030 O.2   259  SER259     -0.2866
     99  CB         8.2490   -9.0760   46.3700 C.3   259  SER259      0.2089
    100  OG         7.1020   -9.2400   45.5530 O.3   259  SER259     -0.2183
    101  N          8.0690   -6.4660   55.6260 N.3   291  PRO291     -0.2116
    102  CA         6.8060   -7.1140   55.2630 C.3   291  PRO291      0.1372
    103  C          6.9880   -8.1920   54.1950 C.2   291  PRO291      0.2244
    104  O          7.9770   -8.1830   53.4560 O.2   291  PRO291     -0.2868
    105  CB         5.9860   -5.9570   54.6840 C.3   291  PRO291      0.0268
    106  CG         7.0350   -5.0370   54.0910 C.3   291  PRO291      0.0207
    107  CD         8.1630   -5.0880   55.0970 C.3   291  PRO291      0.0892
    108  N          5.5690   -9.0750   50.7250 N.3   293  ILE293     -0.1245
    109  CA         4.8330   -8.3920   49.6820 C.3   293  ILE293      0.1561
    110  C          4.3620   -9.4420   48.6890 C.2   293  ILE293      0.2260
    111  O          5.1700  -10.0480   48.0020 O.2   293  ILE293     -0.2867
    112  CB         5.6890   -7.3280   48.9910 C.3   293  ILE293      0.0252
    113  CG1        6.1990   -6.3220   50.0340 C.3   293  ILE293      0.0019
    114  CG2        4.8700   -6.6030   47.9270 C.3   293  ILE293      0.0019
    115  CD1        7.6900   -6.1260   50.0100 C.3   293  ILE293      0.0001
    116  N          2.8040  -10.8930   45.3650 N.3   295  ARG295     -0.1245
    117  CA         2.7940  -10.4350   43.9770 C.3   295  ARG295      0.1563
    118  C          1.9250  -11.3020   43.0770 C.2   295  ARG295      0.2260
    119  O          2.3240  -12.4060   42.6960 O.2   295  ARG295     -0.2867
    120  CB         4.2250  -10.3920   43.4250 C.3   295  ARG295      0.0307
    121  CG         4.3090   -9.9670   41.9660 C.3   295  ARG295      0.0489
    122  CD         5.7680   -9.9100   41.4890 C.3   295  ARG295      0.2205
    123  NE         5.8010  -10.0650   40.0450 N.pl3 295  ARG295     -0.0865
    124  CZ         6.6850  -10.8020   39.3880 C.cat 295  ARG295      0.5346
    125  NH1        6.6020  -10.8880   38.0690 N.pl3 295  ARG295      0.1354
    126  NH2        7.6430  -11.4520   40.0440 N.pl3 295  ARG295      0.1354
    127  N          1.8820   -6.5780   52.3840 N.3   333  ARG333     -0.1245
    128  CA         1.6000   -5.6180   51.3200 C.3   333  ARG333      0.1563
    129  C          1.4220   -6.3700   50.0030 C.2   333  ARG333      0.2260
    130  O          1.6310   -7.5890   49.9480 O.2   333  ARG333     -0.2867
    131  CB         2.7260   -4.5810   51.2110 C.3   333  ARG333      0.0307
    132  CG         2.7820   -3.5950   52.3890 C.3   333  ARG333      0.0489
    133  CD         1.5410   -2.7090   52.4030 C.3   333  ARG333      0.2205
    134  NE         1.5850   -1.6630   53.4340 N.pl3 333  ARG333     -0.0865
    135  CZ         0.9680   -1.7470   54.6110 C.cat 333  ARG333      0.5346
    136  NH1        0.2720   -2.8350   54.9250 N.pl3 333  ARG333      0.1354
    137  NH2        1.0490   -0.7450   55.4840 N.pl3 333  ARG333      0.1354
    138  N          2.1270   -6.1580   45.5910 N.3   335  ILE335     -0.1245
    139  CA         2.6270   -5.4370   44.4300 C.3   335  ILE335      0.1561
    140  C          2.0160   -6.0010   43.1570 C.2   335  ILE335      0.2260
    141  O          2.0420   -7.2120   42.9220 O.2   335  ILE335     -0.2867
    142  CB         4.1880   -5.3940   44.3580 C.3   335  ILE335      0.0252
    143  CG1        4.6470   -4.5710   43.1530 C.3   335  ILE335      0.0019
    144  CG2        4.7920   -6.8140   44.3450 C.3   335  ILE335      0.0019
    145  CD1        6.1370   -4.2350   43.1710 C.3   335  ILE335      0.0001
    146  N          2.5450   -6.0960   39.3340 N.3   337  GLY337     -0.1225
    147  CA         3.5490   -5.7930   38.3330 C.3   337  GLY337      0.1811
    148  C          3.2950   -6.4590   36.9960 C.2   337  GLY337      0.2280
    149  O          4.2420   -6.7580   36.2810 O.2   337  GLY337     -0.2866
    150  N          1.8330   -1.4140   45.8240 N.3   363  ALA363     -0.1245
    151  CA         2.8160   -0.7460   44.9830 C.3   363  ALA363      0.1562
    152  C          2.6500   -1.3280   43.5970 C.2   363  ALA363      0.2260
    153  O          1.9980   -2.3570   43.4220 O.2   363  ALA363     -0.2867
    154  CB         4.2350   -0.9810   45.4910 C.3   363  ALA363      0.0290
@<TRIPOS>BOND
     1    37    36    2
     2    36    35    1
     3    35    38    1
     4    35    34    1
     5    38    39    1
     6    39    40    1
     7    40    41    1
     8    41    42    2
     9    43    42    1
    10    42    44    1
    11    26    25    2
    12    25    24    1
    13    24    27    1
    14    24    23    1
    15    27    28    1
    16   149   148    2
    17   148   147    1
    18    28    30   ar
    19    28    29   ar
    20    48    47    2
    21    30    32   ar
    22    47    46    1
    23   125   124    1
    24   147   146    1
    25    16    15    2
    26    29    31   ar
    27    32    33   ar
    28    49    46    1
    29    49    50    1
    30    15    14    1
    31    46    45    1
    32   124   126    1
    33   124   123    2
    34    31    33   ar
    35   123   122    1
    36    50    52   ar
    37    50    51   ar
    38    14    13    1
    39    14    17    1
    40    20    18   ar
    41    20    22   ar
    42    17    18    1
    43   122   121    1
    44    18    19   ar
    45   121   120    1
    46    22    21   ar
    47    86    85    2
    48    85    84    1
    49   119   118    2
    50   141   140    2
    51    19    21   ar
    52   118   117    1
    53   143   145    1
    54   143   142    1
    55   140   139    1
    56   153   152    2
    57   120   117    1
    58   152   151    1
    59   117   116    1
    60    84    87    1
    61    84    83    1
    62    70    69    1
    63   144   142    1
    64    69    66    1
    65    81    80    2
    66   142   139    1
    67   139   138    1
    68    56    55    2
    69    53    54    1
    70    83    80   am
    71    82    79    1
    72    80    79    1
    73   151   154    1
    74   151   150    1
    75    55    54    1
    76    55    65   am
    77   100    99    1
    78    54    57    1
    79    66    65    1
    80    66    67    1
    81     3     4    2
    82     3     2    1
    83    79    78    1
    84     2     1    1
    85     2     5    1
    86    74    73    2
    87    99    96    1
    88    98    97    2
    89    71    67   am
    90    71    72    1
    91    67    68    2
    92    57    58    1
    93    97    96    1
    94    60    58   ar
    95    60    62   ar
    96     7     9   ar
    97     7     6   ar
    98    73    72    1
    99    58    59   ar
   100     5     6    1
   101    96    95    1
   102     9    11   ar
   103    62    63   ar
   104     6     8   ar
   105   114   112    1
   106    72    75    1
   107   111   110    2
   108    77    75    1
   109    59    61   ar
   110    63    61   ar
   111    63    64    1
   112    11    12    1
   113    11    10   ar
   114   110   109    1
   115     8    10   ar
   116    75    76    1
   117   112   109    1
   118   112   113    1
   119   109   108    1
   120   130   129    2
   121   129   128    1
   122   115   113    1
   123   131   128    1
   124   131   132    1
   125   128   127    1
   126    91    90    2
   127    90    89    1
   128    92    89    1
   129    92    93    1
   130   132   133    1
   131   133   134    1
   132    89    88    1
   133    93    94    1
   134   134   135    2
   135   104   103    2
   136    94    88    1
   137   106   105    1
   138   106   107    1
   139   103   102    1
   140   135   136    1
   141   135   137    1
   142   105   102    1
   143   107   101    1
   144   102   101    1
