@<TRIPOS>MOLECULE
tmp/4lwxA01.pdb
 129 126 0 0 0
SMALL
GASTEIGER

@<TRIPOS>ATOM
      1  N         -7.9270  -30.4960  -13.2060 N.3    68  ASN68      -0.1225
      2  CA        -7.2480  -29.8650  -14.3460 C.3    68  ASN68       0.1785
      3  C         -6.1650  -28.8290  -13.9950 C.2    68  ASN68       0.2597
      4  O         -5.5520  -28.2540  -14.8910 O.2    68  ASN68      -0.2718
      5  CB        -8.2890  -29.2300  -15.2720 C.3    68  ASN68       0.1169
      6  CG        -9.2360  -28.3020  -14.5350 C.2    68  ASN68       0.2627
      7  OD1       -8.8900  -27.7450  -13.4920 O.2    68  ASN68      -0.2716
      8  ND2      -10.4370  -28.1290  -15.0770 N.am   68  ASN68      -0.0877
      9  N         -5.9300  -28.6260  -12.7000 N.am   69  VAL69      -0.1966
     10  CA        -4.9890  -27.6230  -12.1720 C.3    69  VAL69       0.1727
     11  C         -5.3240  -26.1850  -12.6040 C.2    69  VAL69       0.2616
     12  O         -4.4360  -25.3260  -12.6510 O.2    69  VAL69      -0.2715
     13  CB        -3.4990  -27.9450  -12.4900 C.3    69  VAL69       0.0290
     14  CG1       -2.6310  -27.5530  -11.3030 C.3    69  VAL69       0.0023
     15  CG2       -3.2760  -29.4230  -12.8000 C.3    69  VAL69       0.0023
     16  N         -6.6010  -25.9270  -12.8920 N.am   70  TYR70      -0.1960
     17  CA        -7.0590  -24.5850  -13.2560 C.3    70  TYR70       0.1771
     18  C         -7.3440  -23.7710  -12.0030 C.2    70  TYR70       0.2619
     19  O         -8.0120  -24.2420  -11.0830 O.2    70  TYR70      -0.2715
     20  CB        -8.3090  -24.6110  -14.1540 C.3    70  TYR70       0.0574
     21  CG        -8.1460  -25.2370  -15.5350 C.ar   70  TYR70      -0.0198
     22  CD1       -9.2660  -25.5420  -16.3080 C.ar   70  TYR70      -0.0009
     23  CD2       -6.8930  -25.5400  -16.0630 C.ar   70  TYR70      -0.0009
     24  CE1       -9.1390  -26.1220  -17.5610 C.ar   70  TYR70       0.0417
     25  CE2       -6.7590  -26.1200  -17.3170 C.ar   70  TYR70       0.0417
     26  CZ        -7.8860  -26.4080  -18.0610 C.ar   70  TYR70       0.1957
     27  OH        -7.7760  -26.9840  -19.3070 O.3    70  TYR70      -0.2866
     28  N         -6.8120  -22.5530  -11.9620 N.am   71  ILE71      -0.1963
     29  CA        -7.0880  -21.6370  -10.8660 C.3    71  ILE71       0.1727
     30  C         -8.5030  -21.0990  -11.0510 C.2    71  ILE71       0.2616
     31  O         -8.8480  -20.6210  -12.1290 O.2    71  ILE71      -0.2715
     32  CB        -6.0540  -20.4900  -10.8170 C.3    71  ILE71       0.0290
     33  CG1       -4.6930  -21.0610  -10.3900 C.3    71  ILE71       0.0022
     34  CG2       -6.5150  -19.3910   -9.8640 C.3    71  ILE71       0.0023
     35  CD1       -3.5650  -20.0530  -10.3090 C.3    71  ILE71       0.0001
     36  N         -9.3180  -21.2000  -10.0060 N.am   72  MET72      -0.1977
     37  CA       -10.7190  -20.7750  -10.0700 C.3    72  MET72       0.1605
     38  C        -10.9140  -19.3620   -9.5220 C.2    72  MET72       0.2287
     39  O        -11.7420  -18.5960  -10.0190 O.2    72  MET72      -0.2864
     40  CB       -11.5960  -21.7490   -9.2780 C.3    72  MET72       0.0413
     41  CG       -11.7060  -23.1450   -9.8830 C.3    72  MET72       0.0598
     42  SD       -12.5660  -23.1840  -11.4680 S.3    72  MET72      -0.1393
     43  CE       -11.2300  -23.0750  -12.6530 C.3    72  MET72       0.0692
     44  N        -12.9210  -16.0060  -11.3830 N.3    83  PHE83      -0.1241
     45  CA       -12.9800  -15.7850  -12.8210 C.3    83  PHE83       0.1605
     46  C        -14.4230  -15.7890  -13.3020 C.2    83  PHE83       0.2264
     47  O        -15.2860  -16.4500  -12.7180 O.2    83  PHE83      -0.2867
     48  CB       -12.1730  -16.8440  -13.5790 C.3    83  PHE83       0.0534
     49  CG       -10.6900  -16.6310  -13.5090 C.ar   83  PHE83      -0.0203
     50  CD1      -10.1300  -15.4500  -13.9850 C.ar   83  PHE83      -0.0042
     51  CD2       -9.8540  -17.5990  -12.9730 C.ar   83  PHE83      -0.0042
     52  CE1       -8.7660  -15.2360  -13.9190 C.ar   83  PHE83      -0.0003
     53  CE2       -8.4840  -17.3970  -12.9130 C.ar   83  PHE83      -0.0003
     54  CZ        -7.9390  -16.2160  -13.3880 C.ar   83  PHE83      -0.0000
     55  N        -16.4580  -17.2700  -15.3530 N.3    85  GLU85      -0.1231
     56  CA       -16.6150  -18.5020  -16.1230 C.3    85  GLU85       0.1684
     57  C        -17.4000  -19.5040  -15.2610 C.2    85  GLU85       0.2434
     58  O        -17.3150  -19.4580  -14.0330 O.2    85  GLU85      -0.2733
     59  CB       -15.2420  -19.0580  -16.5240 C.3    85  GLU85       0.0402
     60  CG       -14.4940  -19.7200  -15.3720 C.3    85  GLU85       0.1161
     61  CD       -12.9960  -19.8630  -15.5840 C.2    85  GLU85       0.3649
     62  OE1      -12.4550  -19.3910  -16.6030 O.co2  85  GLU85      -0.2457
     63  OE2      -12.3530  -20.4680  -14.6970 O.co2  85  GLU85      -0.2457
     64  N        -18.1830  -20.3990  -15.8900 N.am   86  PRO86      -0.2718
     65  CA       -19.0630  -21.2590  -15.0770 C.3    86  PRO86       0.1535
     66  C        -18.3620  -22.1690  -14.0630 C.2    86  PRO86       0.2598
     67  O        -18.8940  -22.4010  -12.9780 O.2    86  PRO86      -0.2715
     68  CB       -19.8010  -22.0940  -16.1250 C.3    86  PRO86       0.0310
     69  CG       -19.7930  -21.2510  -17.3500 C.3    86  PRO86       0.0237
     70  CD       -18.4890  -20.5030  -17.3290 C.3    86  PRO86       0.0939
     71  N        -17.1870  -22.6790  -14.4160 N.am   87  ALA87      -0.1978
     72  CA       -16.4160  -23.5270  -13.5090 C.3    87  ALA87       0.1597
     73  C        -16.0200  -22.7780  -12.2370 C.2    87  ALA87       0.2287
     74  O        -15.9850  -23.3570  -11.1500 O.2    87  ALA87      -0.2864
     75  CB       -15.1810  -24.0570  -14.2140 C.3    87  ALA87       0.0319
     76  N        -12.5460  -14.2870  -17.9510 N.3   108  SER108     -0.1202
     77  CA       -12.3240  -15.6870  -17.6410 C.3   108  SER108      0.2020
     78  C        -10.8350  -15.9200  -17.4000 C.2   108  SER108      0.2619
     79  O        -10.0190  -15.0100  -17.5620 O.2   108  SER108     -0.2717
     80  CB       -12.7940  -16.5580  -18.7950 C.3   108  SER108      0.2103
     81  OG       -11.9630  -16.3870  -19.9260 O.3   108  SER108     -0.2182
     82  N        -10.4820  -17.1460  -17.0330 N.am  109  GLY109     -0.1942
     83  CA        -9.1070  -17.4630  -16.6820 C.3   109  GLY109      0.2014
     84  C         -8.2300  -17.9470  -17.8210 C.2   109  GLY109      0.2639
     85  O         -7.0640  -18.2690  -17.6060 O.2   109  GLY109     -0.2714
     86  N         -8.7530  -18.0120  -19.0360 N.am  110  ASN110     -0.1958
     87  CA        -7.9230  -18.5380  -20.1060 C.3   110  ASN110      0.1819
     88  C         -6.8860  -17.5210  -20.5510 C.2   110  ASN110      0.2621
     89  O         -7.0880  -16.3060  -20.4450 O.2   110  ASN110     -0.2715
     90  CB        -8.7320  -19.0600  -21.2850 C.3   110  ASN110      0.1195
     91  CG        -9.3940  -17.9600  -22.0640 C.2   110  ASN110      0.2630
     92  OD1       -8.8450  -17.4610  -23.0450 O.2   110  ASN110     -0.2716
     93  ND2      -10.5790  -17.5700  -21.6330 N.am  110  ASN110     -0.0877
     94  N         -5.7660  -18.0380  -21.0350 N.am  111  TYR111     -0.1974
     95  CA        -4.6290  -17.2060  -21.3780 C.3   111  TYR111      0.1639
     96  C         -4.9860  -16.0690  -22.3290 C.2   111  TYR111      0.2290
     97  O         -4.5280  -14.9420  -22.1490 O.2   111  TYR111     -0.2864
     98  CB        -3.5250  -18.0610  -21.9910 C.3   111  TYR111      0.0560
     99  CG        -2.6540  -18.7880  -20.9840 C.ar  111  TYR111     -0.0198
    100  CD1       -2.2040  -18.1520  -19.8310 C.ar  111  TYR111     -0.0009
    101  CD2       -2.2360  -20.0970  -21.2140 C.ar  111  TYR111     -0.0009
    102  CE1       -1.3860  -18.8010  -18.9260 C.ar  111  TYR111      0.0417
    103  CE2       -1.4150  -20.7560  -20.3110 C.ar  111  TYR111      0.0417
    104  CZ        -0.9940  -20.1030  -19.1680 C.ar  111  TYR111      0.1957
    105  OH        -0.1790  -20.7410  -18.2640 O.3   111  TYR111     -0.2866
    106  N         -0.3640  -18.2640  -12.4660 N.3   155  ILE155     -0.1245
    107  CA        -0.6990  -19.5110  -13.1460 C.3   155  ILE155      0.1561
    108  C          0.5610  -20.2420  -13.6040 C.2   155  ILE155      0.2260
    109  O          0.6880  -21.4580  -13.4230 O.2   155  ILE155     -0.2867
    110  CB        -1.6340  -19.2380  -14.3430 C.3   155  ILE155      0.0252
    111  CG1       -3.0300  -18.8660  -13.8220 C.3   155  ILE155      0.0019
    112  CG2       -1.6720  -20.4360  -15.2820 C.3   155  ILE155      0.0019
    113  CD1       -3.9430  -18.2470  -14.8550 C.3   155  ILE155      0.0001
    114  N          0.6420  -23.6730  -11.3490 N.3   159  ALA159     -0.1245
    115  CA         0.0760  -24.8190  -12.0580 C.3   159  ALA159      0.1562
    116  C          0.9740  -25.2920  -13.2000 C.2   159  ALA159      0.2260
    117  O          1.2460  -26.4890  -13.3090 O.2   159  ALA159     -0.2867
    118  CB        -1.3350  -24.5270  -12.5470 C.3   159  ALA159      0.0290
    119  N          2.7910  -28.9740  -13.7250 N.3   163  ARG163     -0.1245
    120  CA         2.5670  -29.8300  -14.8960 C.3   163  ARG163      0.1563
    121  C          3.8340  -30.2820  -15.6150 C.2   163  ARG163      0.2260
    122  O          3.8610  -31.3690  -16.2030 O.2   163  ARG163     -0.2867
    123  CB         1.6800  -29.1080  -15.9050 C.3   163  ARG163      0.0307
    124  CG         0.2700  -28.8650  -15.4200 C.3   163  ARG163      0.0489
    125  CD        -0.4230  -27.9060  -16.3610 C.3   163  ARG163      0.2205
    126  NE        -1.8150  -27.6690  -15.9980 N.pl3 163  ARG163     -0.0865
    127  CZ        -2.4860  -26.5560  -16.2900 C.cat 163  ARG163      0.5346
    128  NH1       -1.8910  -25.5590  -16.9380 N.pl3 163  ARG163      0.1354
    129  NH2       -3.7520  -26.4240  -15.9220 N.pl3 163  ARG163      0.1354
@<TRIPOS>BOND
     1    92    91    2
     2    96    97    2
     3    96    95    1
     4    91    93   am
     5    91    90    1
     6    98    95    1
     7    98    99    1
     8    95    94    1
     9    90    87    1
    10   101    99   ar
    11   101   103   ar
    12    94    88   am
    13    99   100   ar
    14    88    89    2
    15    88    87    1
    16   103   104   ar
    17    87    86    1
    18    81    80    1
    19   100   102   ar
    20    27    26    1
    21   104   102   ar
    22   104   105    1
    23    86    84   am
    24    80    77    1
    25    26    24   ar
    26    26    25   ar
    27    76    77    1
    28    84    85    2
    29    84    83    1
    30    77    78    1
    31    79    78    2
    32    24    22   ar
    33    78    82   am
    34    69    70    1
    35    69    68    1
    36    70    64    1
    37    25    23   ar
    38    82    83    1
    39   128   127    1
    40    62    61   ar
    41    59    56    1
    42    59    60    1
    43   125   126    1
    44   125   124    1
    45    22    21   ar
    46   127   126    2
    47   127   129    1
    48   122   121    2
    49    68    65    1
    50    56    55    1
    51    56    57    1
    52    23    21   ar
    53   123   124    1
    54   123   120    1
    55    64    57   am
    56    64    65    1
    57   121   120    1
    58    61    60    1
    59    61    63   ar
    60    21    20    1
    61   112   110    1
    62     5     6    1
    63     5     2    1
    64    57    58    2
    65    65    66    1
    66     8     6   am
    67   120   119    1
    68     4     3    2
    69   113   111    1
    70     6     7    2
    71    71    66   am
    72    71    72    1
    73     2     3    1
    74     2     1    1
    75   110   111    1
    76   110   107    1
    77    75    72    1
    78    20    17    1
    79    66    67    2
    80     3     9   am
    81    50    52   ar
    82    50    49   ar
    83    52    54   ar
    84   108   109    2
    85   108   107    1
    86    48    49    1
    87    48    45    1
    88    49    51   ar
    89    72    73    1
    90    54    53   ar
    91   117   116    2
    92    46    45    1
    93    46    47    2
    94    17    16    1
    95    17    18    1
    96   116   115    1
    97   107   106    1
    98    51    53   ar
    99    16    11   am
   100    45    44    1
   101    15    13    1
   102     9    10    1
   103    43    42    1
   104    12    11    2
   105    11    10    1
   106   118   115    1
   107    13    10    1
   108    13    14    1
   109    73    74    2
   110    31    30    2
   111   115   114    1
   112    18    28   am
   113    18    19    2
   114    28    29    1
   115    42    41    1
   116    30    29    1
   117    30    36   am
   118    29    32    1
   119    32    33    1
   120    32    34    1
   121    33    35    1
   122    37    36    1
   123    37    38    1
   124    37    40    1
   125    39    38    2
   126    41    40    1
