@<TRIPOS>MOLECULE
tmp/4lwyB07.pdb
 83 81 0 0 0
SMALL
GASTEIGER

@<TRIPOS>ATOM
      1  N        -63.0600   51.9360   13.6070 N.3    75  LEU75      -0.1231
      2  CA       -64.0220   51.2920   12.7180 C.3    75  LEU75       0.1693
      3  C        -64.7740   52.2920   11.8630 C.2    75  LEU75       0.2593
      4  O        -65.7030   51.9320   11.1530 O.2    75  LEU75      -0.2718
      5  CB       -65.0110   50.4410   13.5120 C.3    75  LEU75       0.0284
      6  CG       -64.3820   49.1980   14.1340 C.3    75  LEU75       0.0019
      7  CD1      -65.2810   48.6000   15.2070 C.3    75  LEU75       0.0001
      8  CD2      -64.0690   48.1790   13.0500 C.3    75  LEU75       0.0001
      9  N        -64.4030   53.5590   11.9540 N.am   76  GLY76      -0.1942
     10  CA       -65.0980   54.5870   11.2030 C.3    76  GLY76       0.2014
     11  C        -64.5410   54.7280    9.8070 C.2    76  GLY76       0.2639
     12  O        -63.7440   53.8960    9.3720 O.2    76  GLY76      -0.2714
     13  N        -64.9670   55.7800    9.1090 N.am   77  GLY77      -0.1954
     14  CA       -64.4840   56.0620    7.7700 C.3    77  GLY77       0.1869
     15  C        -63.1360   56.7530    7.7910 C.2    77  GLY77       0.2309
     16  O        -62.6720   57.2130    8.8330 O.2    77  GLY77      -0.2863
     17  N        -58.9190   51.4020    0.4890 N.3    86  TRP86      -0.1227
     18  CA       -58.9030   50.0150    0.9250 C.3    86  TRP86       0.1737
     19  C        -60.2740   49.5780    1.3560 C.2    86  TRP86       0.2595
     20  O        -60.6820   48.4590    1.0690 O.2    86  TRP86      -0.2718
     21  CB       -57.9630   49.8610    2.1070 C.3    86  TRP86       0.0564
     22  CG       -57.8630   48.4710    2.6250 C.ar   86  TRP86       0.0003
     23  CD1      -56.8810   47.5680    2.3470 C.ar   86  TRP86       0.0946
     24  CD2      -58.7590   47.8250    3.5360 C.ar   86  TRP86       0.0152
     25  NE1      -57.1110   46.3970    3.0290 N.ar   86  TRP86      -0.2442
     26  CE2      -58.2590   46.5300    3.7650 C.ar   86  TRP86       0.0810
     27  CE3      -59.9340   48.2170    4.1830 C.ar   86  TRP86       0.0012
     28  CZ2      -58.8970   45.6200    4.6060 C.ar   86  TRP86       0.0191
     29  CZ3      -60.5720   47.3130    5.0170 C.ar   86  TRP86       0.0001
     30  CH2      -60.0520   46.0280    5.2230 C.ar   86  TRP86       0.0015
     31  N        -60.9690   50.4660    2.0600 N.am   87  GLN87      -0.1979
     32  CA       -62.2900   50.1730    2.5950 C.3    87  GLN87       0.1601
     33  C        -63.3170   49.9330    1.4920 C.2    87  GLN87       0.2287
     34  O        -64.1260   49.0140    1.5890 O.2    87  GLN87      -0.2864
     35  CB       -62.7660   51.3080    3.5110 C.3    87  GLN87       0.0394
     36  CG       -61.9620   51.5100    4.7920 C.3    87  GLN87       0.0908
     37  CD       -62.5340   52.6180    5.6640 C.2    87  GLN87       0.2608
     38  OE1      -63.0510   53.6160    5.1630 O.2    87  GLN87      -0.2717
     39  NE2      -62.4530   52.4390    6.9760 N.am   87  GLN87      -0.0878
     40  N        -62.2830   46.7180   -0.5290 N.3    90  THR90      -0.1203
     41  CA       -62.8560   45.5910    0.2000 C.3    90  THR90       0.1994
     42  C        -64.3430   45.4090   -0.0740 C.2    90  THR90       0.2617
     43  O        -64.7950   44.2900   -0.2750 O.2    90  THR90      -0.2717
     44  CB       -62.6330   45.7310    1.6910 C.3    90  THR90       0.1784
     45  OG1      -61.2270   45.6750    1.9350 O.3    90  THR90      -0.2211
     46  CG2      -63.3030   44.6040    2.4400 C.3    90  THR90       0.0376
     47  N        -65.1050   46.4940   -0.0950 N.am   91  ILE91      -0.1979
     48  CA       -66.5100   46.4030   -0.5040 C.3    91  ILE91       0.1595
     49  C        -66.6450   45.8800   -1.9460 C.2    91  ILE91       0.2287
     50  O        -67.4780   45.0130   -2.2280 O.2    91  ILE91      -0.2864
     51  CB       -67.2350   47.7520   -0.3710 C.3    91  ILE91       0.0276
     52  CG1      -67.3170   48.1660    1.0880 C.3    91  ILE91       0.0022
     53  CG2      -68.6300   47.6740   -0.9460 C.3    91  ILE91       0.0022
     54  CD1      -67.9460   49.5160    1.2770 C.3    91  ILE91       0.0001
     55  N        -65.5030   42.0280   -1.7580 N.3    94  THR94      -0.1218
     56  CA       -66.5420   41.2300   -1.1320 C.3    94  THR94       0.1862
     57  C        -67.7630   41.1780   -2.0370 C.2    94  THR94       0.2287
     58  O        -68.4370   40.1520   -2.1350 O.2    94  THR94      -0.2866
     59  CB       -66.8930   41.7670    0.2700 C.3    94  THR94       0.1770
     60  OG1      -65.8370   41.4210    1.1700 O.3    94  THR94      -0.2211
     61  CG2      -68.1800   41.1570    0.7900 C.3    94  THR94       0.0375
     62  N        -62.7360   41.6020    7.7740 N.3   133  LEU133     -0.1245
     63  CA       -63.9650   42.1020    8.3860 C.3   133  LEU133      0.1561
     64  C        -64.1990   41.6310    9.8040 C.2   133  LEU133      0.2260
     65  O        -64.2150   42.4370   10.7170 O.2   133  LEU133     -0.2867
     66  CB       -65.1760   41.7690    7.5280 C.3   133  LEU133      0.0270
     67  CG       -66.3570   42.7040    7.7440 C.3   133  LEU133      0.0019
     68  CD1      -67.0320   42.9780    6.4150 C.3   133  LEU133      0.0001
     69  CD2      -67.3370   42.1120    8.7320 C.3   133  LEU133      0.0001
     70  N        -59.8810   48.7950   11.2570 N.3   142  TRP142     -0.1241
     71  CA       -59.6690   48.2620    9.9160 C.3   142  TRP142      0.1605
     72  C        -58.1850   48.0620    9.6530 C.2   142  TRP142      0.2264
     73  O        -57.8140   47.3230    8.7500 O.2   142  TRP142     -0.2867
     74  CB       -60.2600   49.1660    8.8310 C.3   142  TRP142      0.0550
     75  CG       -61.7120   49.4410    8.9930 C.ar  142  TRP142      0.0003
     76  CD1      -62.2810   50.6130    9.3910 C.ar  142  TRP142      0.0946
     77  CD2      -62.7920   48.5260    8.7700 C.ar  142  TRP142      0.0152
     78  NE1      -63.6480   50.4900    9.4250 N.ar  142  TRP142     -0.2442
     79  CE2      -63.9870   49.2160    9.0530 C.ar  142  TRP142      0.0810
     80  CE3      -62.8660   47.1920    8.3560 C.ar  142  TRP142      0.0012
     81  CZ2      -65.2410   48.6130    8.9360 C.ar  142  TRP142      0.0191
     82  CZ3      -64.1130   46.5970    8.2420 C.ar  142  TRP142      0.0001
     83  CH2      -65.2800   47.3070    8.5310 C.ar  142  TRP142      0.0015
@<TRIPOS>BOND
     1    50    49    2
     2    58    57    2
     3    57    56    1
     4    49    48    1
     5    55    56    1
     6    56    59    1
     7    53    51    1
     8    40    41    1
     9    48    51    1
    10    48    47    1
    11    51    52    1
    12    43    42    2
    13    47    42   am
    14    42    41    1
    15    41    44    1
    16    59    61    1
    17    59    60    1
    18    17    18    1
    19    18    19    1
    20    18    21    1
    21    20    19    2
    22    52    54    1
    23    19    31   am
    24    33    34    2
    25    33    32    1
    26    44    45    1
    27    44    46    1
    28    31    32    1
    29    21    22    1
    30    23    22   ar
    31    23    25   ar
    32    32    35    1
    33    22    24   ar
    34    25    26   ar
    35    35    36    1
    36    24    26   ar
    37    24    27   ar
    38    26    28   ar
    39    27    29   ar
    40    28    30   ar
    41    36    37    1
    42    29    30   ar
    43    38    37    2
    44    37    39   am
    45    68    67    1
    46    66    67    1
    47    66    63    1
    48    67    69    1
    49    14    15    1
    50    14    13    1
    51    62    63    1
    52    15    16    2
    53    82    80   ar
    54    82    83   ar
    55    80    77   ar
    56    63    64    1
    57    83    81   ar
    58    73    72    2
    59    77    75   ar
    60    77    79   ar
    61    74    75    1
    62    74    71    1
    63    81    79   ar
    64    75    76   ar
    65    79    78   ar
    66    13    11   am
    67    12    11    2
    68    76    78   ar
    69    72    71    1
    70    64    65    2
    71    11    10    1
    72    71    70    1
    73     4     3    2
    74    10     9    1
    75     3     9   am
    76     3     2    1
    77     2     5    1
    78     2     1    1
    79     8     6    1
    80     5     6    1
    81     6     7    1
