@<TRIPOS>MOLECULE
tmp/4lwyB08.pdb
 89 83 0 0 0
SMALL
GASTEIGER

@<TRIPOS>ATOM
      1  N        -81.7430   33.6960  -10.6890 N.3    16  LEU16      -0.1245
      2  CA       -82.3250   34.1200   -9.4110 C.3    16  LEU16       0.1561
      3  C        -82.9630   35.5130   -9.5030 C.2    16  LEU16       0.2260
      4  O        -83.9330   35.8210   -8.8170 O.2    16  LEU16      -0.2867
      5  CB       -81.2750   34.0900   -8.3150 C.3    16  LEU16       0.0270
      6  CG       -80.6320   32.7280   -8.0870 C.3    16  LEU16       0.0019
      7  CD1      -79.2990   32.8510   -7.3350 C.3    16  LEU16       0.0001
      8  CD2      -81.5990   31.7980   -7.3520 C.3    16  LEU16       0.0001
      9  N        -69.0000   37.5010   -3.9380 N.3    98  VAL98      -0.1245
     10  CA       -70.3560   37.0760   -3.6470 C.3    98  VAL98       0.1561
     11  C        -71.2210   37.1320   -4.9010 C.2    98  VAL98       0.2260
     12  O        -72.0610   36.2650   -5.1120 O.2    98  VAL98      -0.2867
     13  CB       -70.9510   37.9540   -2.5130 C.3    98  VAL98       0.0252
     14  CG1      -72.4640   37.8350   -2.4220 C.3    98  VAL98       0.0019
     15  CG2      -70.2870   37.5920   -1.1990 C.3    98  VAL98       0.0019
     16  N        -70.0660   33.8730   -6.5800 N.3   101  ALA101     -0.1231
     17  CA       -70.7150   32.6880   -6.0450 C.3   101  ALA101      0.1694
     18  C        -72.1800   32.6050   -6.4700 C.2   101  ALA101      0.2591
     19  O        -72.6700   31.5260   -6.7830 O.2   101  ALA101     -0.2718
     20  CB       -70.6030   32.6490   -4.5460 C.3   101  ALA101      0.0304
     21  N        -72.8830   33.7300   -6.4880 N.am  102  LEU102     -0.1980
     22  CA       -74.2940   33.6930   -6.8530 C.3   102  LEU102      0.1596
     23  C        -74.4690   33.4230   -8.3530 C.2   102  LEU102      0.2287
     24  O        -75.4100   32.7310   -8.7600 O.2   102  LEU102     -0.2864
     25  CB       -75.0410   34.9590   -6.4070 C.3   102  LEU102      0.0297
     26  CG       -75.2730   35.1600   -4.9000 C.3   102  LEU102      0.0022
     27  CD1      -76.2960   36.2440   -4.6250 C.3   102  LEU102      0.0001
     28  CD2      -75.6960   33.8820   -4.2020 C.3   102  LEU102      0.0001
     29  N        -74.3140   29.8590   -8.7130 N.3   105  VAL105     -0.1245
     30  CA       -75.5700   29.2290   -8.3280 C.3   105  VAL105      0.1561
     31  C        -76.5250   29.2590   -9.5140 C.2   105  VAL105      0.2260
     32  O        -77.2770   28.3130   -9.7390 O.2   105  VAL105     -0.2867
     33  CB       -76.2180   29.9240   -7.0930 C.3   105  VAL105      0.0252
     34  CG1      -77.6380   29.4340   -6.8500 C.3   105  VAL105      0.0019
     35  CG2      -75.3750   29.7040   -5.8500 C.3   105  VAL105      0.0019
     36  N        -78.1480   26.1090  -11.7110 N.3   109  ARG109     -0.1245
     37  CA       -79.5670   25.8940  -11.8970 C.3   109  ARG109      0.1563
     38  C        -79.8930   25.5470  -13.3340 C.2   109  ARG109      0.2260
     39  O        -80.7890   24.7440  -13.6070 O.2   109  ARG109     -0.2867
     40  CB       -80.3580   27.0840  -11.3750 C.3   109  ARG109      0.0307
     41  CG       -80.3160   27.1180   -9.8650 C.3   109  ARG109      0.0489
     42  CD       -80.6960   28.4630   -9.3360 C.3   109  ARG109      0.2205
     43  NE       -82.0550   28.8160   -9.7100 N.pl3 109  ARG109     -0.0865
     44  CZ       -83.1100   28.6120   -8.9340 C.cat 109  ARG109      0.5346
     45  NH1      -82.9580   28.0530   -7.7380 N.pl3 109  ARG109      0.1354
     46  NH2      -84.3160   28.9680   -9.3570 N.pl3 109  ARG109      0.1354
     47  N        -75.5610   22.3850   -5.7980 N.3   115  TYR115     -0.1241
     48  CA       -74.9430   23.6740   -5.4600 C.3   115  TYR115      0.1605
     49  C        -73.5760   23.5350   -4.7760 C.2   115  TYR115      0.2264
     50  O        -73.0170   24.5190   -4.3030 O.2   115  TYR115     -0.2867
     51  CB       -75.8600   24.4900   -4.5570 C.3   115  TYR115      0.0534
     52  CG       -77.1990   24.8370   -5.1530 C.ar  115  TYR115     -0.0201
     53  CD1      -77.3470   25.0400   -6.5160 C.ar  115  TYR115     -0.0009
     54  CD2      -78.3180   24.9720   -4.3390 C.ar  115  TYR115     -0.0009
     55  CE1      -78.5770   25.3690   -7.0470 C.ar  115  TYR115      0.0417
     56  CE2      -79.5410   25.2940   -4.8590 C.ar  115  TYR115      0.0417
     57  CZ       -79.6690   25.4910   -6.2110 C.ar  115  TYR115      0.1957
     58  OH       -80.9030   25.8120   -6.7140 O.3   115  TYR115     -0.2866
     59  N        -70.4660   26.3970   -5.4700 N.3   118  PRO118     -0.2102
     60  CA       -70.4960   27.7100   -4.8230 C.3   118  PRO118      0.1504
     61  C        -70.7270   27.6260   -3.3140 C.2   118  PRO118      0.2575
     62  O        -70.5400   28.6030   -2.6160 O.2   118  PRO118     -0.2718
     63  CB       -71.6570   28.4260   -5.5310 C.3   118  PRO118      0.0282
     64  CG       -72.5310   27.3510   -5.9760 C.3   118  PRO118      0.0208
     65  CD       -71.6340   26.2150   -6.3490 C.3   118  PRO118      0.0893
     66  N        -71.1670   26.4820   -2.8210 N.am  119  PHE119     -0.1977
     67  CA       -71.1640   26.2570   -1.3890 C.3   119  PHE119      0.1639
     68  C        -69.7110   26.2520   -0.8840 C.2   119  PHE119      0.2290
     69  O        -69.3590   26.9810    0.0520 O.2   119  PHE119     -0.2864
     70  CB       -71.8360   24.9310   -1.0740 C.3   119  PHE119      0.0560
     71  CG       -71.7860   24.5620    0.3790 C.ar  119  PHE119     -0.0200
     72  CD1      -70.7110   23.8310    0.8940 C.ar  119  PHE119     -0.0042
     73  CD2      -72.8150   24.9450    1.2460 C.ar  119  PHE119     -0.0042
     74  CE1      -70.6630   23.4950    2.2460 C.ar  119  PHE119     -0.0003
     75  CE2      -72.7700   24.6030    2.5880 C.ar  119  PHE119     -0.0003
     76  CZ       -71.6920   23.8850    3.0850 C.ar  119  PHE119     -0.0000
     77  N        -67.8280   29.5500   -0.8370 N.3   122  ALA122     -0.1245
     78  CA       -68.1640   30.3980    0.2940 C.3   122  ALA122      0.1562
     79  C        -67.2130   30.1900    1.4790 C.2   122  ALA122      0.2260
     80  O        -67.0000   31.0990    2.2850 O.2   122  ALA122     -0.2867
     81  CB       -69.5990   30.1800    0.7020 C.3   122  ALA122      0.0290
     82  N        -64.4070   32.6720    0.6000 N.3   125  ILE125     -0.1245
     83  CA       -64.9400   33.9760    0.9430 C.3   125  ILE125      0.1561
     84  C        -64.9650   34.1830    2.4740 C.2   125  ILE125      0.2260
     85  O        -64.5370   35.2310    2.9560 O.2   125  ILE125     -0.2867
     86  CB       -66.3370   34.1840    0.3360 C.3   125  ILE125      0.0252
     87  CG1      -66.2270   34.6560   -1.1180 C.3   125  ILE125      0.0019
     88  CG2      -67.1390   35.1760    1.1540 C.3   125  ILE125      0.0019
     89  CD1      -67.5830   34.8950   -1.7910 C.3   125  ILE125      0.0001
@<TRIPOS>BOND
     1    39    38    2
     2    38    37    1
     3    37    36    1
     4    37    40    1
     5    40    41    1
     6     1     2    1
     7    41    42    1
     8    32    31    2
     9    43    42    1
    10    43    44    2
    11    31    30    1
    12     3     2    1
    13     3     4    2
    14     2     5    1
    15    46    44    1
    16    44    45    1
    17    24    23    2
    18    29    30    1
    19    23    22    1
    20    30    33    1
    21     5     6    1
    22     6     8    1
    23     6     7    1
    24    33    34    1
    25    33    35    1
    26    55    53   ar
    27    55    57   ar
    28    22    21    1
    29    22    25    1
    30    19    18    2
    31    58    57    1
    32    16    17    1
    33    53    52   ar
    34    21    18   am
    35    18    17    1
    36    25    26    1
    37    65    64    1
    38    65    59    1
    39    57    56   ar
    40    17    20    1
    41    64    63    1
    42    47    48    1
    43    63    60    1
    44    59    60    1
    45    48    49    1
    46    48    51    1
    47    52    51    1
    48    52    54   ar
    49    12    11    2
    50    11    10    1
    51    26    27    1
    52    26    28    1
    53    56    54   ar
    54    60    61    1
    55    49    50    2
    56     9    10    1
    57    10    13    1
    58    61    66   am
    59    61    62    2
    60    66    67    1
    61    13    14    1
    62    13    15    1
    63    89    87    1
    64    67    70    1
    65    67    68    1
    66    87    86    1
    67    70    71    1
    68    68    69    2
    69    77    78    1
    70    78    81    1
    71    78    79    1
    72    86    83    1
    73    86    88    1
    74    71    72   ar
    75    71    73   ar
    76    82    83    1
    77    72    74   ar
    78    83    84    1
    79    73    75   ar
    80    79    80    2
    81    74    76   ar
    82    84    85    2
    83    75    76   ar
