@<TRIPOS>MOLECULE
tmp/4lx4B00.pdb
 119 118 0 0 0
SMALL
GASTEIGER

@<TRIPOS>ATOM
      1  N         -8.3150   34.9880  102.8680 N.3    97  HIS97      -0.1241
      2  CA        -8.9150   34.7660  101.5460 C.3    97  HIS97       0.1621
      3  C        -10.4320   35.0250  101.5610 C.2    97  HIS97       0.2264
      4  O        -11.2230   34.1620  101.2110 O.2    97  HIS97      -0.2867
      5  CB        -8.5690   33.3230  101.1220 C.3    97  HIS97       0.0745
      6  CG        -8.4870   33.1130   99.6410 C.ar   97  HIS97       0.0817
      7  ND1       -7.5030   33.6740   98.8600 N.ar   97  HIS97      -0.2268
      8  CD2       -9.2610   32.3800   98.8100 C.ar   97  HIS97       0.1154
      9  CE1       -7.6820   33.3050   97.6010 C.ar   97  HIS97       0.1986
     10  NE2       -8.7410   32.5190   97.5460 N.ar   97  HIS97      -0.2212
     11  N        -12.5730   37.9300  100.5140 N.3    99  TYR99      -0.1241
     12  CA       -13.3940   38.6980   99.5710 C.3    99  TYR99       0.1605
     13  C        -14.1160   39.8900  100.1880 C.2    99  TYR99       0.2264
     14  O        -15.2000   40.2590   99.7490 O.2    99  TYR99      -0.2867
     15  CB       -14.3970   37.7800   98.8690 C.3    99  TYR99       0.0534
     16  CG       -13.7230   36.6090   98.2190 C.ar   99  TYR99      -0.0201
     17  CD1      -13.1360   36.7320   96.9680 C.ar   99  TYR99      -0.0009
     18  CD2      -13.6480   35.3850   98.8660 C.ar   99  TYR99      -0.0009
     19  CE1      -12.5030   35.6660   96.3750 C.ar   99  TYR99       0.0417
     20  CE2      -13.0150   34.3020   98.2730 C.ar   99  TYR99       0.0417
     21  CZ       -12.4510   34.4530   97.0240 C.ar   99  TYR99       0.1957
     22  OH       -11.8290   33.3900   96.4260 O.3    99  TYR99      -0.2866
     23  N         -7.9570   38.8780  100.3750 N.3   141  ASN141     -0.1225
     24  CA        -8.1230   38.4460   98.9850 C.3   141  ASN141      0.1785
     25  C         -9.3640   39.0320   98.2950 C.2   141  ASN141      0.2597
     26  O        -10.5010   38.8450   98.7650 O.2   141  ASN141     -0.2718
     27  CB        -8.2180   36.9150   98.9330 C.3   141  ASN141      0.1169
     28  CG        -8.3680   36.3790   97.5190 C.2   141  ASN141      0.2627
     29  OD1       -7.4400   36.4060   96.7280 O.2   141  ASN141     -0.2716
     30  ND2       -9.5340   35.8250   97.2260 N.am  141  ASN141     -0.0877
     31  N         -9.1390   39.6830   97.1510 N.am  142  GLU142     -0.1979
     32  CA       -10.2160   40.0880   96.2330 C.3   142  GLU142      0.1602
     33  C        -11.4950   40.6810   96.8330 C.2   142  GLU142      0.2287
     34  O        -12.5680   40.0780   96.7560 O.2   142  GLU142     -0.2864
     35  CB       -10.5650   38.9420   95.2890 C.3   142  GLU142      0.0415
     36  CG        -9.3870   38.4860   94.4660 C.3   142  GLU142      0.1163
     37  CD        -9.7630   37.4810   93.3960 C.2   142  GLU142      0.3649
     38  OE1      -10.8960   36.9460   93.4220 O.co2 142  GLU142     -0.2457
     39  OE2       -8.9230   37.2660   92.4970 O.co2 142  GLU142     -0.2457
     40  N        -12.3540   42.5690   92.6370 N.3   177  TRP177     -0.1241
     41  CA       -11.5800   41.3370   92.6520 C.3   177  TRP177      0.1605
     42  C        -10.1050   41.6350   92.4280 C.2   177  TRP177      0.2264
     43  O         -9.3620   40.8050   91.9130 O.2   177  TRP177     -0.2867
     44  CB       -12.0970   40.3610   91.5900 C.3   177  TRP177      0.0550
     45  CG       -13.5870   40.1250   91.6390 C.ar  177  TRP177      0.0003
     46  CD1      -14.5540   40.8480   91.0000 C.ar  177  TRP177      0.0946
     47  CD2      -14.2720   39.0910   92.3570 C.ar  177  TRP177      0.0152
     48  NE1      -15.7940   40.3310   91.2800 N.ar  177  TRP177     -0.2442
     49  CE2      -15.6490   39.2510   92.1100 C.ar  177  TRP177      0.0810
     50  CE3      -13.8540   38.0440   93.1850 C.ar  177  TRP177      0.0012
     51  CZ2      -16.6090   38.4070   92.6590 C.ar  177  TRP177      0.0191
     52  CZ3      -14.8080   37.2070   93.7290 C.ar  177  TRP177      0.0001
     53  CH2      -16.1710   37.3940   93.4660 C.ar  177  TRP177      0.0015
     54  N         -6.0120   37.4680   85.0990 N.3   206  TYR206     -0.1241
     55  CA        -6.2840   36.3120   84.2420 C.3   206  TYR206      0.1605
     56  C         -6.5280   36.7180   82.7920 C.2   206  TYR206      0.2264
     57  O         -6.7300   37.9030   82.4940 O.2   206  TYR206     -0.2867
     58  CB        -7.4530   35.4930   84.8000 C.3   206  TYR206      0.0534
     59  CG        -7.1400   34.8390   86.1370 C.ar  206  TYR206     -0.0201
     60  CD1       -6.4370   33.6440   86.1960 C.ar  206  TYR206     -0.0009
     61  CD2       -7.5150   35.4400   87.3390 C.ar  206  TYR206     -0.0009
     62  CE1       -6.1340   33.0480   87.4070 C.ar  206  TYR206      0.0417
     63  CE2       -7.2180   34.8490   88.5610 C.ar  206  TYR206      0.0417
     64  CZ        -6.5320   33.6480   88.5900 C.ar  206  TYR206      0.1957
     65  OH        -6.2410   33.0510   89.8060 O.3   206  TYR206     -0.2866
     66  N        -12.1600   36.7200   84.7770 N.3   212  SER212     -0.1202
     67  CA       -12.5300   35.9100   85.9350 C.3   212  SER212      0.2020
     68  C        -11.5530   34.7730   86.2540 C.2   212  SER212      0.2619
     69  O        -11.5540   34.2600   87.3700 O.2   212  SER212     -0.2717
     70  CB       -13.9480   35.3460   85.7690 C.3   212  SER212      0.2103
     71  OG       -13.9460   34.2230   84.9230 O.3   212  SER212     -0.2182
     72  N        -10.7530   34.3450   85.2830 N.am  213  GLY213     -0.1942
     73  CA        -9.8720   33.2160   85.5140 C.3   213  GLY213      0.2014
     74  C        -10.5300   31.8460   85.5570 C.2   213  GLY213      0.2638
     75  O         -9.9170   30.8750   86.0130 O.2   213  GLY213     -0.2714
     76  N        -11.8120   31.7970   85.2190 N.am  214  LYS214     -0.1977
     77  CA       -12.5420   30.5460   85.0310 C.3   214  LYS214      0.1596
     78  C        -12.0750   29.7670   83.8010 C.2   214  LYS214      0.2287
     79  O        -12.0690   28.5370   83.7830 O.2   214  LYS214     -0.2864
     80  CB       -14.0500   30.7960   85.0040 C.3   214  LYS214      0.0298
     81  CG       -14.6280   31.0900   86.3790 C.3   214  LYS214      0.0038
     82  CD       -16.0180   31.6970   86.2910 C.3   214  LYS214      0.0206
     83  CE       -16.4290   32.3260   87.6120 C.3   214  LYS214      0.1093
     84  NZ       -15.8290   31.6120   88.7730 N.3   214  LYS214     -0.1314
     85  N         -2.0510   36.7650   91.8300 N.3   250  GLU250     -0.1245
     86  CA        -2.6080   35.6390   91.0940 C.3   250  GLU250      0.1567
     87  C         -2.5640   35.8450   89.5870 C.2   250  GLU250      0.2260
     88  O         -2.7550   36.9520   89.0810 O.2   250  GLU250     -0.2867
     89  CB        -4.0540   35.3500   91.4910 C.3   250  GLU250      0.0388
     90  CG        -4.2660   34.8640   92.8890 C.3   250  GLU250      0.1160
     91  CD        -5.7130   34.5740   93.1650 C.2   250  GLU250      0.3649
     92  OE1       -6.4480   34.2480   92.2120 O.co2 250  GLU250     -0.2457
     93  OE2       -6.1130   34.6710   94.3370 O.co2 250  GLU250     -0.2457
     94  N         -1.4030   30.7100   90.2660 N.3   281  TRP281     -0.1241
     95  CA        -2.5670   29.9950   90.7990 C.3   281  TRP281      0.1605
     96  C         -2.8490   28.7390   89.9810 C.2   281  TRP281      0.2264
     97  O         -3.2550   28.8440   88.8300 O.2   281  TRP281     -0.2867
     98  CB        -3.7990   30.9170   90.8050 C.3   281  TRP281      0.0550
     99  CG        -4.9870   30.3510   91.4920 C.ar  281  TRP281      0.0003
    100  CD1       -5.9820   29.5930   90.9380 C.ar  281  TRP281      0.0946
    101  CD2       -5.3000   30.4720   92.8770 C.ar  281  TRP281      0.0152
    102  NE1       -6.9030   29.2410   91.8990 N.ar  281  TRP281     -0.2442
    103  CE2       -6.5050   29.7690   93.1010 C.ar  281  TRP281      0.0810
    104  CE3       -4.6720   31.1050   93.9560 C.ar  281  TRP281      0.0012
    105  CZ2       -7.0940   29.6850   94.3610 C.ar  281  TRP281      0.0191
    106  CZ3       -5.2610   31.0270   95.2030 C.ar  281  TRP281      0.0001
    107  CH2       -6.4630   30.3290   95.3960 C.ar  281  TRP281      0.0015
    108  N         -7.5130   19.6430   87.8470 N.3   290  TYR290     -0.1241
    109  CA        -7.7610   21.0670   87.5850 C.3   290  TYR290      0.1605
    110  C         -6.7940   21.5970   86.5280 C.2   290  TYR290      0.2264
    111  O         -5.5800   21.4000   86.6500 O.2   290  TYR290     -0.2867
    112  CB        -7.6280   21.8330   88.9140 C.3   290  TYR290      0.0534
    113  CG        -7.8790   23.3290   88.8910 C.ar  290  TYR290     -0.0201
    114  CD1       -8.7230   23.9150   87.9620 C.ar  290  TYR290     -0.0009
    115  CD2       -7.3110   24.1410   89.8560 C.ar  290  TYR290     -0.0009
    116  CE1       -8.9530   25.2820   87.9730 C.ar  290  TYR290      0.0417
    117  CE2       -7.5350   25.4980   89.8760 C.ar  290  TYR290      0.0417
    118  CZ        -8.3540   26.0670   88.9340 C.ar  290  TYR290      0.1957
    119  OH        -8.5690   27.4260   88.9820 O.3   290  TYR290     -0.2866
@<TRIPOS>BOND
     1    57    56    2
     2    56    55    1
     3    79    78    2
     4    78    77    1
     5    55    58    1
     6    55    54    1
     7    66    67    1
     8    58    59    1
     9    71    70    1
    10    80    77    1
    11    80    81    1
    12    77    76    1
    13    76    74   am
    14    72    73    1
    15    72    68   am
    16    73    74    1
    17    74    75    2
    18    70    67    1
    19    67    68    1
    20    59    60   ar
    21    59    61   ar
    22    60    62   ar
    23    68    69    2
    24    82    81    1
    25    82    83    1
    26   110   111    2
    27   110   109    1
    28    61    63   ar
    29    62    64   ar
    30   109   108    1
    31   109   112    1
    32    83    84    1
    33   114   116   ar
    34   114   113   ar
    35   116   118   ar
    36    63    64   ar
    37    64    65    1
    38    97    96    2
    39   113   112    1
    40   113   115   ar
    41   118   119    1
    42   118   117   ar
    43    88    87    2
    44    87    86    1
    45   115   117   ar
    46    96    95    1
    47    94    95    1
    48    95    98    1
    49    98    99    1
    50   100    99   ar
    51   100   102   ar
    52    46    48   ar
    53    46    45   ar
    54    86    89    1
    55    86    85    1
    56    48    49   ar
    57    89    90    1
    58    99   101   ar
    59    44    45    1
    60    44    41    1
    61    45    47   ar
    62   102   103   ar
    63    43    42    2
    64    49    47   ar
    65    49    51   ar
    66    92    91   ar
    67    47    50   ar
    68    42    41    1
    69    39    37   ar
    70    40    41    1
    71    51    53   ar
    72   101   103   ar
    73   101   104   ar
    74    90    91    1
    75   103   105   ar
    76    91    93   ar
    77    50    52   ar
    78    37    38   ar
    79    37    36    1
    80    53    52   ar
    81   104   106   ar
    82   105   107   ar
    83    36    35    1
    84   106   107   ar
    85    35    32    1
    86    32    33    1
    87    32    31    1
    88    19    17   ar
    89    19    21   ar
    90    22    21    1
    91    29    28    2
    92    34    33    2
    93    17    16   ar
    94    21    20   ar
    95    31    25   am
    96    30    28   am
    97    28    27    1
    98    10     9   ar
    99    10     8   ar
   100     9     7   ar
   101    16    18   ar
   102    16    15    1
   103    20    18   ar
   104    25    26    2
   105    25    24    1
   106     8     6   ar
   107     7     6   ar
   108    15    12    1
   109    27    24    1
   110    24    23    1
   111    12    13    1
   112    12    11    1
   113     6     5    1
   114    14    13    2
   115     5     2    1
   116     4     3    2
   117     2     3    1
   118     2     1    1
