@<TRIPOS>MOLECULE
tmp/4lxbA02.pdb
 216 217 0 0 0
SMALL
GASTEIGER

@<TRIPOS>ATOM
      1  N          5.9670   -6.4400   17.2740 N.3    43  HIS43      -0.1241
      2  CA         6.1500   -7.8170   17.7820 C.3    43  HIS43       0.1621
      3  C          6.8870   -7.8830   19.1240 C.2    43  HIS43       0.2264
      4  O          6.8320   -8.9080   19.7990 O.2    43  HIS43      -0.2867
      5  CB         6.7860   -8.7570   16.7610 C.3    43  HIS43       0.0745
      6  CG         8.2690   -8.6240   16.6720 C.ar   43  HIS43       0.0817
      7  ND1        8.8520   -7.9030   15.6640 N.ar   43  HIS43      -0.2268
      8  CD2        9.2340   -9.0890   17.5000 C.ar   43  HIS43       0.1154
      9  CE1       10.1520   -7.9340   15.8970 C.ar   43  HIS43       0.1986
     10  NE2       10.4310   -8.6410   16.9970 N.ar   43  HIS43      -0.2212
     11  N          2.7560  -10.5070   20.2840 N.3    47  TYR47      -0.1241
     12  CA         3.0440  -11.6340   19.4050 C.3    47  TYR47       0.1605
     13  C          2.2980  -12.8420   19.9510 C.2    47  TYR47       0.2264
     14  O          2.8820  -13.6920   20.6240 O.2    47  TYR47      -0.2867
     15  CB         4.5560  -11.8860   19.2060 C.3    47  TYR47       0.0534
     16  CG         4.8070  -12.8180   18.0370 C.ar   47  TYR47      -0.0201
     17  CD1        4.4170  -12.4690   16.7440 C.ar   47  TYR47      -0.0009
     18  CD2        5.4230  -14.0530   18.2230 C.ar   47  TYR47      -0.0009
     19  CE1        4.5970  -13.3480   15.6700 C.ar   47  TYR47       0.0417
     20  CE2        5.6390  -14.9250   17.1520 C.ar   47  TYR47       0.0417
     21  CZ         5.2130  -14.5710   15.8800 C.ar   47  TYR47       0.1957
     22  OH         5.3480  -15.4570   14.8390 O.3    47  TYR47      -0.2866
     23  N          3.6080  -16.6160   20.5400 N.3    50  TRP50      -0.1241
     24  CA         4.5190  -16.8220   21.6800 C.3    50  TRP50       0.1605
     25  C          3.8710  -16.4010   23.0140 C.2    50  TRP50       0.2264
     26  O          4.5820  -16.2660   24.0130 O.2    50  TRP50      -0.2867
     27  CB         5.8040  -15.9970   21.4660 C.3    50  TRP50       0.0550
     28  CG         6.8060  -16.5730   20.4960 C.ar   50  TRP50       0.0003
     29  CD1        6.6030  -17.5640   19.5830 C.ar   50  TRP50       0.0946
     30  CD2        8.1680  -16.1530   20.3370 C.ar   50  TRP50       0.0152
     31  NE1        7.7550  -17.7870   18.8620 N.ar   50  TRP50      -0.2442
     32  CE2        8.7370  -16.9500   19.3180 C.ar   50  TRP50       0.0810
     33  CE3        8.9630  -15.1710   20.9530 C.ar   50  TRP50       0.0012
     34  CZ2       10.0730  -16.8090   18.9150 C.ar   50  TRP50       0.0191
     35  CZ3       10.2860  -15.0300   20.5490 C.ar   50  TRP50       0.0001
     36  CH2       10.8260  -15.8480   19.5470 C.ar   50  TRP50       0.0015
     37  N          0.5460   -9.7520   12.6610 N.3    92  TRP92      -0.1227
     38  CA         1.2790  -10.7780   13.4300 C.3    92  TRP92       0.1737
     39  C          0.9530  -12.1950   12.9600 C.2    92  TRP92       0.2595
     40  O          1.7050  -13.1160   13.2690 O.2    92  TRP92      -0.2718
     41  CB         0.9720  -10.6790   14.9320 C.3    92  TRP92       0.0564
     42  CG        -0.4760  -10.6460   15.3070 C.ar   92  TRP92       0.0003
     43  CD1       -1.2440   -9.5340   15.4930 C.ar   92  TRP92       0.0946
     44  CD2       -1.3220  -11.7750   15.5940 C.ar   92  TRP92       0.0152
     45  NE1       -2.5250   -9.8930   15.8380 N.ar   92  TRP92      -0.2442
     46  CE2       -2.6020  -11.2650   15.9190 C.ar   92  TRP92       0.0810
     47  CE3       -1.1180  -13.1650   15.6220 C.ar   92  TRP92       0.0012
     48  CZ2       -3.6680  -12.0940   16.2920 C.ar   92  TRP92       0.0191
     49  CZ3       -2.1850  -13.9900   15.9710 C.ar   92  TRP92       0.0001
     50  CH2       -3.4400  -13.4570   16.2950 C.ar   92  TRP92       0.0015
     51  N         -0.1720  -12.3840   12.2710 N.am   93  ARG93      -0.1966
     52  CA        -0.5800  -13.7320   11.8340 C.3    93  ARG93       0.1729
     53  C          0.2540  -14.2970   10.7010 C.2    93  ARG93       0.2619
     54  O          0.4690  -15.5150   10.6470 O.2    93  ARG93      -0.2715
     55  CB        -2.0510  -13.7320   11.3880 C.3    93  ARG93       0.0348
     56  CG        -3.0290  -13.4180   12.4950 C.3    93  ARG93       0.0492
     57  CD        -4.4310  -13.2720   11.9480 C.3    93  ARG93       0.2205
     58  NE        -5.3960  -13.1670   13.0380 N.pl3  93  ARG93      -0.0865
     59  CZ        -5.8830  -14.2070   13.7080 C.cat  93  ARG93       0.5346
     60  NH1       -5.5080  -15.4420   13.3970 N.pl3  93  ARG93       0.1354
     61  NH2       -6.7340  -14.0190   14.7020 N.pl3  93  ARG93       0.1354
     62  N          0.7350  -13.4220    9.8000 N.am   94  GLU94      -0.1918
     63  CA         1.4180  -13.8630    8.5880 C.3    94  GLU94       0.1949
     64  C          2.8970  -13.5050    8.4790 C.2    94  GLU94       0.2659
     65  O          3.7600  -14.3820    8.5790 O.2    94  GLU94      -0.2711
     66  CB         0.6420  -13.2960    7.3660 C.2    94  GLU94       0.0111
     67  CG         1.1470  -13.7250    5.9920 C.2    94  GLU94       0.0838
     68  CD         0.5650  -12.9850    4.7990 C.2    94  GLU94       0.3877
     69  OE1       -0.3280  -12.1230    4.9840 O.co2  94  GLU94      -0.2406
     70  OE2        1.0230  -13.2640    3.6680 O.co2  94  GLU94      -0.2406
     71  N          3.1840  -12.2270    8.2120 N.am   95  ASN95      -0.1955
     72  CA         4.5120  -11.7760    7.8320 C.3    95  ASN95       0.1819
     73  C          5.0680  -10.6190    8.6010 C.2    95  ASN95       0.2621
     74  O          6.0890  -10.0640    8.1920 O.2    95  ASN95      -0.2715
     75  CB         4.4940  -11.4240    6.3250 C.3    95  ASN95       0.1195
     76  CG         3.4510  -10.3950    5.9640 C.2    95  ASN95       0.2630
     77  OD1        2.7330   -9.8810    6.8350 O.2    95  ASN95      -0.2716
     78  ND2        3.3650  -10.0410    4.6810 N.am   95  ASN95      -0.0877
     79  N          4.4040  -10.2160    9.7010 N.am   96  LEU96      -0.1977
     80  CA         4.8380   -9.0510   10.5020 C.3    96  LEU96       0.1596
     81  C          4.7670   -7.7490    9.6700 C.2    96  LEU96       0.2287
     82  O          5.5070   -6.7840    9.9210 O.2    96  LEU96      -0.2864
     83  CB         6.2390   -9.2310   11.1330 C.3    96  LEU96       0.0297
     84  CG         6.4850  -10.4590   12.0080 C.3    96  LEU96       0.0022
     85  CD1        7.7850  -10.2880   12.8080 C.3    96  LEU96       0.0001
     86  CD2        5.3090  -10.7440   12.9600 C.3    96  LEU96       0.0001
     87  N          8.3050  -16.2760    2.7490 N.3   172  ILE172     -0.1245
     88  CA         7.4040  -15.3100    3.3590 C.3   172  ILE172      0.1561
     89  C          7.0500  -14.2120    2.3500 C.2   172  ILE172      0.2260
     90  O          7.9040  -13.8160    1.5460 O.2   172  ILE172     -0.2867
     91  CB         8.0450  -14.7690    4.6870 C.3   172  ILE172      0.0252
     92  CG1        8.2090  -15.9410    5.7020 C.3   172  ILE172      0.0019
     93  CG2        7.2310  -13.6060    5.2960 C.3   172  ILE172      0.0019
     94  CD1        9.1930  -15.7130    6.8570 C.3   172  ILE172      0.0001
     95  N         24.5850   -9.3940   10.8060 N.3   192  ASP192     -0.1225
     96  CA        23.1200   -9.3490   10.8690 C.3   192  ASP192      0.1805
     97  C         22.6660   -8.9720   12.2550 C.2   192  ASP192      0.2598
     98  O         23.4370   -9.0700   13.2210 O.2   192  ASP192     -0.2718
     99  CB        22.5430  -10.7610   10.5740 C.3   192  ASP192      0.1424
    100  CG        21.0680  -10.8120   10.1570 C.2   192  ASP192      0.3668
    101  OD1       20.4510   -9.7370    9.9780 O.co2 192  ASP192     -0.2456
    102  OD2       20.5430  -11.9310    9.9820 O.co2 192  ASP192     -0.2456
    103  N         21.3980   -8.5990   12.3670 N.am  193  ALA193     -0.1966
    104  CA        20.7590   -8.4590   13.6580 C.3   193  ALA193      0.1728
    105  C         20.4460   -9.9050   14.1210 C.2   193  ALA193      0.2616
    106  O         20.5220  -10.8580   13.3340 O.2   193  ALA193     -0.2715
    107  CB        19.4600   -7.6750   13.5150 C.3   193  ALA193      0.0334
    108  N         20.0790  -10.0760   15.3990 N.am  194  CYS194     -0.1954
    109  CA        19.7050  -11.3960   15.9200 C.3   194  CYS194      0.1843
    110  C         18.6910  -11.2580   17.0590 C.2   194  CYS194      0.2625
    111  O         18.2450  -10.1360   17.3410 O.2   194  CYS194     -0.2714
    112  CB        20.9400  -12.2000   16.3420 C.3   194  CYS194      0.0997
    113  SG        20.6920  -14.0090   16.3860 S.3   194  CYS194     -0.0797
    114  N         18.2820  -12.3940   17.6900 N.am  195  GLU195     -0.1977
    115  CA        17.3330  -12.3590   18.8030 C.3   195  GLU195      0.1602
    116  C         17.7930  -11.3500   19.8560 C.2   195  GLU195      0.2287
    117  O         18.9410  -11.4170   20.2980 O.2   195  GLU195     -0.2864
    118  CB        17.1930  -13.7550   19.4420 C.3   195  GLU195      0.0415
    119  CG        15.8750  -13.9490   20.1790 C.3   195  GLU195      0.1163
    120  CD        15.5000  -15.3820   20.5210 C.2   195  GLU195      0.3649
    121  OE1       16.3280  -16.2980   20.3050 O.co2 195  GLU195     -0.2457
    122  OE2       14.3530  -15.5900   20.9770 O.co2 195  GLU195     -0.2457
    123  N         15.6630   -7.1000   17.7710 N.3   198  SER198     -0.1217
    124  CA        14.3490   -6.7300   17.2380 C.3   198  SER198      0.1889
    125  C         13.8390   -5.4670   17.9000 C.2   198  SER198      0.2288
    126  O         13.9650   -5.3040   19.1260 O.2   198  SER198     -0.2866
    127  CB        13.3540   -7.8810   17.4920 C.3   198  SER198      0.2089
    128  OG        13.2320   -8.6430   16.3100 O.3   198  SER198     -0.2183
    129  N         14.4370   -2.9720   13.1600 N.3   218  VAL218     -0.1231
    130  CA        14.7910   -4.4050   13.1040 C.3   218  VAL218      0.1692
    131  C         13.5020   -5.2310   13.2860 C.2   218  VAL218      0.2593
    132  O         12.8440   -5.1290   14.3220 O.2   218  VAL218     -0.2718
    133  CB        15.8420   -4.7600   14.1700 C.3   218  VAL218      0.0266
    134  CG1       16.1760   -6.2580   14.1020 C.3   218  VAL218      0.0020
    135  CG2       17.0980   -3.9090   13.9980 C.3   218  VAL218      0.0020
    136  N         13.1180   -6.0070   12.2480 N.am  219  SER219     -0.1938
    137  CA        11.8620   -6.7370   12.3180 C.3   219  SER219      0.2055
    138  C         12.0270   -8.2640   12.4090 C.2   219  SER219      0.2643
    139  O         11.6300   -8.8520   13.4270 O.2   219  SER219     -0.2714
    140  CB        10.9500   -6.3210   11.1640 C.3   219  SER219      0.2130
    141  OG         9.6840   -6.9450   11.2270 O.3   219  SER219     -0.2179
    142  N         12.6100   -8.9140   11.4000 N.am  220  TRP220     -0.1959
    143  CA        12.7840  -10.3750   11.4600 C.3   220  TRP220      0.1771
    144  C         13.8090  -10.8580   10.4670 C.2   220  TRP220      0.2620
    145  O         14.2230  -10.1130    9.5730 O.2   220  TRP220     -0.2715
    146  CB        11.4410  -11.1050   11.2270 C.3   220  TRP220      0.0590
    147  CG        10.8310  -10.8120    9.8920 C.ar  220  TRP220      0.0006
    148  CD1       10.0140   -9.7640    9.5780 C.ar  220  TRP220      0.0946
    149  CD2       11.0200  -11.5520    8.6750 C.ar  220  TRP220      0.0152
    150  NE1        9.6440   -9.8310    8.2590 N.ar  220  TRP220     -0.2442
    151  CE2       10.2330  -10.9280    7.6820 C.ar  220  TRP220      0.0810
    152  CE3       11.7080  -12.7350    8.3490 C.ar  220  TRP220      0.0012
    153  CZ2       10.1650  -11.4090    6.3680 C.ar  220  TRP220      0.0191
    154  CZ3       11.6500  -13.2060    7.0460 C.ar  220  TRP220      0.0001
    155  CH2       10.8900  -12.5470    6.0710 C.ar  220  TRP220      0.0015
    156  N         14.2390  -12.0990   10.6650 N.am  221  GLY221     -0.1940
    157  CA        15.1540  -12.7930    9.7800 C.3   221  GLY221      0.2014
    158  C         14.9530  -14.2810    9.9450 C.2   221  GLY221      0.2639
    159  O         14.4770  -14.7160   10.9900 O.2   221  GLY221     -0.2714
    160  N         15.2840  -15.0680    8.9250 N.am  222  GLU222     -0.1963
    161  CA        15.1770  -16.5210    9.0430 C.3   222  GLU222      0.1733
    162  C         16.4750  -16.9580    9.7120 C.2   222  GLU222      0.2617
    163  O         17.5000  -17.1360    9.0590 O.2   222  GLU222     -0.2715
    164  CB        14.9050  -17.1590    7.6780 C.3   222  GLU222      0.0429
    165  CG        13.5290  -16.7410    7.1900 C.3   222  GLU222      0.1163
    166  CD        13.0930  -17.1230    5.7930 C.2   222  GLU222      0.3649
    167  OE1       13.9330  -17.1150    4.8670 O.co2 222  GLU222     -0.2457
    168  OE2       11.8690  -17.2930    5.6050 O.co2 222  GLU222     -0.2457
    169  N         16.4310  -16.9880   11.0390 N.am  223  GLY223     -0.1940
    170  CA        17.6050  -17.2310   11.8640 C.3   223  GLY223      0.2014
    171  C         18.3960  -15.9370   11.9550 C.2   223  GLY223      0.2639
    172  O         17.7840  -14.8680   12.0080 O.2   223  GLY223     -0.2714
    173  N         19.7450  -16.0130   12.0000 N.am  224  CYS224     -0.1967
    174  CA        20.6190  -14.8290   12.0410 C.3   224  CYS224      0.1712
    175  C         21.8800  -15.0990   11.2210 C.2   224  CYS224      0.2296
    176  O         22.5310  -16.1230   11.4250 O.2   224  CYS224     -0.2864
    177  CB        21.0010  -14.4380   13.4690 C.3   224  CYS224      0.0983
    178  SG        19.6640  -14.5010   14.6820 S.3   224  CYS224     -0.0798
    179  N         22.5380  -16.0200    8.2490 N.3   226  ARG226     -0.1245
    180  CA        22.6630  -17.2190    7.4210 C.3   226  ARG226      0.1563
    181  C         22.9880  -16.7980    6.0080 C.2   226  ARG226      0.2260
    182  O         22.4210  -15.8160    5.5180 O.2   226  ARG226     -0.2867
    183  CB        21.3570  -18.0440    7.4030 C.3   226  ARG226      0.0307
    184  CG        20.9990  -18.7120    8.7210 C.3   226  ARG226      0.0489
    185  CD        19.8370  -19.6620    8.4930 C.3   226  ARG226      0.2205
    186  NE        19.1250  -19.9720    9.7290 N.pl3 226  ARG226     -0.0865
    187  CZ        17.9300  -20.5520    9.7840 C.cat 226  ARG226      0.5346
    188  NH1       17.2990  -20.9010    8.6660 N.pl3 226  ARG226      0.1354
    189  NH2       17.3520  -20.7810   10.9540 N.pl3 226  ARG226      0.1354
    190  N         18.2540   -9.6880    6.5980 N.3   231  GLY231     -0.1210
    191  CA        17.4650   -9.1630    7.6960 C.3   231  GLY231      0.1956
    192  C         16.3790   -8.2860    7.1070 C.2   231  GLY231      0.2612
    193  O         16.6200   -7.6040    6.1050 O.2   231  GLY231     -0.2717
    194  N         15.1630   -8.3540    7.6800 N.am  232  PHE232     -0.1962
    195  CA        14.0000   -7.5660    7.2480 C.3   232  PHE232      0.1771
    196  C         13.6940   -6.5000    8.2550 C.2   232  PHE232      0.2619
    197  O         13.7120   -6.7400    9.4710 O.2   232  PHE232     -0.2715
    198  CB        12.7830   -8.4490    6.9660 C.3   232  PHE232      0.0574
    199  CG        12.9640   -9.2290    5.6840 C.ar  232  PHE232     -0.0200
    200  CD1       13.7210  -10.4010    5.6630 C.ar  232  PHE232     -0.0042
    201  CD2       12.4380   -8.7590    4.4940 C.ar  232  PHE232     -0.0042
    202  CE1       13.9250  -11.1030    4.4690 C.ar  232  PHE232     -0.0003
    203  CE2       12.6270   -9.4700    3.3000 C.ar  232  PHE232     -0.0003
    204  CZ        13.3650  -10.6410    3.3010 C.ar  232  PHE232     -0.0000
    205  N         13.4040   -5.3020    7.7230 N.am  233  TYR233     -0.1974
    206  CA        13.2310   -4.0980    8.5050 C.3   233  TYR233      0.1639
    207  C         11.9550   -3.4130    8.1610 C.2   233  TYR233      0.2290
    208  O         11.6070   -3.3060    6.9820 O.2   233  TYR233     -0.2864
    209  CB        14.4100   -3.1330    8.2200 C.3   233  TYR233      0.0560
    210  CG        15.7650   -3.7020    8.5930 C.ar  233  TYR233     -0.0198
    211  CD1       16.4510   -4.5510    7.7220 C.ar  233  TYR233     -0.0009
    212  CD2       16.3300   -3.4490    9.8370 C.ar  233  TYR233     -0.0009
    213  CE1       17.6310   -5.1870    8.1130 C.ar  233  TYR233      0.0417
    214  CE2       17.5450   -4.0360   10.2170 C.ar  233  TYR233      0.0417
    215  CZ        18.1850   -4.9090    9.3500 C.ar  233  TYR233      0.1957
    216  OH        19.3850   -5.4930    9.6970 O.3   233  TYR233     -0.2866
@<TRIPOS>BOND
     1    90    89    2
     2    89    88    1
     3    87    88    1
     4   203   204   ar
     5   203   201   ar
     6   204   202   ar
     7    88    91    1
     8    70    68   ar
     9   202   200   ar
    10   201   199   ar
    11    78    76   am
    12    91    93    1
    13    91    92    1
    14    68    69   ar
    15    68    67    1
    16   167   166   ar
    17   182   181    2
    18   168   166   ar
    19   200   199   ar
    20   199   198    1
    21    92    94    1
    22   166   165    1
    23    76    75    1
    24    76    77    2
    25    67    66    2
    26   181   180    1
    27   155   153   ar
    28   155   154   ar
    29   193   192    2
    30    75    72    1
    31   153   151   ar
    32   190   191    1
    33   198   195    1
    34   208   207    2
    35   154   152   ar
    36   192   194   am
    37   192   191    1
    38   165   164    1
    39   195   194    1
    40   195   196    1
    41    66    63    1
    42   183   180    1
    43   183   184    1
    44   180   179    1
    45   164   161    1
    46   151   150   ar
    47   151   149   ar
    48   211   213   ar
    49   211   210   ar
    50   205   196   am
    51   205   206    1
    52    72    71    1
    53    72    73    1
    54   213   215   ar
    55   207   206    1
    56    74    73    2
    57    71    64   am
    58   209   206    1
    59   209   210    1
    60   196   197    2
    61   150   148   ar
    62   152   149   ar
    63    64    65    2
    64    64    63    1
    65   185   184    1
    66   185   186    1
    67    63    62    1
    68   210   212   ar
    69    73    79   am
    70   188   187    1
    71   149   147   ar
    72   160   161    1
    73   160   158   am
    74   161   162    1
    75   163   162    2
    76   215   216    1
    77   215   214   ar
    78   145   144    2
    79   148   147   ar
    80    81    82    2
    81    81    80    1
    82    79    80    1
    83   162   169   am
    84   186   187    2
    85   157   158    1
    86   157   156    1
    87   187   189    1
    88    62    53   am
    89   212   214   ar
    90   147   146    1
    91   158   159    2
    92   101   100   ar
    93   102   100   ar
    94   100    99    1
    95   144   156   am
    96   144   143    1
    97    80    83    1
    98    99    96    1
    99    54    53    2
   100    53    52    1
   101    95    96    1
   102    96    97    1
   103   169   170    1
   104    83    84    1
   105   140   141    1
   106   140   137    1
   107   175   176    2
   108   175   174    1
   109   146   143    1
   110    55    52    1
   111    55    56    1
   112   142   143    1
   113   142   138   am
   114    52    51    1
   115   170   171    1
   116    57    56    1
   117    57    58    1
   118   171   173   am
   119   171   172    2
   120   173   174    1
   121    84    85    1
   122    84    86    1
   123   174   177    1
   124   136   137    1
   125   136   131   am
   126    97   103   am
   127    97    98    2
   128    51    39   am
   129   137   138    1
   130   103   104    1
   131   138   139    2
   132    37    38    1
   133    39    40    2
   134    39    38    1
   135    58    59    2
   136   130   129    1
   137   130   131    1
   138   130   133    1
   139   131   132    2
   140   106   105    2
   141    60    59    1
   142    38    41    1
   143   177   178    1
   144   107   104    1
   145   104   105    1
   146    59    61    1
   147   135   133    1
   148   134   133    1
   149   105   108   am
   150   178   113    1
   151    22    21    1
   152    41    42    1
   153    42    43   ar
   154    42    44   ar
   155   108   109    1
   156    43    45   ar
   157    44    47   ar
   158    44    46   ar
   159    47    49   ar
   160     7     9   ar
   161     7     6   ar
   162    19    21   ar
   163    19    17   ar
   164    45    46   ar
   165    21    20   ar
   166     9    10   ar
   167    46    48   ar
   168   109   112    1
   169   109   110    1
   170    49    50   ar
   171    48    50   ar
   172   128   127    1
   173   112   113    1
   174     6     5    1
   175     6     8   ar
   176    17    16   ar
   177     5     2    1
   178    10     8   ar
   179   110   111    2
   180   110   114   am
   181    20    18   ar
   182   124   127    1
   183   124   123    1
   184   124   125    1
   185     1     2    1
   186   114   115    1
   187     2     3    1
   188   125   126    2
   189    16    18   ar
   190    16    15    1
   191   115   118    1
   192   115   116    1
   193    31    32   ar
   194    31    29   ar
   195    34    32   ar
   196    34    36   ar
   197     3     4    2
   198    15    12    1
   199    32    30   ar
   200    12    13    1
   201    12    11    1
   202   118   119    1
   203    36    35   ar
   204    29    28   ar
   205   116   117    2
   206    13    14    2
   207   119   120    1
   208   121   120   ar
   209    30    28   ar
   210    30    33   ar
   211    28    27    1
   212   120   122   ar
   213    23    24    1
   214    35    33   ar
   215    27    24    1
   216    24    25    1
   217    25    26    2
