@<TRIPOS>MOLECULE
tmp/4lxdA00.pdb
 186 181 0 0 0
SMALL
GASTEIGER

@<TRIPOS>ATOM
      1  N         18.4890   39.0210    3.7310 N.3    39  ALA39      -0.1245
      2  CA        19.0920   38.3420    4.8890 C.3    39  ALA39       0.1562
      3  C         20.3530   37.5750    4.4570 C.2    39  ALA39       0.2260
      4  O         21.3620   37.5930    5.1840 O.2    39  ALA39      -0.2867
      5  CB        18.0910   37.3740    5.5100 C.3    39  ALA39       0.0290
      6  N         23.2580   39.8560    3.6910 N.3    42  ASP42      -0.1225
      7  CA        23.8450   40.3210    4.9530 C.3    42  ASP42       0.1805
      8  C         24.6450   39.2280    5.6290 C.2    42  ASP42       0.2597
      9  O         25.7290   39.4930    6.1540 O.2    42  ASP42      -0.2718
     10  CB        22.7790   40.8700    5.9000 C.3    42  ASP42       0.1424
     11  CG        23.4030   41.7660    6.9590 C.2    42  ASP42       0.3668
     12  OD1       23.7650   42.9120    6.6260 O.co2  42  ASP42      -0.2456
     13  OD2       23.6130   41.2890    8.0840 O.co2  42  ASP42      -0.2456
     14  N         24.1290   37.9940    5.5920 N.am   43  PHE43      -0.1976
     15  CA        24.8250   36.8480    6.1740 C.3    43  PHE43       0.1639
     16  C         26.2250   36.7080    5.5400 C.2    43  PHE43       0.2290
     17  O         27.2150   36.5170    6.2460 O.2    43  PHE43      -0.2864
     18  CB        24.0020   35.5600    5.9080 C.3    43  PHE43       0.0560
     19  CG        24.7290   34.3040    6.3180 C.ar   43  PHE43      -0.0200
     20  CD1       24.6470   33.8280    7.6210 C.ar   43  PHE43      -0.0042
     21  CD2       25.5130   33.6010    5.4010 C.ar   43  PHE43      -0.0042
     22  CE1       25.3400   32.6690    7.9990 C.ar   43  PHE43      -0.0003
     23  CE2       26.2150   32.4580    5.7880 C.ar   43  PHE43      -0.0003
     24  CZ        26.1160   32.0000    7.0780 C.ar   43  PHE43      -0.0000
     25  N         29.6300   36.9500    7.5680 N.3    47  TYR47      -0.1241
     26  CA        30.4390   35.7270    7.5940 C.3    47  TYR47       0.1605
     27  C         31.2860   35.5870    6.3200 C.2    47  TYR47       0.2264
     28  O         31.3850   34.5080    5.7380 O.2    47  TYR47      -0.2867
     29  CB        29.5340   34.5100    7.8640 C.3    47  TYR47       0.0534
     30  CG        28.9140   34.5920    9.2470 C.ar   47  TYR47      -0.0201
     31  CD1       27.6160   35.0760    9.4240 C.ar   47  TYR47      -0.0009
     32  CD2       29.6720   34.3280   10.3880 C.ar   47  TYR47      -0.0009
     33  CE1       27.0560   35.1980   10.7000 C.ar   47  TYR47       0.0417
     34  CE2       29.1320   34.4780   11.6690 C.ar   47  TYR47       0.0417
     35  CZ        27.8360   34.9520   11.8190 C.ar   47  TYR47       0.1957
     36  OH        27.2990   35.0990   13.0770 O.3    47  TYR47      -0.2866
     37  N         33.8800   32.7200    6.2930 N.3    50  ASP50      -0.1225
     38  CA        33.2540   31.4090    6.0780 C.3    50  ASP50       0.1805
     39  C         32.8210   31.2880    4.6220 C.2    50  ASP50       0.2597
     40  O         32.9070   30.2060    4.0560 O.2    50  ASP50      -0.2718
     41  CB        32.0160   31.2110    6.9890 C.3    50  ASP50       0.1424
     42  CG        32.3390   30.9060    8.4390 C.2    50  ASP50       0.3668
     43  OD1       31.9760   31.7130    9.3020 O.co2  50  ASP50      -0.2456
     44  OD2       32.9140   29.8350    8.7070 O.co2  50  ASP50      -0.2456
     45  N         32.2760   32.3720    4.0570 N.am   51  PHE51      -0.1976
     46  CA        31.8300   32.4060    2.6590 C.3    51  PHE51       0.1639
     47  C         33.0180   32.1650    1.6940 C.2    51  PHE51       0.2290
     48  O         32.9020   31.3460    0.7690 O.2    51  PHE51      -0.2864
     49  CB        31.1430   33.7470    2.3540 C.3    51  PHE51       0.0560
     50  CG        30.5840   33.8380    0.9520 C.ar   51  PHE51      -0.0200
     51  CD1       31.3480   34.3590   -0.0850 C.ar   51  PHE51      -0.0042
     52  CD2       29.2810   33.4390    0.6780 C.ar   51  PHE51      -0.0042
     53  CE1       30.8260   34.4520   -1.3800 C.ar   51  PHE51      -0.0003
     54  CE2       28.7530   33.5620   -0.6080 C.ar   51  PHE51      -0.0003
     55  CZ        29.5400   34.0270   -1.6340 C.ar   51  PHE51      -0.0000
     56  N         34.3160   28.5420    2.0560 N.3    54  MET54      -0.1245
     57  CA        33.3860   27.6000    1.4210 C.3    54  MET54       0.1570
     58  C         33.5020   27.6930   -0.1080 C.2    54  MET54       0.2261
     59  O         33.5280   26.6630   -0.7630 O.2    54  MET54      -0.2867
     60  CB        31.9310   27.8590    1.8950 C.3    54  MET54       0.0387
     61  CG        30.8870   26.8840    1.3150 C.3    54  MET54       0.0595
     62  SD        31.1360   25.1630    1.8450 S.3    54  MET54      -0.1393
     63  CE        30.6150   25.2500    3.5560 C.3    54  MET54       0.0692
     64  N         27.6940   18.9260    4.0760 N.3    72  VAL72      -0.1245
     65  CA        27.6850   20.3210    4.5670 C.3    72  VAL72       0.1561
     66  C         26.3490   20.6270    5.2710 C.2    72  VAL72       0.2260
     67  O         26.3450   21.2270    6.3400 O.2    72  VAL72      -0.2867
     68  CB        28.0090   21.3510    3.4500 C.3    72  VAL72       0.0252
     69  CG1       27.7390   22.7990    3.9270 C.3    72  VAL72       0.0019
     70  CG2       29.4600   21.2040    2.9560 C.3    72  VAL72       0.0019
     71  N         26.1750   19.0180    8.6710 N.3    75  GLU75      -0.1231
     72  CA        27.0090   19.7960    9.5900 C.3    75  GLU75       0.1699
     73  C         26.2470   21.0630   10.0460 C.2    75  GLU75       0.2592
     74  O         26.1920   21.3860   11.2410 O.2    75  GLU75      -0.2718
     75  CB        28.3410   20.2010    8.9290 C.3    75  GLU75       0.0402
     76  CG        29.1530   21.1610    9.7940 C.3    75  GLU75       0.1161
     77  CD        30.4910   21.6750    9.2920 C.2    75  GLU75       0.3649
     78  OE1       30.7990   21.5040    8.0890 O.co2  75  GLU75      -0.2457
     79  OE2       31.2180   22.2900   10.1070 O.co2  75  GLU75      -0.2457
     80  N         25.6460   21.7600    9.0820 N.am   76  LEU76      -0.1980
     81  CA        24.9170   23.0080    9.3500 C.3    76  LEU76       0.1596
     82  C         23.7940   22.8340   10.3570 C.2    76  LEU76       0.2287
     83  O         23.6550   23.6460   11.2640 O.2    76  LEU76      -0.2864
     84  CB        24.3900   23.5740    8.0050 C.3    76  LEU76       0.0297
     85  CG        23.5720   24.8660    8.0560 C.3    76  LEU76       0.0022
     86  CD1       24.3990   26.0190    8.6360 C.3    76  LEU76       0.0001
     87  CD2       23.1070   25.2350    6.6400 C.3    76  LEU76       0.0001
     88  N         17.4880   27.1600   13.3520 N.3    82  ASN82      -0.1225
     89  CA        17.0050   28.5100   13.6530 C.3    82  ASN82       0.1785
     90  C         16.9490   29.2600   12.3170 C.2    82  ASN82       0.2597
     91  O         17.4290   28.7240   11.3030 O.2    82  ASN82      -0.2718
     92  CB        17.7430   29.2540   14.7890 C.3    82  ASN82       0.1169
     93  CG        19.1710   29.6330   14.5010 C.2    82  ASN82       0.2627
     94  OD1       19.7060   29.3510   13.4330 O.2    82  ASN82      -0.2716
     95  ND2       19.8080   30.3000   15.4480 N.am   82  ASN82      -0.0877
     96  N         16.3370   30.4490   12.2820 N.am   83  TRP83      -0.1962
     97  CA        16.2400   31.1770   11.0040 C.3    83  TRP83       0.1771
     98  C         17.5950   31.4420   10.3300 C.2    83  TRP83       0.2620
     99  O         17.6980   31.3290    9.1030 O.2    83  TRP83      -0.2715
    100  CB        15.4430   32.4770   11.1740 C.3    83  TRP83       0.0590
    101  CG        13.9760   32.2440   11.4170 C.ar   83  TRP83       0.0006
    102  CD1       13.2700   32.5840   12.5340 C.ar   83  TRP83       0.0946
    103  CD2       13.0360   31.6220   10.5200 C.ar   83  TRP83       0.0152
    104  NE1       11.9500   32.1940   12.4000 N.ar   83  TRP83      -0.2442
    105  CE2       11.7800   31.6030   11.1750 C.ar   83  TRP83       0.0810
    106  CE3       13.1350   31.0520    9.2300 C.ar   83  TRP83       0.0012
    107  CZ2       10.6360   31.0420   10.5880 C.ar   83  TRP83       0.0191
    108  CZ3       11.9960   30.5140    8.6470 C.ar   83  TRP83       0.0001
    109  CH2       10.7530   30.5540    9.3050 C.ar   83  TRP83       0.0015
    110  N         18.6100   31.7910   11.1230 N.am   84  GLY84      -0.1940
    111  CA        19.9430   32.0860   10.5910 C.3    84  GLY84       0.2014
    112  C         20.5660   30.9010    9.8630 C.2    84  GLY84       0.2638
    113  O         21.2020   31.0570    8.8140 O.2    84  GLY84      -0.2714
    114  N         20.3590   29.7030   10.3990 N.am   85  ARG85      -0.1977
    115  CA        20.8710   28.4790    9.7730 C.3    85  ARG85       0.1597
    116  C         20.1170   28.1770    8.4880 C.2    85  ARG85       0.2287
    117  O         20.7130   27.6670    7.5430 O.2    85  ARG85      -0.2864
    118  CB        20.8310   27.3170   10.7540 C.3    85  ARG85       0.0334
    119  CG        22.0030   27.4120   11.7390 C.3    85  ARG85       0.0492
    120  CD        21.8390   26.5270   12.9710 C.3    85  ARG85       0.2205
    121  NE        23.0430   26.6240   13.8090 N.pl3  85  ARG85      -0.0865
    122  CZ        23.3060   27.6230   14.6510 C.cat  85  ARG85       0.5346
    123  NH1       22.4240   28.6040   14.8280 N.pl3  85  ARG85       0.1354
    124  NH2       24.4450   27.6430   15.3300 N.pl3  85  ARG85       0.1354
    125  N         18.8980   30.6370    6.5440 N.3    87  VAL87      -0.1231
    126  CA        19.4900   31.6380    5.6300 C.3    87  VAL87       0.1692
    127  C         20.8590   31.1000    5.1330 C.2    87  VAL87       0.2591
    128  O         21.1680   31.1820    3.9300 O.2    87  VAL87      -0.2718
    129  CB        19.6290   33.0150    6.3230 C.3    87  VAL87       0.0266
    130  CG1       20.4950   33.9760    5.4890 C.3    87  VAL87       0.0020
    131  CG2       18.2510   33.6310    6.5890 C.3    87  VAL87       0.0020
    132  N         21.6630   30.5430    6.0760 N.am   88  ALA88      -0.1980
    133  CA        22.9910   29.9640    5.7450 C.3    88  ALA88       0.1597
    134  C         22.8520   28.8140    4.7220 C.2    88  ALA88       0.2287
    135  O         23.7020   28.6670    3.8440 O.2    88  ALA88      -0.2864
    136  CB        23.6730   29.4680    7.0220 C.3    88  ALA88       0.0319
    137  N         22.3170   30.3460    1.3350 N.3    91  GLU91      -0.1231
    138  CA        23.5950   30.9240    0.9100 C.3    91  GLU91       0.1699
    139  C         24.5480   29.8180    0.4570 C.2    91  GLU91       0.2592
    140  O         25.2670   29.9810   -0.5340 O.2    91  GLU91      -0.2718
    141  CB        24.2150   31.8030    2.0030 C.3    91  GLU91       0.0402
    142  CG        23.6640   33.2420    1.9860 C.3    91  GLU91       0.1161
    143  CD        23.9940   34.0010    0.7110 C.2    91  GLU91       0.3649
    144  OE1       25.1940   34.1730    0.4090 O.co2  91  GLU91      -0.2457
    145  OE2       23.0540   34.3570   -0.0280 O.co2  91  GLU91      -0.2457
    146  N         24.5020   28.6910    1.1420 N.am   92  PHE92      -0.1976
    147  CA        25.3390   27.5450    0.7550 C.3    92  PHE92       0.1639
    148  C         24.9060   27.0080   -0.6200 C.2    92  PHE92       0.2290
    149  O         25.7480   26.7700   -1.4950 O.2    92  PHE92      -0.2864
    150  CB        25.2900   26.4500    1.8180 C.3    92  PHE92       0.0560
    151  CG        25.9480   25.1810    1.3170 C.ar   92  PHE92      -0.0200
    152  CD1       27.2930   25.1690    0.9580 C.ar   92  PHE92      -0.0042
    153  CD2       25.2180   24.0030    1.2000 C.ar   92  PHE92      -0.0042
    154  CE1       27.8870   24.0000    0.4510 C.ar   92  PHE92      -0.0003
    155  CE2       25.8220   22.8280    0.7350 C.ar   92  PHE92      -0.0003
    156  CZ        27.1480   22.8370    0.3690 C.ar   92  PHE92      -0.0000
    157  N         26.2390   29.3250   -3.2560 N.3    95  VAL95      -0.1245
    158  CA        27.6870   29.1160   -3.5050 C.3    95  VAL95       0.1561
    159  C         27.8500   27.8900   -4.4180 C.2    95  VAL95       0.2260
    160  O         28.6290   27.9600   -5.3680 O.2    95  VAL95      -0.2867
    161  CB        28.4730   28.9490   -2.1730 C.3    95  VAL95       0.0252
    162  CG1       29.8990   28.4250   -2.4220 C.3    95  VAL95       0.0019
    163  CG2       28.5250   30.2650   -1.4190 C.3    95  VAL95       0.0019
    164  N          9.2300   34.6230    9.7450 N.3   137  PHE137     -0.1241
    165  CA        10.5400   35.0280    9.1940 C.3   137  PHE137      0.1605
    166  C         10.4210   36.4590    8.6440 C.2   137  PHE137      0.2264
    167  O         11.2540   37.2990    8.9390 O.2   137  PHE137     -0.2867
    168  CB        10.9640   34.0370    8.0880 C.3   137  PHE137      0.0534
    169  CG        12.2660   34.4070    7.4050 C.ar  137  PHE137     -0.0203
    170  CD1       13.4840   34.3030    8.0820 C.ar  137  PHE137     -0.0042
    171  CD2       12.2760   34.8450    6.0840 C.ar  137  PHE137     -0.0042
    172  CE1       14.6870   34.6310    7.4500 C.ar  137  PHE137     -0.0003
    173  CE2       13.4860   35.1850    5.4530 C.ar  137  PHE137     -0.0003
    174  CZ        14.6750   35.1070    6.1500 C.ar  137  PHE137     -0.0000
    175  N         12.4210   39.8150    9.9210 N.3   141  TYR141     -0.1241
    176  CA        13.4770   40.3510    9.0430 C.3   141  TYR141      0.1605
    177  C         13.0460   41.1310    7.8190 C.2   141  TYR141      0.2264
    178  O         13.9040   41.6490    7.0920 O.2   141  TYR141     -0.2867
    179  CB        14.4210   39.1800    8.6540 C.3   141  TYR141      0.0534
    180  CG        14.9220   38.4530    9.8840 C.ar  141  TYR141     -0.0201
    181  CD1       15.6950   39.1120   10.8420 C.ar  141  TYR141     -0.0009
    182  CD2       14.5720   37.1270   10.1260 C.ar  141  TYR141     -0.0009
    183  CE1       16.1080   38.4710   12.0040 C.ar  141  TYR141      0.0417
    184  CE2       14.9930   36.4690   11.2780 C.ar  141  TYR141      0.0417
    185  CZ        15.7600   37.1460   12.2150 C.ar  141  TYR141      0.1957
    186  OH        16.1230   36.5210   13.3790 O.3   141  TYR141     -0.2866
@<TRIPOS>BOND
     1   160   159    2
     2   159   158    1
     3   158   157    1
     4   158   161    1
     5   162   161    1
     6   161   163    1
     7    55    53   ar
     8    55    54   ar
     9   149   148    2
    10    53    51   ar
    11    59    58    2
    12   148   147    1
    13    54    52   ar
    14   140   139    2
    15    58    57    1
    16    51    50   ar
    17   145   143   ar
    18   156   154   ar
    19   156   155   ar
    20   144   143   ar
    21   154   152   ar
    22   139   138    1
    23   139   146   am
    24    52    50   ar
    25   143   142    1
    26   155   153   ar
    27   147   146    1
    28   147   150    1
    29    48    47    2
    30   138   137    1
    31   138   141    1
    32    50    49    1
    33   152   151   ar
    34   153   151   ar
    35    61    62    1
    36    61    60    1
    37   151   150    1
    38    57    60    1
    39    57    56    1
    40    47    46    1
    41    62    63    1
    42   142   141    1
    43    49    46    1
    44    46    45    1
    45    70    68    1
    46    68    69    1
    47    68    65    1
    48     6     7    1
    49     1     2    1
    50   135   134    2
    51   128   127    2
    52    40    39    2
    53    45    39   am
    54    64    65    1
    55     3     2    1
    56     3     4    2
    57    65    66    1
    58    39    38    1
    59   134   133    1
    60     2     5    1
    61     7     8    1
    62     7    10    1
    63   127   126    1
    64   127   132   am
    65    66    67    2
    66    21    23   ar
    67    21    19   ar
    68   173   171   ar
    69   173   174   ar
    70   130   129    1
    71    16    15    1
    72    16    17    2
    73    14     8   am
    74    14    15    1
    75     8     9    2
    76   126   129    1
    77   126   125    1
    78    28    27    2
    79   133   132    1
    80   133   136    1
    81    23    24   ar
    82    10    11    1
    83    18    15    1
    84    18    19    1
    85    38    37    1
    86    38    41    1
    87   171   169   ar
    88   174   172   ar
    89    19    20   ar
    90    27    26    1
    91   129   131    1
    92    12    11   ar
    93    87    85    1
    94    11    13   ar
    95    41    42    1
    96    24    22   ar
    97   178   177    2
    98   169   170   ar
    99   169   168    1
   100   172   170   ar
   101   117   116    2
   102    25    26    1
   103    26    29    1
   104    20    22   ar
   105   177   176    1
   106    29    30    1
   107    84    85    1
   108    84    81    1
   109    85    86    1
   110   168   165    1
   111    78    77   ar
   112    42    44   ar
   113    42    43   ar
   114   116   115    1
   115   166   167    2
   116   166   165    1
   117   108   106   ar
   118   108   109   ar
   119   179   176    1
   120   179   180    1
   121    71    72    1
   122   113   112    2
   123    75    72    1
   124    75    76    1
   125   176   175    1
   126    80    81    1
   127    80    73   am
   128    99    98    2
   129   165   164    1
   130   106   103   ar
   131    30    31   ar
   132    30    32   ar
   133    77    76    1
   134    77    79   ar
   135   109   107   ar
   136    81    82    1
   137    31    33   ar
   138    72    73    1
   139   115   114    1
   140   115   118    1
   141   112   114   am
   142   112   111    1
   143   180   182   ar
   144   180   181   ar
   145    73    74    2
   146   182   184   ar
   147    98    97    1
   148    98   110   am
   149    82    83    2
   150    32    34   ar
   151   103   105   ar
   152   103   101   ar
   153   107   105   ar
   154   111   110    1
   155    33    35   ar
   156   118   119    1
   157   181   183   ar
   158    97   100    1
   159    97    96    1
   160   100   101    1
   161   105   104   ar
   162   184   185   ar
   163    91    90    2
   164   101   102   ar
   165    34    35   ar
   166   119   120    1
   167    35    36    1
   168   183   185   ar
   169   185   186    1
   170    96    90   am
   171    90    89    1
   172   104   102   ar
   173   120   121    1
   174    88    89    1
   175    94    93    2
   176    89    92    1
   177   121   122    2
   178    93    92    1
   179    93    95   am
   180   122   123    1
   181   122   124    1
