@<TRIPOS>MOLECULE
tmp/4lxhA00.pdb
 161 148 0 0 0
SMALL
GASTEIGER

@<TRIPOS>ATOM
      1  N        -22.9750   25.1160    9.4010 N.3    33  GLY33      -0.1210
      2  CA       -21.8330   24.2580    9.3110 C.3    33  GLY33       0.1956
      3  C        -21.0090   24.4640    8.0590 C.2    33  GLY33       0.2612
      4  O        -21.2550   25.3410    7.2820 O.2    33  GLY33      -0.2717
      5  N        -20.0160   23.6280    7.8820 N.am   34  GLY34      -0.1942
      6  CA       -19.0790   23.7750    6.7990 C.3    34  GLY34       0.2014
      7  C        -19.0710   22.6880    5.7690 C.2    34  GLY34       0.2639
      8  O        -18.0520   22.3970    5.2300 O.2    34  GLY34      -0.2714
      9  N        -20.2070   22.0980    5.4880 N.am   35  GLY35      -0.1954
     10  CA       -20.3080   21.1620    4.4010 C.3    35  GLY35       0.1869
     11  C        -20.3450   21.8760    3.0640 C.2    35  GLY35       0.2309
     12  O        -20.5660   23.0590    3.0030 O.2    35  GLY35      -0.2863
     13  N        -23.1170   24.5530    2.0790 N.3    38  ALA38      -0.1245
     14  CA       -23.9020   24.9200    3.2600 C.3    38  ALA38       0.1562
     15  C        -24.1320   26.3990    3.2980 C.2    38  ALA38       0.2260
     16  O        -23.3630   27.2000    2.7490 O.2    38  ALA38      -0.2867
     17  CB       -23.1930   24.4480    4.5240 C.3    38  ALA38       0.0290
     18  N        -29.5440   25.2760    6.4230 N.3    43  ASN43      -0.1240
     19  CA       -29.2190   24.6460    7.6610 C.3    43  ASN43       0.1653
     20  C        -30.3690   24.8780    8.5710 C.2    43  ASN43       0.2266
     21  O        -30.7070   24.0650    9.3800 O.2    43  ASN43      -0.2867
     22  CB       -27.9760   25.2660    8.2680 C.3    43  ASN43       0.1155
     23  CG       -26.7450   24.4530    8.0110 C.2    43  ASN43       0.2627
     24  OD1      -25.9350   24.2570    8.8850 O.2    43  ASN43      -0.2716
     25  ND2      -26.5890   24.0110    6.8000 N.am   43  ASN43      -0.0877
     26  N        -23.3820   25.1210   14.4950 N.3   104  ASN104     -0.1225
     27  CA       -23.2400   23.7330   14.1080 C.3   104  ASN104      0.1785
     28  C        -21.8370   23.5040   13.4950 C.2   104  ASN104      0.2597
     29  O        -21.4000   24.3260   12.6630 O.2   104  ASN104     -0.2718
     30  CB       -24.3090   23.4040   13.1210 C.3   104  ASN104      0.1169
     31  CG       -24.1190   22.0440   12.3930 C.2   104  ASN104      0.2627
     32  OD1      -23.6240   21.0700   12.9560 O.2   104  ASN104     -0.2716
     33  ND2      -24.5580   21.9910   11.1090 N.am  104  ASN104     -0.0877
     34  N        -21.1620   22.4390   13.9380 N.am  105  ALA105     -0.1966
     35  CA       -19.8430   22.0220   13.4670 C.3   105  ALA105      0.1728
     36  C        -18.8210   23.1580   13.2790 C.2   105  ALA105      0.2619
     37  O        -18.4500   23.8240   14.2580 O.2   105  ALA105     -0.2715
     38  CB       -20.0320   21.1330   12.2050 C.3   105  ALA105      0.0334
     39  N        -18.3980   23.4550   12.0620 N.am  106  MET106     -0.1932
     40  CA       -17.4630   24.5300   11.8440 C.3   106  MET106      0.1821
     41  C        -18.0840   25.8380   12.2310 C.2   106  MET106      0.2332
     42  O        -17.4210   26.7400   12.6450 O.2   106  MET106     -0.2860
     43  CB       -16.9850   24.5370   10.3990 C.2   106  MET106      0.0096
     44  CG       -16.1250   25.7090   10.0050 C.2   106  MET106      0.0285
     45  SD       -15.5140   25.6970    8.3180 S.3   106  MET106     -0.1125
     46  CE       -14.5980   24.2230    8.3140 C.3   106  MET106      0.0742
     47  N        -17.1940   21.7550   16.1470 N.3   131  ALA131     -0.1245
     48  CA       -15.8040   21.3930   15.8630 C.3   131  ALA131      0.1562
     49  C        -14.8840   22.1450   16.7880 C.2   131  ALA131      0.2260
     50  O        -14.1590   23.0070   16.3090 O.2   131  ALA131     -0.2867
     51  CB       -15.4840   21.8170   14.4190 C.3   131  ALA131      0.0290
     52  N        -11.0970   19.2130   17.5220 N.3   134  ILE134     -0.1245
     53  CA       -10.8190   18.1640   16.5160 C.3   134  ILE134      0.1561
     54  C         -9.4080   18.4820   16.0240 C.2   134  ILE134      0.2260
     55  O         -9.1740   19.5820   15.5020 O.2   134  ILE134     -0.2867
     56  CB       -11.7450   18.2110   15.2960 C.3   134  ILE134      0.0252
     57  CG1      -13.1920   18.3440   15.7660 C.3   134  ILE134      0.0019
     58  CG2      -11.5700   16.9130   14.4220 C.3   134  ILE134      0.0019
     59  CD1      -13.6580   17.1450   16.6560 C.3   134  ILE134      0.0001
     60  N         -8.8530   14.7290   12.3030 N.3   139  MET139     -0.1245
     61  CA        -8.9430   14.8020   10.8270 C.3   139  MET139      0.1570
     62  C         -7.9540   13.7510   10.3100 C.2   139  MET139      0.2261
     63  O         -6.8240   13.7110   10.7890 O.2   139  MET139     -0.2867
     64  CB        -8.4650   16.1520   10.2680 C.3   139  MET139      0.0387
     65  CG        -8.7840   17.4210   11.0150 C.3   139  MET139      0.0595
     66  SD       -10.4700   17.8630   10.6830 S.3   139  MET139     -0.1393
     67  CE       -10.5080   19.5060   11.3380 C.3   139  MET139      0.0692
     68  N        -19.0920   10.8570    2.4710 N.3   149  VAL149     -0.1245
     69  CA       -18.7590   12.3130    2.5400 C.3   149  VAL149      0.1561
     70  C        -17.3970   12.6650    1.9150 C.2   149  VAL149      0.2260
     71  O        -17.2340   13.7590    1.3680 O.2   149  VAL149     -0.2867
     72  CB       -18.9480   12.9900    3.9870 C.3   149  VAL149      0.0252
     73  CG1      -18.0300   12.3980    5.0400 C.3   149  VAL149      0.0019
     74  CG2      -18.8160   14.5090    3.9260 C.3   149  VAL149      0.0019
     75  N        -24.3630   11.2900    1.2020 N.3   162  ILE162     -0.1245
     76  CA       -23.8540   12.1790    2.1790 C.3   162  ILE162      0.1561
     77  C        -24.9220   12.5660    3.2080 C.2   162  ILE162      0.2260
     78  O        -24.6080   12.6790    4.4090 O.2   162  ILE162     -0.2867
     79  CB       -23.3590   13.4330    1.5450 C.3   162  ILE162      0.0252
     80  CG1      -22.0770   13.1580    0.7590 C.3   162  ILE162      0.0019
     81  CG2      -23.1540   14.5690    2.5590 C.3   162  ILE162      0.0019
     82  CD1      -21.3410   14.4380    0.4500 C.3   162  ILE162      0.0001
     83  N        -24.9000   11.6250    7.1860 N.3   166  LEU166     -0.1245
     84  CA       -24.8480   12.6510    8.2240 C.3   166  LEU166      0.1561
     85  C        -26.0830   12.6260    9.1670 C.2   166  LEU166      0.2260
     86  O        -26.1540   13.4240   10.0990 O.2   166  LEU166     -0.2867
     87  CB       -24.6780   14.0310    7.5960 C.3   166  LEU166      0.0270
     88  CG       -23.3190   14.1820    6.8920 C.3   166  LEU166      0.0019
     89  CD1      -23.1350   15.6050    6.3110 C.3   166  LEU166      0.0001
     90  CD2      -22.1670   13.8270    7.7920 C.3   166  LEU166      0.0001
     91  N        -29.0850   21.1740   -2.3570 N.3   180  ARG180     -0.1245
     92  CA       -27.8030   20.8360   -1.7190 C.3   180  ARG180      0.1563
     93  C        -26.8110   20.3570   -2.8090 C.2   180  ARG180      0.2260
     94  O        -25.6920   20.8210   -2.8400 O.2   180  ARG180     -0.2867
     95  CB       -27.9860   19.7520   -0.6350 C.3   180  ARG180      0.0307
     96  CG       -28.4060   20.3030    0.7550 C.3   180  ARG180      0.0489
     97  CD       -28.7660   19.1770    1.7840 C.3   180  ARG180      0.2205
     98  NE       -29.3310   19.7240    3.0270 N.pl3 180  ARG180     -0.0865
     99  CZ       -28.6540   20.4410    3.9320 C.cat 180  ARG180      0.5346
    100  NH1      -27.3540   20.7050    3.7780 N.pl3 180  ARG180      0.1354
    101  NH2      -29.2790   20.8900    5.0150 N.pl3 180  ARG180      0.1354
    102  N        -11.4710   23.8150    3.6680 N.3   197  MET197     -0.1245
    103  CA       -11.2700   22.4280    4.0710 C.3   197  MET197      0.1570
    104  C         -9.7840   22.0310    4.0980 C.2   197  MET197      0.2261
    105  O         -9.3310   21.2670    4.9490 O.2   197  MET197     -0.2867
    106  CB       -11.9920   21.5000    3.1230 C.3   197  MET197      0.0387
    107  CG       -13.5480   21.5480    3.2340 C.3   197  MET197      0.0595
    108  SD       -14.2650   21.2530    4.9240 S.3   197  MET197     -0.1393
    109  CE       -14.1920   22.8550    5.7300 C.3   197  MET197      0.0692
    110  N         -8.4800   23.4250    7.2740 N.3   200  ALA200     -0.1245
    111  CA        -9.0660   22.7140    8.4080 C.3   200  ALA200      0.1562
    112  C         -8.3620   21.4070    8.5630 C.2   200  ALA200      0.2260
    113  O         -7.9470   21.0530    9.6680 O.2   200  ALA200     -0.2867
    114  CB       -10.5720   22.4800    8.2070 C.3   200  ALA200      0.0290
    115  N         -9.7060   21.8910   13.8160 N.3   205  LEU205     -0.1245
    116  CA       -10.6890   22.8830   14.2940 C.3   205  LEU205      0.1561
    117  C        -10.7570   22.6630   15.8230 C.2   205  LEU205      0.2260
    118  O        -11.4240   21.7350   16.3110 O.2   205  LEU205     -0.2867
    119  CB       -12.0510   22.6310   13.6090 C.3   205  LEU205      0.0270
    120  CG       -12.0800   22.8230   12.0700 C.3   205  LEU205      0.0019
    121  CD1      -13.3200   22.2430   11.3620 C.3   205  LEU205      0.0001
    122  CD2      -11.9350   24.2710   11.8250 C.3   205  LEU205      0.0001
    123  N        -19.6120   12.3780   12.2800 N.3   229  MET229     -0.1230
    124  CA       -18.6730   13.3910   11.9190 C.3   229  MET229      0.1702
    125  C        -17.9630   14.0490   13.0920 C.2   229  MET229      0.2592
    126  O        -16.7730   14.4320   13.0060 O.2   229  MET229     -0.2718
    127  CB       -19.4850   14.4930   11.2360 C.3   229  MET229      0.0401
    128  CG       -18.6630   15.6680   10.6930 C.3   229  MET229      0.0596
    129  SD       -17.5870   15.1350    9.3320 S.3   229  MET229     -0.1393
    130  CE       -18.6670   14.9150    7.9000 C.3   229  MET229      0.0692
    131  N        -18.7360   14.3670   14.1360 N.am  230  VAL230     -0.1980
    132  CA       -18.1850   14.8960   15.3860 C.3   230  VAL230      0.1595
    133  C        -18.7680   13.8470   16.3090 C.2   230  VAL230      0.2287
    134  O        -19.9570   13.8910   16.6300 O.2   230  VAL230     -0.2864
    135  CB       -18.6350   16.3240   15.7450 C.3   230  VAL230      0.0276
    136  CG1      -18.2430   16.6630   17.1750 C.3   230  VAL230      0.0022
    137  CG2      -18.0430   17.3300   14.7700 C.3   230  VAL230      0.0022
    138  N        -25.6840   14.0460   12.7320 N.3   255  HIS255     -0.1226
    139  CA       -25.0010   15.2870   12.9350 C.3   255  HIS255      0.1752
    140  C        -25.9700   16.4830   12.8070 C.2   255  HIS255      0.2596
    141  O        -25.6280   17.5950   13.1530 O.2   255  HIS255     -0.2718
    142  CB       -23.9010   15.3900   11.8590 C.3   255  HIS255      0.0759
    143  CG       -23.0070   16.5630   12.0010 C.ar  255  HIS255      0.0818
    144  ND1      -22.3140   16.8490   13.1560 N.ar  255  HIS255     -0.2268
    145  CD2      -22.6630   17.5250   11.1040 C.ar  255  HIS255      0.1154
    146  CE1      -21.5800   17.9330   12.9690 C.ar  255  HIS255      0.1986
    147  NE2      -21.7680   18.3570   11.7280 N.ar  255  HIS255     -0.2212
    148  N        -27.1350   16.2860   12.2430 N.am  256  TRP256     -0.1976
    149  CA       -27.9640   17.4400   11.9760 C.3   256  TRP256      0.1640
    150  C        -29.1290   17.5420   12.9350 C.2   256  TRP256      0.2290
    151  O        -30.2430   17.3340   12.5690 O.2   256  TRP256     -0.2864
    152  CB       -28.4560   17.4010   10.5450 C.3   256  TRP256      0.0576
    153  CG       -27.4360   17.7050    9.5070 C.ar  256  TRP256      0.0006
    154  CD1      -26.2380   18.2660    9.6830 C.ar  256  TRP256      0.0946
    155  CD2      -27.5630   17.4590    8.1230 C.ar  256  TRP256      0.0152
    156  NE1      -25.5950   18.3800    8.5070 N.ar  256  TRP256     -0.2442
    157  CE2      -26.3980   17.8900    7.5240 C.ar  256  TRP256      0.0810
    158  CE3      -28.5610   16.9200    7.3310 C.ar  256  TRP256      0.0012
    159  CZ2      -26.2010   17.8080    6.1680 C.ar  256  TRP256      0.0191
    160  CZ3      -28.3600   16.8280    6.0020 C.ar  256  TRP256      0.0001
    161  CH2      -27.1920   17.2680    5.4270 C.ar  256  TRP256      0.0015
@<TRIPOS>BOND
     1    94    93    2
     2    93    92    1
     3    91    92    1
     4    92    95    1
     5    95    96    1
     6    82    80    1
     7    96    97    1
     8    80    79    1
     9    75    76    1
    10    71    70    2
    11    79    76    1
    12    79    81    1
    13    97    98    1
    14    70    69    1
    15    13    14    1
    16    76    77    1
    17    68    69    1
    18    69    72    1
    19    16    15    2
    20    12    11    2
    21    98    99    2
    22    11    10    1
    23   106   107    1
    24   106   103    1
    25    77    78    2
    26   107   108    1
    27    14    15    1
    28    14    17    1
    29   102   103    1
    30   100    99    1
    31    74    72    1
    32    99   101    1
    33    72    73    1
    34   103   104    1
    35   104   105    2
    36    10     9    1
    37   108   109    1
    38     8     7    2
    39   161   160   ar
    40   161   159   ar
    41     9     7   am
    42     7     6    1
    43   160   158   ar
    44   159   157   ar
    45    89    88    1
    46    18    19    1
    47     6     5    1
    48    25    23   am
    49    88    87    1
    50    88    90    1
    51    83    84    1
    52   110   111    1
    53     4     3    2
    54   158   155   ar
    55   157   155   ar
    56   157   156   ar
    57    87    84    1
    58    19    22    1
    59    19    20    1
    60     5     3   am
    61   130   129    1
    62    23    22    1
    63    23    24    2
    64     3     2    1
    65   155   153   ar
    66   114   111    1
    67    84    85    1
    68    46    45    1
    69    45    44    1
    70   111   112    1
    71   156   154   ar
    72   112   113    2
    73    20    21    2
    74    85    86    2
    75     2     1    1
    76   129   128    1
    77   153   154   ar
    78   153   152    1
    79    44    43    2
    80    64    61    1
    81    64    65    1
    82    62    63    2
    83    62    61    1
    84    43    40    1
    85   152   149    1
    86    66    65    1
    87    66    67    1
    88   128   127    1
    89    61    60    1
    90   145   147   ar
    91   145   143   ar
    92    33    31   am
    93   127   124    1
    94   121   120    1
    95   147   146   ar
    96   122   120    1
    97    40    39    1
    98    40    41    1
    99   142   143    1
   100   142   139    1
   101   124   123    1
   102   124   125    1
   103   149   148    1
   104   149   150    1
   105   143   144   ar
   106    39    36   am
   107   120   119    1
   108    38    35    1
   109    41    42    2
   110   148   140   am
   111    31    32    2
   112    31    30    1
   113   151   150    2
   114    29    28    2
   115   138   139    1
   116   140   139    1
   117   140   141    2
   118   146   144   ar
   119   126   125    2
   120   125   131   am
   121    30    27    1
   122    36    35    1
   123    36    37    2
   124    35    34    1
   125    28    34   am
   126    28    27    1
   127   119   116    1
   128   115   116    1
   129    27    26    1
   130   131   132    1
   131   116   117    1
   132    51    48    1
   133    58    56    1
   134   137   135    1
   135    56    57    1
   136    56    53    1
   137   132   135    1
   138   132   133    1
   139    55    54    2
   140   135   136    1
   141    57    59    1
   142   117   118    2
   143    48    47    1
   144    48    49    1
   145    54    53    1
   146    50    49    2
   147   133   134    2
   148    53    52    1
