@<TRIPOS>MOLECULE
tmp/4lxiA00.pdb
 164 152 0 0 0
SMALL
GASTEIGER

@<TRIPOS>ATOM
      1  N        -23.7390   24.9270    9.5040 N.3    33  GLY33      -0.1210
      2  CA       -22.6130   24.0290    9.3760 C.3    33  GLY33       0.1956
      3  C        -21.8450   24.2890    8.0960 C.2    33  GLY33       0.2612
      4  O        -22.2530   25.1140    7.2770 O.2    33  GLY33      -0.2717
      5  N        -20.7320   23.5860    7.9370 N.am   34  GLY34      -0.1942
      6  CA       -19.8480   23.7890    6.7990 C.3    34  GLY34       0.2014
      7  C        -19.8980   22.7200    5.7250 C.2    34  GLY34       0.2639
      8  O        -19.0290   22.6810    4.8770 O.2    34  GLY34      -0.2714
      9  N        -20.9090   21.8640    5.7140 N.am   35  GLY35      -0.1954
     10  CA       -21.0580   20.8910    4.6280 C.3    35  GLY35       0.1869
     11  C        -21.3110   21.5590    3.2730 C.2    35  GLY35       0.2309
     12  O        -21.6280   22.7550    3.2030 O.2    35  GLY35      -0.2863
     13  N        -24.2640   24.2410    2.1660 N.3    38  ALA38      -0.1245
     14  CA       -25.0250   24.6690    3.3480 C.3    38  ALA38       0.1562
     15  C        -25.0920   26.1800    3.4280 C.2    38  ALA38       0.2260
     16  O        -24.2430   26.8640    2.8820 O.2    38  ALA38      -0.2867
     17  CB       -24.4010   24.1100    4.6450 C.3    38  ALA38       0.0290
     18  N        -30.3620   25.3830    6.6080 N.3    43  ASN43      -0.1240
     19  CA       -30.0970   24.7240    7.8930 C.3    43  ASN43       0.1653
     20  C        -31.1860   24.9350    8.9090 C.2    43  ASN43       0.2266
     21  O        -31.4530   24.0220    9.6920 O.2    43  ASN43      -0.2867
     22  CB       -28.7840   25.1960    8.5610 C.3    43  ASN43       0.1155
     23  CG       -27.5980   24.2210    8.3380 C.2    43  ASN43       0.2627
     24  OD1      -26.7010   24.0900    9.1840 O.2    43  ASN43      -0.2716
     25  ND2      -27.5800   23.5890    7.2200 N.am   43  ASN43      -0.0877
     26  N        -23.7940   25.2250   14.7210 N.3   104  ASN104     -0.1225
     27  CA       -23.7480   23.8370   14.2960 C.3   104  ASN104      0.1785
     28  C        -22.3780   23.5070   13.6290 C.2   104  ASN104      0.2597
     29  O        -21.9970   24.1660   12.6600 O.2   104  ASN104     -0.2718
     30  CB       -24.9160   23.6230   13.2980 C.3   104  ASN104      0.1169
     31  CG       -24.8250   22.3270   12.5520 C.2   104  ASN104      0.2627
     32  OD1      -24.3460   21.3320   13.0840 O.2   104  ASN104     -0.2716
     33  ND2      -25.3170   22.3120   11.3140 N.am  104  ASN104     -0.0877
     34  N        -21.6830   22.4770   14.1270 N.am  105  ALA105     -0.1966
     35  CA       -20.4120   21.9440   13.5430 C.3   105  ALA105      0.1728
     36  C        -19.3340   23.0050   13.3340 C.2   105  ALA105      0.2616
     37  O        -18.9120   23.6270   14.3140 O.2   105  ALA105     -0.2715
     38  CB       -20.6880   21.1320   12.2530 C.3   105  ALA105      0.0334
     39  N        -18.9190   23.2670   12.0800 N.am  106  MET106     -0.1977
     40  CA       -17.9910   24.3710   11.7810 C.3   106  MET106      0.1605
     41  C        -18.5680   25.7210   12.1970 C.2   106  MET106      0.2287
     42  O        -17.8440   26.6350   12.6120 O.2   106  MET106     -0.2864
     43  CB       -17.6190   24.3770   10.2950 C.3   106  MET106      0.0413
     44  CG       -16.5680   25.4120    9.9080 C.3   106  MET106      0.0598
     45  SD       -16.1950   25.3770    8.1240 S.3   106  MET106     -0.1393
     46  CE       -15.3030   23.8500    7.9730 C.3   106  MET106      0.0692
     47  N        -17.7950   21.3510   16.1500 N.3   131  ALA131     -0.1245
     48  CA       -16.4140   20.9420   15.9070 C.3   131  ALA131      0.1562
     49  C        -15.4790   21.8900   16.6650 C.2   131  ALA131      0.2260
     50  O        -14.9100   22.7970   16.0770 O.2   131  ALA131     -0.2867
     51  CB       -16.1220   20.9600   14.3960 C.3   131  ALA131      0.0290
     52  N        -11.7650   18.8300   17.5100 N.3   134  ILE134     -0.1245
     53  CA       -11.4150   17.8460   16.4750 C.3   134  ILE134      0.1561
     54  C        -10.0090   18.2360   15.9710 C.2   134  ILE134      0.2260
     55  O         -9.8480   19.1970   15.2270 O.2   134  ILE134     -0.2867
     56  CB       -12.4190   17.8280   15.2690 C.3   134  ILE134      0.0252
     57  CG1      -13.8910   17.8030   15.7350 C.3   134  ILE134      0.0019
     58  CG2      -12.1520   16.6440   14.3740 C.3   134  ILE134      0.0019
     59  CD1      -14.2610   16.5900   16.5970 C.3   134  ILE134      0.0001
     60  N         -9.0690   14.2630   12.6070 N.3   139  MET139     -0.1245
     61  CA        -9.4470   14.3000   11.1740 C.3   139  MET139      0.1570
     62  C         -8.9450   13.0630   10.4380 C.2   139  MET139      0.2261
     63  O         -9.6690   12.4860    9.6170 O.2   139  MET139     -0.2867
     64  CB        -8.8850   15.5320   10.4620 C.3   139  MET139      0.0387
     65  CG        -9.3310   16.8730   11.0190 C.3   139  MET139      0.0595
     66  SD       -11.0050   17.2770   10.5270 S.3   139  MET139     -0.1393
     67  CE       -11.1110   18.9610   11.1220 C.3   139  MET139      0.0692
     68  N        -15.9110   11.0370    7.6780 N.3   146  LEU146     -0.1245
     69  CA       -15.8540   12.4620    7.3330 C.3   146  LEU146      0.1561
     70  C        -15.7660   12.7300    5.8070 C.2   146  LEU146      0.2260
     71  O        -15.9460   13.8690    5.3760 O.2   146  LEU146     -0.2867
     72  CB       -14.6700   13.1560    8.0380 C.3   146  LEU146      0.0270
     73  CG       -14.7250   13.4450    9.5390 C.3   146  LEU146      0.0019
     74  CD1      -13.4360   14.1220   10.0070 C.3   146  LEU146      0.0001
     75  CD2      -15.9270   14.3010    9.8970 C.3   146  LEU146      0.0001
     76  N        -18.5430   14.6610    3.4400 N.3   149  VAL149     -0.1231
     77  CA       -18.4930   16.1050    3.5530 C.3   149  VAL149      0.1692
     78  C        -17.1570   16.6740    3.0590 C.2   149  VAL149      0.2591
     79  O        -17.1140   17.6030    2.2420 O.2   149  VAL149     -0.2718
     80  CB       -18.7030   16.5480    5.0210 C.3   149  VAL149      0.0266
     81  CG1      -18.2960   17.9800    5.2130 C.3   149  VAL149      0.0020
     82  CG2      -20.1590   16.3540    5.4450 C.3   149  VAL149      0.0020
     83  N        -16.0610   16.1330    3.5810 N.am  150  MET150     -0.1979
     84  CA       -14.7780   16.8180    3.4840 C.3   150  MET150      0.1605
     85  C        -14.0590   16.6230    2.1590 C.2   150  MET150      0.2287
     86  O        -13.1850   17.4140    1.8500 O.2   150  MET150     -0.2864
     87  CB       -13.8570   16.4210    4.6420 C.3   150  MET150      0.0413
     88  CG       -14.2970   16.9970    5.9780 C.3   150  MET150      0.0598
     89  SD       -13.0440   16.8190    7.2630 S.3   150  MET150     -0.1393
     90  CE       -12.3150   18.4640    7.2720 C.3   150  MET150      0.0692
     91  N        -25.2260   12.8830    7.7610 N.3   166  LEU166     -0.1245
     92  CA       -25.5640   13.8360    8.8230 C.3   166  LEU166      0.1561
     93  C        -26.7810   13.4530    9.6700 C.2   166  LEU166      0.2260
     94  O        -27.0900   14.1430   10.6480 O.2   166  LEU166     -0.2867
     95  CB       -25.8080   15.2320    8.2280 C.3   166  LEU166      0.0270
     96  CG       -24.6550   15.9520    7.5270 C.3   166  LEU166      0.0019
     97  CD1      -25.0380   17.4370    7.2820 C.3   166  LEU166      0.0001
     98  CD2      -23.3470   15.8330    8.3380 C.3   166  LEU166      0.0001
     99  N        -29.2760   22.3270   -2.4710 N.3   180  ARG180     -0.1245
    100  CA       -27.9090   22.3080   -1.9500 C.3   180  ARG180      0.1563
    101  C        -26.8880   21.9500   -3.0500 C.2   180  ARG180      0.2260
    102  O        -25.8260   22.5860   -3.1550 O.2   180  ARG180     -0.2867
    103  CB       -27.8160   21.3550   -0.7780 C.3   180  ARG180      0.0307
    104  CG       -28.3180   21.9630    0.5230 C.3   180  ARG180      0.0489
    105  CD       -28.1790   20.9750    1.6610 C.3   180  ARG180      0.2205
    106  NE       -26.7580   20.7330    1.9730 N.pl3 180  ARG180     -0.0865
    107  CZ       -26.1960   20.8390    3.1800 C.cat 180  ARG180      0.5346
    108  NH1      -26.9060   21.1650    4.2580 N.pl3 180  ARG180      0.1354
    109  NH2      -24.9010   20.5810    3.3130 N.pl3 180  ARG180      0.1354
    110  N        -12.2400   23.2580    3.4000 N.3   197  MET197     -0.1245
    111  CA       -12.0410   21.8860    3.8150 C.3   197  MET197      0.1570
    112  C        -10.5760   21.3860    3.8570 C.2   197  MET197      0.2261
    113  O        -10.2380   20.5240    4.6760 O.2   197  MET197     -0.2867
    114  CB       -12.8530   20.9730    2.9290 C.3   197  MET197      0.0387
    115  CG       -14.3600   21.0860    3.1970 C.3   197  MET197      0.0595
    116  SD       -14.8160   20.7080    4.9280 S.3   197  MET197     -0.1393
    117  CE       -16.3260   21.6540    5.0920 C.3   197  MET197      0.0692
    118  N        -10.4450   21.4090   13.5850 N.3   205  LEU205     -0.1245
    119  CA       -11.3560   22.4240   14.1020 C.3   205  LEU205      0.1561
    120  C        -11.3570   22.2620   15.6320 C.2   205  LEU205      0.2260
    121  O        -12.0060   21.3690   16.1800 O.2   205  LEU205     -0.2867
    122  CB       -12.7290   22.2280   13.4590 C.3   205  LEU205      0.0270
    123  CG       -12.7900   22.3750   11.9430 C.3   205  LEU205      0.0019
    124  CD1      -14.0470   21.7620   11.3460 C.3   205  LEU205      0.0001
    125  CD2      -12.7140   23.8360   11.5840 C.3   205  LEU205      0.0001
    126  N        -19.9610   12.8490   12.4920 N.3   229  MET229     -0.1230
    127  CA       -19.0200   13.9180   12.1480 C.3   229  MET229      0.1702
    128  C        -18.3310   14.4230   13.3880 C.2   229  MET229      0.2592
    129  O        -17.1530   14.7020   13.3690 O.2   229  MET229     -0.2718
    130  CB       -19.7580   15.1000   11.5150 C.3   229  MET229      0.0401
    131  CG       -20.4980   14.7610   10.2220 C.3   229  MET229      0.0596
    132  SD       -19.3470   14.2950    8.9120 S.3   229  MET229     -0.1393
    133  CE       -18.4190   15.8370    8.7760 C.3   229  MET229      0.0692
    134  N        -19.1220   14.6420   14.4350 N.am  230  VAL230     -0.1980
    135  CA       -18.6160   15.0190   15.7400 C.3   230  VAL230      0.1595
    136  C        -19.2240   13.9780   16.6770 C.2   230  VAL230      0.2287
    137  O        -20.3490   14.1520   17.1370 O.2   230  VAL230     -0.2864
    138  CB       -19.0430   16.4390   16.1280 C.3   230  VAL230      0.0276
    139  CG1      -18.4190   16.8150   17.4430 C.3   230  VAL230      0.0022
    140  CG2      -18.6450   17.4270   15.0440 C.3   230  VAL230      0.0022
    141  N        -25.9530   14.0040   13.3740 N.3   255  HIS255     -0.1226
    142  CA       -25.4440   15.3380   13.5540 C.3   255  HIS255      0.1752
    143  C        -26.5040   16.4750   13.5800 C.2   255  HIS255      0.2596
    144  O        -26.4120   17.4070   14.3920 O.2   255  HIS255     -0.2718
    145  CB       -24.4180   15.6900   12.4890 C.3   255  HIS255      0.0759
    146  CG       -23.9950   17.0990   12.6130 C.ar  255  HIS255      0.0818
    147  ND1      -23.1730   17.5280   13.6310 N.ar  255  HIS255     -0.2268
    148  CD2      -24.4050   18.2060   11.9590 C.ar  255  HIS255      0.1154
    149  CE1      -23.0540   18.8400   13.5650 C.ar  255  HIS255      0.1986
    150  NE2      -23.7790   19.2740   12.5500 N.ar  255  HIS255     -0.2212
    151  N        -27.4960   16.3790   12.6950 N.am  256  TRP256     -0.1976
    152  CA       -28.4890   17.4390   12.4640 C.3   256  TRP256      0.1640
    153  C        -29.6760   17.4180   13.4480 C.2   256  TRP256      0.2290
    154  O        -30.8290   17.1610   13.0480 O.2   256  TRP256     -0.2864
    155  CB       -29.0610   17.2620   11.0500 C.3   256  TRP256      0.0576
    156  CG       -28.4650   18.0890    9.9650 C.ar  256  TRP256      0.0006
    157  CD1      -27.4160   18.9540   10.0530 C.ar  256  TRP256      0.0946
    158  CD2      -28.8840   18.1010    8.5920 C.ar  256  TRP256      0.0152
    159  NE1      -27.1600   19.5120    8.8240 N.ar  256  TRP256     -0.2442
    160  CE2      -28.0440   19.0080    7.9070 C.ar  256  TRP256      0.0810
    161  CE3      -29.8890   17.4320    7.8750 C.ar  256  TRP256      0.0012
    162  CZ2      -28.1730   19.2680    6.5340 C.ar  256  TRP256      0.0191
    163  CZ3      -30.0290   17.6990    6.5020 C.ar  256  TRP256      0.0001
    164  CH2      -29.1720   18.6100    5.8490 C.ar  256  TRP256      0.0015
@<TRIPOS>BOND
     1   102   101    2
     2   101   100    1
     3    99   100    1
     4   100   103    1
     5   103   104    1
     6   104   105    1
     7   105   106    1
     8    86    85    2
     9   106   107    2
    10    85    84    1
    11    13    14    1
    12    79    78    2
    13    16    15    2
    14   114   115    1
    15   114   111    1
    16    78    77    1
    17    78    83   am
    18   107   109    1
    19   107   108    1
    20   115   116    1
    21    12    11    2
    22    11    10    1
    23    14    15    1
    24    14    17    1
    25   110   111    1
    26    76    77    1
    27    84    83    1
    28    84    87    1
    29    77    80    1
    30   111   112    1
    31   112   113    2
    32    10     9    1
    33    87    88    1
    34     8     7    2
    35   116   117    1
    36    80    81    1
    37    80    82    1
    38    71    70    2
    39     9     7   am
    40     7     6    1
    41    70    69    1
    42   164   163   ar
    43   164   162   ar
    44    88    89    1
    45   163   161   ar
    46   162   160   ar
    47    18    19    1
    48     6     5    1
    49    25    23   am
    50    89    90    1
    51     4     3    2
    52    97    96    1
    53    69    68    1
    54    69    72    1
    55    96    95    1
    56    96    98    1
    57    91    92    1
    58   161   158   ar
    59    19    22    1
    60    19    20    1
    61   160   158   ar
    62   160   159   ar
    63     5     3   am
    64    46    45    1
    65    72    73    1
    66     3     2    1
    67    45    44    1
    68    95    92    1
    69    23    22    1
    70    23    24    2
    71   158   156   ar
    72   133   132    1
    73    92    93    1
    74   159   157   ar
    75    20    21    2
    76   132   131    1
    77     2     1    1
    78    73    75    1
    79    73    74    1
    80    63    62    2
    81    93    94    2
    82    44    43    1
    83   156   157   ar
    84   156   155    1
    85   131   130    1
    86    43    40    1
    87    62    61    1
    88    64    65    1
    89    64    61    1
    90    66    65    1
    91    66    67    1
    92   155   152    1
    93    61    60    1
    94    33    31   am
    95   124   123    1
    96   130   127    1
    97   125   123    1
    98    40    39    1
    99    40    41    1
   100   123   122    1
   101   148   150   ar
   102   148   146   ar
   103    39    36   am
   104   127   126    1
   105   127   128    1
   106    41    42    2
   107    38    35    1
   108   152   151    1
   109   152   153    1
   110   145   146    1
   111   145   142    1
   112   150   149   ar
   113    31    32    2
   114    31    30    1
   115   146   147   ar
   116    29    28    2
   117   151   143   am
   118   154   153    2
   119    30    27    1
   120    36    35    1
   121    36    37    2
   122   129   128    2
   123   141   142    1
   124   128   134   am
   125   122   119    1
   126    35    34    1
   127   142   143    1
   128   149   147   ar
   129   143   144    2
   130   118   119    1
   131    28    34   am
   132    28    27    1
   133   119   120    1
   134    27    26    1
   135    58    56    1
   136    51    48    1
   137   134   135    1
   138   140   138    1
   139    55    54    2
   140    56    57    1
   141    56    53    1
   142   120   121    2
   143    57    59    1
   144   135   138    1
   145   135   136    1
   146    48    47    1
   147    48    49    1
   148    54    53    1
   149    50    49    2
   150   138   139    1
   151    53    52    1
   152   136   137    2
