@<TRIPOS>MOLECULE
tmp/4lxjA01.pdb
 216 212 0 0 0
SMALL
GASTEIGER

@<TRIPOS>ATOM
      1  N          5.0050   10.2840   26.4470 N.3    67  TYR67      -0.1227
      2  CA         6.3920    9.9570   26.1740 C.3    67  TYR67       0.1736
      3  C          7.0420   11.1270   25.4760 C.2    67  TYR67       0.2596
      4  O          8.1420   11.5290   25.8230 O.2    67  TYR67      -0.2718
      5  CB         6.5290    8.7130   25.2910 C.3    67  TYR67       0.0548
      6  CG         7.9260    8.5700   24.7230 C.ar   67  TYR67      -0.0200
      7  CD1        9.0030    8.2460   25.5450 C.ar   67  TYR67      -0.0009
      8  CD2        8.1760    8.7880   23.3720 C.ar   67  TYR67      -0.0009
      9  CE1       10.2890    8.1240   25.0270 C.ar   67  TYR67       0.0417
     10  CE2        9.4560    8.6780   22.8490 C.ar   67  TYR67       0.0417
     11  CZ        10.5050    8.3450   23.6790 C.ar   67  TYR67       0.1957
     12  OH        11.7670    8.2300   23.1530 O.3    67  TYR67      -0.2866
     13  N          6.3420   11.6650   24.4890 N.am   68  GLY68      -0.1957
     14  CA         6.8530   12.7420   23.6710 C.3    68  GLY68       0.1869
     15  C          7.0880   14.0150   24.4550 C.2    68  GLY68       0.2309
     16  O          8.0660   14.7210   24.2090 O.2    68  GLY68      -0.2863
     17  N          3.9560    3.2240   20.6260 N.3    90  LEU90      -0.1245
     18  CA         4.3830    4.5450   20.1720 C.3    90  LEU90       0.1561
     19  C          4.1750    4.6560   18.6690 C.2    90  LEU90       0.2260
     20  O          4.9660    4.1140   17.8900 O.2    90  LEU90      -0.2867
     21  CB         5.8670    4.7640   20.5010 C.3    90  LEU90       0.0270
     22  CG         6.5370    6.0720   20.0620 C.3    90  LEU90       0.0019
     23  CD1        5.8860    7.2750   20.7220 C.3    90  LEU90       0.0001
     24  CD2        8.0220    6.0460   20.3610 C.3    90  LEU90       0.0001
     25  N         16.7790    4.1600   12.4610 N.3   121  TYR121     -0.1241
     26  CA        17.1470    5.5590   12.2000 C.3   121  TYR121      0.1605
     27  C         17.1780    6.0130   10.7300 C.2   121  TYR121      0.2264
     28  O         17.0750    7.2200   10.4490 O.2   121  TYR121     -0.2867
     29  CB        18.5390    5.8170   12.7590 C.3   121  TYR121      0.0534
     30  CG        18.6450    5.7740   14.2640 C.ar  121  TYR121     -0.0201
     31  CD1       17.5840    6.1310   15.0640 C.ar  121  TYR121     -0.0009
     32  CD2       19.8260    5.3980   14.8640 C.ar  121  TYR121     -0.0009
     33  CE1       17.6970    6.1080   16.4420 C.ar  121  TYR121      0.0417
     34  CE2       19.9570    5.3700   16.2460 C.ar  121  TYR121      0.0417
     35  CZ        18.8900    5.7370   17.0310 C.ar  121  TYR121      0.1957
     36  OH        19.0370    5.7150   18.4170 O.3   121  TYR121     -0.2866
     37  N         14.8920    8.5040    8.7600 N.3   124  LEU124     -0.1231
     38  CA        15.1010    9.8810    9.2040 C.3   124  LEU124      0.1693
     39  C         16.4140   10.4680    8.6890 C.2   124  LEU124      0.2592
     40  O         16.4430   11.6040    8.2240 O.2   124  LEU124     -0.2718
     41  CB        15.1070    9.9300   10.7340 C.3   124  LEU124      0.0284
     42  CG        14.9850   11.2000   11.5940 C.3   124  LEU124      0.0019
     43  CD1       15.4410   10.8750   13.0180 C.3   124  LEU124      0.0001
     44  CD2       15.7410   12.4170   11.0940 C.3   124  LEU124      0.0001
     45  N         17.5080    9.7190    8.8050 N.am  125  THR125     -0.1953
     46  CA        18.8240   10.3200    8.5130 C.3   125  THR125      0.1897
     47  C         19.1980   10.3410    7.0450 C.2   125  THR125      0.2313
     48  O         19.8420   11.2860    6.5680 O.2   125  THR125     -0.2863
     49  CB        19.9430    9.5720    9.2460 C.3   125  THR125      0.1794
     50  OG1       19.8060    8.1800    8.9760 O.3   125  THR125     -0.2208
     51  CG2       19.8200    9.7820   10.7410 C.3   125  THR125      0.0378
     52  N         21.2680   13.3040    5.2250 N.3   129  PHE129     -0.1241
     53  CA        22.6910   13.1820    4.9370 C.3   129  PHE129      0.1605
     54  C         22.9320   12.8400    3.4620 C.2   129  PHE129      0.2264
     55  O         23.8990   13.3150    2.8490 O.2   129  PHE129     -0.2867
     56  CB        23.3100   12.0880    5.8080 C.3   129  PHE129      0.0534
     57  CG        23.0960   12.2950    7.2850 C.ar  129  PHE129     -0.0203
     58  CD1       22.8470   13.5650    7.7860 C.ar  129  PHE129     -0.0042
     59  CD2       23.1260   11.2210    8.1620 C.ar  129  PHE129     -0.0042
     60  CE1       22.6410   13.7600    9.1420 C.ar  129  PHE129     -0.0003
     61  CE2       22.9220   11.4140    9.5240 C.ar  129  PHE129     -0.0003
     62  CZ        22.6790   12.6710   10.0090 C.ar  129  PHE129     -0.0000
     63  N         26.3780    6.2990    6.8000 N.3   134  ILE134     -0.1231
     64  CA        25.7680    6.2000    8.1380 C.3   134  ILE134      0.1692
     65  C         24.7760    5.0580    8.2760 C.2   134  ILE134      0.2592
     66  O         25.1590    3.9250    8.6080 O.2   134  ILE134     -0.2718
     67  CB        25.1230    7.5270    8.6050 C.3   134  ILE134      0.0266
     68  CG1       26.0770    8.6770    8.3520 C.3   134  ILE134      0.0019
     69  CG2       24.8170    7.4710   10.1080 C.3   134  ILE134      0.0020
     70  CD1       27.3750    8.5230    9.0970 C.3   134  ILE134      0.0001
     71  N         23.4970    5.3390    8.0530 N.am  135  TYR135     -0.1976
     72  CA        22.5080    4.2800    8.1900 C.3   135  TYR135      0.1639
     73  C         21.9830    3.7690    6.8580 C.2   135  TYR135      0.2290
     74  O         21.1240    2.8970    6.8300 O.2   135  TYR135     -0.2864
     75  CB        21.3630    4.7130    9.1160 C.3   135  TYR135      0.0560
     76  CG        21.8860    5.1090   10.4740 C.ar  135  TYR135     -0.0198
     77  CD1       22.7240    4.2630   11.1860 C.ar  135  TYR135     -0.0009
     78  CD2       21.5820    6.3540   11.0210 C.ar  135  TYR135     -0.0009
     79  CE1       23.2300    4.6420   12.4520 C.ar  135  TYR135      0.0417
     80  CE2       22.0700    6.7330   12.2540 C.ar  135  TYR135      0.0417
     81  CZ        22.9020    5.8830   12.9680 C.ar  135  TYR135      0.1957
     82  OH        23.4110    6.2780   14.2010 O.3   135  TYR135     -0.2866
     83  N         15.3580   17.4190    9.8320 N.3   231  PHE231     -0.1241
     84  CA        15.8800   16.6420   10.9280 C.3   231  PHE231      0.1605
     85  C         15.0430   16.9160   12.1690 C.2   231  PHE231      0.2264
     86  O         15.5140   17.5690   13.0960 O.2   231  PHE231     -0.2867
     87  CB        17.3330   17.0580   11.1590 C.3   231  PHE231      0.0534
     88  CG        18.1480   16.0420   11.8850 C.ar  231  PHE231     -0.0203
     89  CD1       18.3560   14.7930   11.3340 C.ar  231  PHE231     -0.0042
     90  CD2       18.7270   16.3470   13.1010 C.ar  231  PHE231     -0.0042
     91  CE1       19.1050   13.8670   11.9880 C.ar  231  PHE231     -0.0003
     92  CE2       19.4810   15.4140   13.7670 C.ar  231  PHE231     -0.0003
     93  CZ        19.6660   14.1830   13.2030 C.ar  231  PHE231     -0.0000
     94  N         11.3180   15.1320   14.5370 N.3   233  PRO233     -0.2116
     95  CA        10.6100   13.8460   14.6670 C.3   233  PRO233      0.1372
     96  C          9.3150   13.6440   13.8420 C.2   233  PRO233      0.2244
     97  O          8.8300   12.5140   13.8110 O.2   233  PRO233     -0.2868
     98  CB        10.3210   13.7430   16.1810 C.3   233  PRO233      0.0268
     99  CG        11.2610   14.7370   16.8400 C.3   233  PRO233      0.0207
    100  CD        11.3980   15.8450   15.8280 C.3   233  PRO233      0.0892
    101  N         10.4810   11.5420   11.7490 N.3   236  PHE236     -0.1241
    102  CA        10.6440   10.2660   12.4340 C.3   236  PHE236      0.1605
    103  C          9.3860    9.4340   12.2530 C.2   236  PHE236      0.2264
    104  O          9.4570    8.2120   12.1080 O.2   236  PHE236     -0.2867
    105  CB        10.9400   10.4530   13.9280 C.3   236  PHE236      0.0534
    106  CG        12.0930    9.6420   14.4080 C.ar  236  PHE236     -0.0203
    107  CD1       12.4410    8.4760   13.7450 C.ar  236  PHE236     -0.0042
    108  CD2       12.8480   10.0510   15.5000 C.ar  236  PHE236     -0.0042
    109  CE1       13.5160    7.7140   14.1610 C.ar  236  PHE236     -0.0003
    110  CE2       13.9290    9.2950   15.9280 C.ar  236  PHE236     -0.0003
    111  CZ        14.2630    8.1200   15.2570 C.ar  236  PHE236     -0.0000
    112  N         26.6330   14.3160    7.6140 N.3   305  GLY305     -0.1225
    113  CA        26.2590   13.5160    8.7740 C.3   305  GLY305      0.1811
    114  C         27.1070   13.8300    9.9980 C.2   305  GLY305      0.2280
    115  O         26.6040   13.9060   11.1390 O.2   305  GLY305     -0.2866
    116  N         26.2530   17.3000   11.3220 N.3   308  MET308     -0.1230
    117  CA        24.9420   17.2300   11.9780 C.3   308  MET308      0.1702
    118  C         25.0260   16.5450   13.3410 C.2   308  MET308      0.2592
    119  O         24.3580   16.9630   14.3090 O.2   308  MET308     -0.2718
    120  CB        23.9400   16.4630   11.1080 C.3   308  MET308      0.0401
    121  CG        22.5040   16.6240   11.5870 C.3   308  MET308      0.0596
    122  SD        22.0050   18.3650   11.5230 S.3   308  MET308     -0.1393
    123  CE        21.6690   18.5120    9.7680 C.3   308  MET308      0.0692
    124  N         25.8300   15.4840   13.4150 N.am  309  GLY309     -0.1957
    125  CA        26.0010   14.7470   14.6580 C.3   309  GLY309      0.1869
    126  C         26.5930   15.6070   15.7680 C.2   309  GLY309      0.2309
    127  O         26.2900   15.4120   16.9690 O.2   309  GLY309     -0.2863
    128  N         23.8130   18.3770   19.4730 N.3   313  THR313     -0.1218
    129  CA        24.3900   17.9310   20.7420 C.3   313  THR313      0.1862
    130  C         25.2690   19.0330   21.3280 C.2   313  THR313      0.2287
    131  O         25.0960   19.4210   22.5120 O.2   313  THR313     -0.2866
    132  CB        25.2350   16.6600   20.5260 C.3   313  THR313      0.1770
    133  OG1       26.0900   16.8800   19.3940 O.3   313  THR313     -0.2211
    134  CG2       24.3450   15.4710   20.2060 C.3   313  THR313      0.0375
    135  N         20.3340   13.4170   24.0210 N.3   375  LEU375     -0.1231
    136  CA        19.4000   12.4900   23.3720 C.3   375  LEU375      0.1693
    137  C         18.7250   11.6870   24.4430 C.2   375  LEU375      0.2592
    138  O         19.3850   10.8490   25.0700 O.2   375  LEU375     -0.2718
    139  CB        20.1630   11.5730   22.4000 C.3   375  LEU375      0.0284
    140  CG        21.1250   12.3250   21.4650 C.3   375  LEU375      0.0019
    141  CD1       22.0990   11.4300   20.6910 C.3   375  LEU375      0.0001
    142  CD2       20.3470   13.1810   20.5080 C.3   375  LEU375      0.0001
    143  N         17.4370   11.9350   24.7090 N.am  376  HIS376     -0.1962
    144  CA        16.8330   11.3140   25.8950 C.3   376  HIS376      0.1787
    145  C         16.6150    9.8130   25.6870 C.2   376  HIS376      0.2621
    146  O         16.5790    9.0410   26.6430 O.2   376  HIS376     -0.2715
    147  CB        15.5250   12.0140   26.3180 C.3   376  HIS376      0.0785
    148  CG        14.4370   11.9510   25.2860 C.ar  376  HIS376      0.0821
    149  ND1       13.7500   10.7920   24.9950 N.ar  376  HIS376     -0.2267
    150  CD2       13.9030   12.9120   24.4970 C.ar  376  HIS376      0.1154
    151  CE1       12.8560   11.0330   24.0520 C.ar  376  HIS376      0.1986
    152  NE2       12.9300   12.3130   23.7320 N.ar  376  HIS376     -0.2212
    153  N         16.4950    9.4000   24.4310 N.am  377  SER377     -0.1936
    154  CA        16.2350    7.9970   24.1080 C.3   377  SER377      0.2055
    155  C         17.0850    7.5750   22.9200 C.2   377  SER377      0.2643
    156  O         17.1770    8.3060   21.9430 O.2   377  SER377     -0.2714
    157  CB        14.7640    7.8030   23.7040 C.3   377  SER377      0.2130
    158  OG        13.8780    8.1070   24.7630 O.3   377  SER377     -0.2179
    159  N         17.6880    6.3940   22.9810 N.am  378  LEU378     -0.1963
    160  CA        18.3500    5.8590   21.7940 C.3   378  LEU378      0.1728
    161  C         17.6130    4.5790   21.4430 C.2   378  LEU378      0.2616
    162  O         17.1840    3.8470   22.3450 O.2   378  LEU378     -0.2715
    163  CB        19.8360    5.6020   22.0770 C.3   378  LEU378      0.0311
    164  CG        20.5920    6.8810   22.4780 C.3   378  LEU378      0.0022
    165  CD1       22.0490    6.6060   22.7530 C.3   378  LEU378      0.0001
    166  CD2       20.5080    7.9200   21.3610 C.3   378  LEU378      0.0001
    167  N         17.4630    4.2950   20.1500 N.am  379  PHE379     -0.1974
    168  CA        16.6560    3.1490   19.7130 C.3   379  PHE379      0.1639
    169  C         17.4310    2.1140   18.9100 C.2   379  PHE379      0.2290
    170  O         18.4320    2.4320   18.2440 O.2   379  PHE379     -0.2864
    171  CB        15.4980    3.6260   18.8430 C.3   379  PHE379      0.0560
    172  CG        14.7280    4.7490   19.4400 C.ar  379  PHE379     -0.0200
    173  CD1       13.7290    4.5010   20.3540 C.ar  379  PHE379     -0.0042
    174  CD2       14.9970    6.0610   19.0830 C.ar  379  PHE379     -0.0042
    175  CE1       13.0010    5.5420   20.9080 C.ar  379  PHE379     -0.0003
    176  CE2       14.2810    7.1030   19.6380 C.ar  379  PHE379     -0.0003
    177  CZ        13.2800    6.8450   20.5440 C.ar  379  PHE379     -0.0000
    178  N         11.6010   18.3530   25.4410 N.3   501  PHE501     -0.1227
    179  CA        11.8450   16.9740   25.0110 C.3   501  PHE501      0.1736
    180  C         11.2420   16.6200   23.6390 C.2   501  PHE501      0.2596
    181  O         11.4970   15.5410   23.1100 O.2   501  PHE501     -0.2718
    182  CB        11.3550   15.9870   26.0780 C.3   501  PHE501      0.0547
    183  CG        12.0620   16.1170   27.4010 C.ar  501  PHE501     -0.0202
    184  CD1       13.3080   15.5340   27.6040 C.ar  501  PHE501     -0.0042
    185  CD2       11.4790   16.8110   28.4490 C.ar  501  PHE501     -0.0042
    186  CE1       13.9580   15.6530   28.8430 C.ar  501  PHE501     -0.0003
    187  CE2       12.1200   16.9330   29.6800 C.ar  501  PHE501     -0.0003
    188  CZ        13.3620   16.3530   29.8760 C.ar  501  PHE501     -0.0000
    189  N         10.4620   17.5250   23.0560 N.am  502  THR502     -0.1939
    190  CA         9.7600   17.2280   21.7970 C.3   502  THR502      0.2028
    191  C         10.7010   17.2750   20.6030 C.2   502  THR502      0.2643
    192  O         10.5000   16.5940   19.6000 O.2   502  THR502     -0.2714
    193  CB         8.6060   18.2190   21.5550 C.3   502  THR502      0.1808
    194  OG1        9.1410   19.5090   21.2540 O.3   502  THR502     -0.2208
    195  CG2        7.7390   18.3290   22.7950 C.3   502  THR502      0.0379
    196  N         11.7300   18.1000   20.7400 N.am  503  SER503     -0.1935
    197  CA        12.7510   18.3300   19.7230 C.3   503  SER503      0.2055
    198  C         13.6570   17.1180   19.4900 C.2   503  SER503      0.2643
    199  O         13.5320   16.0890   20.1580 O.2   503  SER503     -0.2714
    200  CB        13.6030   19.5060   20.1920 C.3   503  SER503      0.2130
    201  OG        13.6610   19.5130   21.6300 O.3   503  SER503     -0.2179
    202  N         14.5810   17.2590   18.5440 N.am  504  MET504     -0.1962
    203  CA        15.5820   16.2300   18.2690 C.3   504  MET504      0.1736
    204  C         16.5930   16.0610   19.4240 C.2   504  MET504      0.2616
    205  O         17.1210   14.9710   19.6620 O.2   504  MET504     -0.2715
    206  CB        16.3110   16.5420   16.9600 C.3   504  MET504      0.0427
    207  CG        15.6140   16.0120   15.7240 C.3   504  MET504      0.0599
    208  SD        15.9470   14.2640   15.4180 S.3   504  MET504     -0.1393
    209  CE        14.3200   13.5470   15.6100 C.3   504  MET504      0.0692
    210  N         16.8680   17.1450   20.1380 N.am  505  VAL505     -0.1977
    211  CA        17.6980   17.0590   21.3220 C.3   505  VAL505      0.1596
    212  C         16.9660   17.6750   22.5130 C.2   505  VAL505      0.2287
    213  O         15.9760   18.3780   22.3370 O.2   505  VAL505     -0.2864
    214  CB        19.1020   17.6980   21.1010 C.3   505  VAL505      0.0276
    215  CG1       19.8460   16.9450   19.9960 C.3   505  VAL505      0.0022
    216  CG2       18.9930   19.1650   20.7350 C.3   505  VAL505      0.0022
@<TRIPOS>BOND
     1    55    54    2
     2    54    53    1
     3    53    52    1
     4    53    56    1
     5    56    57    1
     6    48    47    2
     7    63    64    1
     8    74    73    2
     9    73    72    1
    10    47    46    1
    11    57    58   ar
    12    57    59   ar
    13   112   113    1
    14    58    60   ar
    15    71    72    1
    16    71    65   am
    17    64    65    1
    18    64    67    1
    19    59    61   ar
    20    72    75    1
    21    40    39    2
    22    65    66    2
    23    68    67    1
    24    68    70    1
    25    46    45    1
    26    46    49    1
    27    67    69    1
    28    39    45   am
    29    39    38    1
    30    37    38    1
    31   113   114    1
    32    50    49    1
    33    75    76    1
    34    60    62   ar
    35    38    41    1
    36    49    51    1
    37    61    62   ar
    38   123   122    1
    39    83    84    1
    40   114   115    2
    41    28    27    2
    42    76    78   ar
    43    76    77   ar
    44    27    26    1
    45    41    42    1
    46    84    87    1
    47    84    85    1
    48    78    80   ar
    49    44    42    1
    50   120   121    1
    51   120   117    1
    52    87    88    1
    53    77    79   ar
    54   116   117    1
    55    89    88   ar
    56    89    91   ar
    57   122   121    1
    58    42    43    1
    59   101   102    1
    60    88    90   ar
    61   117   118    1
    62    91    93   ar
    63   104   103    2
    64    85    86    2
    65    26    25    1
    66    26    29    1
    67   103   102    1
    68    80    81   ar
    69   102   105    1
    70    79    81   ar
    71    29    30    1
    72    81    82    1
    73    90    92   ar
    74    93    92   ar
    75   118   124   am
    76   118   119    2
    77   124   125    1
    78   107   109   ar
    79   107   106   ar
    80    97    96    2
    81    96    95    1
    82   105   106    1
    83   109   111   ar
    84    30    32   ar
    85    30    31   ar
    86   106   108   ar
    87    94    95    1
    88    94   100    1
    89   125   126    1
    90    95    98    1
    91    32    34   ar
    92    31    33   ar
    93   111   110   ar
    94   208   209    1
    95   208   207    1
    96   108   110   ar
    97   207   206    1
    98   126   127    2
    99   100    99    1
   100    98    99    1
   101    34    35   ar
   102    33    35   ar
   103   206   203    1
   104    35    36    1
   105    20    19    2
   106   170   169    2
   107   203   202    1
   108   203   204    1
   109   202   198   am
   110    19    18    1
   111   171   172    1
   112   171   168    1
   113   169   168    1
   114   174   172   ar
   115   174   176   ar
   116   133   132    1
   117   204   205    2
   118   204   210   am
   119   172   173   ar
   120   128   129    1
   121   198   197    1
   122   198   199    2
   123   192   191    2
   124   176   177   ar
   125   168   167    1
   126   197   200    1
   127   197   196    1
   128   215   214    1
   129    22    24    1
   130    22    21    1
   131    22    23    1
   132   210   211    1
   133   167   161   am
   134    18    21    1
   135    18    17    1
   136   200   201    1
   137   134   132    1
   138   173   175   ar
   139   142   140    1
   140   132   129    1
   141   177   175   ar
   142   191   196   am
   143   191   190    1
   144   141   140    1
   145   216   214    1
   146   129   130    1
   147   214   211    1
   148   194   193    1
   149   211   212    1
   150   130   131    2
   151   166   164    1
   152   161   160    1
   153   161   162    2
   154   140   139    1
   155   193   190    1
   156   193   195    1
   157   160   163    1
   158   160   159    1
   159   190   189    1
   160   156   155    2
   161   163   164    1
   162   213   212    2
   163   139   136    1
   164   164   165    1
   165    10     8   ar
   166    10    11   ar
   167   155   159   am
   168   155   154    1
   169   189   180   am
   170   181   180    2
   171    12    11    1
   172   136   135    1
   173   136   137    1
   174     8     6   ar
   175   180   179    1
   176    14    15    1
   177    14    13    1
   178    11     9   ar
   179   157   154    1
   180   157   158    1
   181   152   151   ar
   182   152   150   ar
   183   151   149   ar
   184   154   153    1
   185    16    15    2
   186   153   145   am
   187   137   143   am
   188   137   138    2
   189    13     3   am
   190   150   148   ar
   191   143   144    1
   192     6     5    1
   193     6     7   ar
   194   149   148   ar
   195   179   178    1
   196   179   182    1
   197     9     7   ar
   198   148   147    1
   199     5     2    1
   200     3     4    2
   201     3     2    1
   202   145   144    1
   203   145   146    2
   204   144   147    1
   205   182   183    1
   206     2     1    1
   207   183   184   ar
   208   183   185   ar
   209   184   186   ar
   210   185   187   ar
   211   186   188   ar
   212   187   188   ar
