@<TRIPOS>MOLECULE
tmp/4lxqB01.pdb
 128 123 0 0 0
SMALL
GASTEIGER

@<TRIPOS>ATOM
      1  N         -2.9480   14.2840   61.7430 N.3    11  LYS11      -0.1245
      2  CA        -4.1270   13.9420   62.5480 C.3    11  LYS11       0.1561
      3  C         -4.5090   12.4840   62.4100 C.2    11  LYS11       0.2260
      4  O         -4.0630   11.7590   61.5360 O.2    11  LYS11      -0.2867
      5  CB        -5.3140   14.8310   62.1470 C.3    11  LYS11       0.0271
      6  CG        -5.8420   14.5600   60.7270 C.3    11  LYS11       0.0035
      7  CD        -7.1500   15.3310   60.5320 C.3    11  LYS11       0.0206
      8  CE        -7.5980   15.2360   59.0650 C.3    11  LYS11       0.1093
      9  NZ        -8.8910   15.9740   58.8540 N.3    11  LYS11      -0.1314
     10  N         -1.6230   13.0580   57.1510 N.3    79  GLU79      -0.1245
     11  CA        -2.8640   13.8110   57.0600 C.3    79  GLU79       0.1567
     12  C         -2.7540   15.2580   57.5210 C.2    79  GLU79       0.2260
     13  O         -3.7280   15.9150   57.8870 O.2    79  GLU79      -0.2867
     14  CB        -4.0310   13.0730   57.7650 C.3    79  GLU79       0.0388
     15  CG        -4.3250   11.6820   57.1660 C.3    79  GLU79       0.1160
     16  CD        -4.4760   11.7640   55.6540 C.2    79  GLU79       0.3649
     17  OE1       -5.5360   12.2680   55.2210 O.co2  79  GLU79      -0.2457
     18  OE2       -3.5690   11.3230   54.8970 O.co2  79  GLU79      -0.2457
     19  N         -2.3640   19.3030   57.2280 N.3    81  ASP81      -0.1239
     20  CA        -3.2430   20.1850   56.4560 C.3    81  ASP81       0.1674
     21  C         -2.5390   21.4040   55.8600 C.2    81  ASP81       0.2266
     22  O         -3.2220   22.1950   55.2080 O.2    81  ASP81      -0.2867
     23  CB        -4.4170   20.6120   57.3460 C.3    81  ASP81       0.1410
     24  CG        -3.9810   21.3170   58.6340 C.2    81  ASP81       0.3668
     25  OD1       -4.8660   21.8000   59.4050 O.co2  81  ASP81      -0.2456
     26  OD2       -2.8200   21.4320   59.0040 O.co2  81  ASP81      -0.2456
     27  N         -7.3980   16.4770   47.1620 N.3   108  VAL108     -0.1231
     28  CA        -8.1770   16.3090   48.3750 C.3   108  VAL108      0.1692
     29  C         -9.3690   15.3720   48.1740 C.2   108  VAL108      0.2592
     30  O         -9.6460   14.8780   47.0650 O.2   108  VAL108     -0.2718
     31  CB        -8.6630   17.6680   48.9080 C.3   108  VAL108      0.0266
     32  CG1       -7.4510   18.5660   49.2120 C.3   108  VAL108      0.0020
     33  CG2       -9.5940   18.3290   47.9330 C.3   108  VAL108      0.0020
     34  N        -10.0520   15.0950   49.2760 N.am  109  PHE109     -0.1962
     35  CA       -11.2640   14.2640   49.2730 C.3   109  PHE109      0.1771
     36  C        -10.9820   12.9440   48.5810 C.2   109  PHE109      0.2620
     37  O        -11.8190   12.4550   47.7990 O.2   109  PHE109     -0.2715
     38  CB       -12.4340   15.0170   48.6400 C.3   109  PHE109      0.0574
     39  CG       -12.9510   16.1670   49.4660 C.ar  109  PHE109     -0.0200
     40  CD1      -13.7310   17.1030   48.8510 C.ar  109  PHE109     -0.0042
     41  CD2      -12.5850   16.3470   50.7930 C.ar  109  PHE109     -0.0042
     42  CE1      -14.2340   18.2050   49.5790 C.ar  109  PHE109     -0.0003
     43  CE2      -13.0750   17.4530   51.5340 C.ar  109  PHE109     -0.0003
     44  CZ       -13.9080   18.3630   50.9080 C.ar  109  PHE109     -0.0000
     45  N         -9.8870   12.2680   48.9110 N.am  110  THR110     -0.1937
     46  CA        -9.4930   11.0680   48.1800 C.3   110  THR110      0.2028
     47  C        -10.2460    9.8050   48.5990 C.2   110  THR110      0.2643
     48  O        -10.0150    8.7430   48.0100 O.2   110  THR110     -0.2714
     49  CB        -7.9770   10.8050   48.2600 C.3   110  THR110      0.1808
     50  OG1       -7.6420   10.4630   49.6140 O.3   110  THR110     -0.2208
     51  CG2       -7.1560   12.0100   47.7750 C.3   110  THR110      0.0379
     52  N        -11.1410    9.9250   49.5780 N.am  111  SER111     -0.1935
     53  CA       -12.0910    8.8190   49.8840 C.3   111  SER111      0.2055
     54  C        -13.3210    8.9730   49.0110 C.2   111  SER111      0.2642
     55  O        -14.1300    8.0120   48.9240 O.2   111  SER111     -0.2714
     56  CB       -12.4990    8.8350   51.3500 C.3   111  SER111      0.2130
     57  OG       -11.3830    8.5520   52.1850 O.3   111  SER111     -0.2179
     58  N        -13.5120   10.1110   48.3600 N.am  112  ILE112     -0.1977
     59  CA       -14.6330   10.3920   47.4660 C.3   112  ILE112      0.1596
     60  C        -14.2250   10.2220   46.0180 C.2   112  ILE112      0.2287
     61  O        -14.8850    9.5100   45.2330 O.2   112  ILE112     -0.2864
     62  CB       -15.1720   11.8030   47.6770 C.3   112  ILE112      0.0276
     63  CG1      -15.5900   11.9990   49.1400 C.3   112  ILE112      0.0022
     64  CG2      -16.2730   12.1470   46.6950 C.3   112  ILE112      0.0022
     65  CD1      -16.2000   13.3590   49.4670 C.3   112  ILE112      0.0001
     66  N        -11.9750    5.3290   53.6350 N.3   156  TYR156     -0.1241
     67  CA       -11.1090    6.1100   54.5340 C.3   156  TYR156      0.1605
     68  C        -10.5050    5.2340   55.6230 C.2   156  TYR156      0.2264
     69  O         -9.3040    5.3130   55.9220 O.2   156  TYR156     -0.2867
     70  CB       -11.9080    7.2490   55.1540 C.3   156  TYR156      0.0534
     71  CG       -11.0110    8.1890   55.9230 C.ar  156  TYR156     -0.0201
     72  CD1      -10.1510    9.0500   55.2570 C.ar  156  TYR156     -0.0009
     73  CD2      -11.0100    8.2070   57.3190 C.ar  156  TYR156     -0.0009
     74  CE1       -9.3250    9.9300   55.9870 C.ar  156  TYR156      0.0417
     75  CE2      -10.2160    9.0750   58.0530 C.ar  156  TYR156      0.0417
     76  CZ        -9.3630    9.9060   57.3610 C.ar  156  TYR156      0.1957
     77  OH        -8.5190   10.7400   58.0990 O.3   156  TYR156     -0.2866
     78  N        -10.8170   21.1240   46.3250 N.3   194  ARG194     -0.1245
     79  CA       -12.0880   21.2720   47.0230 C.3   194  ARG194      0.1563
     80  C        -13.1670   21.8870   46.1500 C.2   194  ARG194      0.2260
     81  O        -14.3050   21.4410   46.2500 O.2   194  ARG194     -0.2867
     82  CB       -11.9190   22.1160   48.2860 C.3   194  ARG194      0.0307
     83  CG       -11.0980   21.4070   49.3470 C.3   194  ARG194      0.0489
     84  CD       -11.9680   20.8210   50.4400 C.3   194  ARG194      0.2205
     85  NE       -11.2730   20.3100   51.6270 N.pl3 194  ARG194     -0.0865
     86  CZ       -11.6850   20.5230   52.8790 C.cat 194  ARG194      0.5346
     87  NH1      -11.0400   20.0010   53.9240 N.pl3 194  ARG194      0.1354
     88  NH2      -12.7610   21.2740   53.0910 N.pl3 194  ARG194      0.1354
     89  N        -20.0730   18.7090   47.7560 N.3   199  LEU199     -0.1245
     90  CA       -20.4900   17.7320   48.7550 C.3   199  LEU199      0.1561
     91  C        -21.9960   17.5060   48.8700 C.2   199  LEU199      0.2260
     92  O        -22.4130   16.4750   49.4110 O.2   199  LEU199     -0.2867
     93  CB       -19.8750   18.0240   50.1250 C.3   199  LEU199      0.0270
     94  CG       -18.3420   17.9670   50.1740 C.3   199  LEU199      0.0019
     95  CD1      -17.8020   18.6780   51.4300 C.3   199  LEU199      0.0001
     96  CD2      -17.8460   16.5120   50.1480 C.3   199  LEU199      0.0001
     97  N        -20.4500    9.4300   54.3180 N.3   221  PHE221     -0.1241
     98  CA       -19.4040    9.5320   55.3320 C.3   221  PHE221      0.1605
     99  C        -20.0400   10.3450   56.4550 C.2   221  PHE221      0.2264
    100  O        -19.9040   11.5780   56.5090 O.2   221  PHE221     -0.2867
    101  CB       -18.1540   10.2410   54.7530 C.3   221  PHE221      0.0534
    102  CG       -16.8710    9.9920   55.5220 C.ar  221  PHE221     -0.0203
    103  CD1      -15.6560    9.7930   54.8330 C.ar  221  PHE221     -0.0042
    104  CD2      -16.8540    9.9610   56.9130 C.ar  221  PHE221     -0.0042
    105  CE1      -14.4640    9.6300   55.5440 C.ar  221  PHE221     -0.0003
    106  CE2      -15.6310    9.7500   57.6260 C.ar  221  PHE221     -0.0003
    107  CZ       -14.4550    9.5990   56.9100 C.ar  221  PHE221     -0.0000
    108  N        -19.4920   13.6860   58.3260 N.3   224  TYR224     -0.1227
    109  CA       -19.4930   14.8750   57.5090 C.3   224  TYR224      0.1736
    110  C        -20.8520   15.0850   56.8580 C.2   224  TYR224      0.2595
    111  O        -21.4890   16.1420   57.0200 O.2   224  TYR224     -0.2718
    112  CB       -18.4040   14.7610   56.4400 C.3   224  TYR224      0.0548
    113  CG       -17.0170   14.7660   57.0660 C.ar  224  TYR224     -0.0200
    114  CD1      -16.4470   15.9570   57.5400 C.ar  224  TYR224     -0.0009
    115  CD2      -16.2700   13.6060   57.1440 C.ar  224  TYR224     -0.0009
    116  CE1      -15.1970   15.9400   58.1350 C.ar  224  TYR224      0.0417
    117  CE2      -14.9940   13.5770   57.7260 C.ar  224  TYR224      0.0417
    118  CZ       -14.4770   14.7680   58.1730 C.ar  224  TYR224      0.1957
    119  OH       -13.2120   14.7740   58.7230 O.3   224  TYR224     -0.2866
    120  N        -21.3200   14.1060   56.0670 N.am  225  GLN225     -0.1979
    121  CA       -22.6000   14.2700   55.3930 C.3   225  GLN225      0.1601
    122  C        -23.1100   12.9190   54.9150 C.2   225  GLN225      0.2287
    123  O        -22.3610   11.9600   54.8880 O.2   225  GLN225     -0.2864
    124  CB       -22.4630   15.2330   54.2060 C.3   225  GLN225      0.0394
    125  CG       -21.8060   14.6450   52.9620 C.3   225  GLN225      0.0908
    126  CD       -20.3160   14.5390   53.0830 C.2   225  GLN225      0.2608
    127  OE1      -19.6240   15.5360   53.4100 O.2   225  GLN225     -0.2717
    128  NE2      -19.7780   13.3720   52.7810 N.am  225  GLN225     -0.0878
@<TRIPOS>BOND
     1    61    60    2
     2    60    59    1
     3    80    81    2
     4    80    79    1
     5    78    79    1
     6    64    62    1
     7    79    82    1
     8    30    29    2
     9    27    28    1
    10    59    62    1
    11    59    58    1
    12    62    63    1
    13    89    90    1
    14    51    49    1
    15    37    36    2
    16    33    31    1
    17    48    47    2
    18    29    28    1
    19    29    34   am
    20    46    49    1
    21    46    47    1
    22    46    45    1
    23    49    50    1
    24    82    83    1
    25    58    54   am
    26    28    31    1
    27    36    45   am
    28    36    35    1
    29    47    52   am
    30    38    35    1
    31    38    39    1
    32    90    91    1
    33    90    93    1
    34    40    39   ar
    35    40    42   ar
    36    91    92    2
    37    31    32    1
    38    55    54    2
    39    54    53    1
    40    63    65    1
    41    35    34    1
    42    83    84    1
    43    39    41   ar
    44    52    53    1
    45    42    44   ar
    46    53    56    1
    47    93    94    1
    48    96    94    1
    49    94    95    1
    50    84    85    1
    51    41    43   ar
    52    44    43   ar
    53    56    57    1
    54    85    86    2
    55   128   126   am
    56    86    88    1
    57    86    87    1
    58   125   126    1
    59   125   124    1
    60   126   127    2
    61    66    67    1
    62   124   121    1
    63    97    98    1
    64    67    70    1
    65    67    68    1
    66   101    98    1
    67   101   102    1
    68   103   102   ar
    69   103   105   ar
    70   123   122    2
    71    18    16   ar
    72   122   121    1
    73    70    71    1
    74    22    21    2
    75    17    16   ar
    76    72    71   ar
    77    72    74   ar
    78    98    99    1
    79   121   120    1
    80   102   104   ar
    81   105   107   ar
    82    68    69    2
    83    16    15    1
    84    21    20    1
    85    71    73   ar
    86    74    76   ar
    87   120   110   am
    88   112   113    1
    89   112   109    1
    90    99   100    2
    91    20    19    1
    92    20    23    1
    93   110   111    2
    94   110   109    1
    95   107   106   ar
    96   104   106   ar
    97    11    10    1
    98    11    12    1
    99    11    14    1
   100   113   115   ar
   101   113   114   ar
   102   115   117   ar
   103    15    14    1
   104    73    75   ar
   105    23    24    1
   106    76    75   ar
   107    76    77    1
   108   109   108    1
   109    12    13    2
   110   114   116   ar
   111   117   118   ar
   112   116   118   ar
   113   118   119    1
   114    24    26   ar
   115    24    25   ar
   116     9     8    1
   117     8     7    1
   118     7     6    1
   119     6     5    1
   120     4     3    2
   121     1     2    1
   122     5     2    1
   123     3     2    1
