@<TRIPOS>MOLECULE
tmp/4lxrA02.pdb
 105 98 0 0 0
SMALL
GASTEIGER

@<TRIPOS>ATOM
      1  N        -25.9300  -36.3620   22.1280 N.3   454  ARG454     -0.1245
      2  CA       -26.5450  -37.1020   23.2140 C.3   454  ARG454      0.1563
      3  C        -26.9080  -38.5330   22.8060 C.2   454  ARG454      0.2260
      4  O        -27.4720  -38.7450   21.7260 O.2   454  ARG454     -0.2867
      5  CB       -27.7890  -36.3290   23.6030 C.3   454  ARG454      0.0307
      6  CG       -28.8260  -37.0460   24.4020 C.3   454  ARG454      0.0489
      7  CD       -29.8980  -36.0230   24.7720 C.3   454  ARG454      0.2205
      8  NE       -30.3610  -36.1810   26.1380 N.pl3 454  ARG454     -0.0865
      9  CZ       -30.0900  -35.3440   27.1280 C.cat 454  ARG454      0.5346
     10  NH1      -29.3570  -34.2560   26.9230 N.pl3 454  ARG454      0.1354
     11  NH2      -30.5620  -35.6020   28.3290 N.pl3 454  ARG454      0.1354
     12  N        -23.4940  -24.9110   22.8710 N.3   474  GLU474     -0.1245
     13  CA       -24.0790  -26.0950   23.4790 C.3   474  GLU474      0.1567
     14  C        -23.4000  -27.3500   22.9320 C.2   474  GLU474      0.2260
     15  O        -23.3000  -27.5410   21.7180 O.2   474  GLU474     -0.2867
     16  CB       -25.5820  -26.1240   23.2140 C.3   474  GLU474      0.0388
     17  CG       -26.2550  -27.4510   23.5170 C.3   474  GLU474      0.1160
     18  CD       -26.8210  -27.5180   24.9210 C.2   474  GLU474      0.3649
     19  OE1      -26.9600  -26.4460   25.5510 O.co2 474  GLU474     -0.2457
     20  OE2      -27.1260  -28.6400   25.3930 O.co2 474  GLU474     -0.2457
     21  N        -25.1760  -39.4090   28.0370 N.3   479  TYR479     -0.1241
     22  CA       -25.5720  -40.7700   27.6760 C.3   479  TYR479      0.1605
     23  C        -24.6310  -41.3530   26.6300 C.2   479  TYR479      0.2264
     24  O        -25.0340  -42.1530   25.7800 O.2   479  TYR479     -0.2867
     25  CB       -27.0350  -40.8180   27.1880 C.3   479  TYR479      0.0534
     26  CG       -28.0600  -40.6090   28.2830 C.ar  479  TYR479     -0.0201
     27  CD1      -28.4680  -41.6670   29.0890 C.ar  479  TYR479     -0.0009
     28  CD2      -28.6240  -39.3550   28.5080 C.ar  479  TYR479     -0.0009
     29  CE1      -29.4080  -41.4800   30.0940 C.ar  479  TYR479      0.0417
     30  CE2      -29.5690  -39.1580   29.5110 C.ar  479  TYR479      0.0417
     31  CZ       -29.9580  -40.2270   30.2950 C.ar  479  TYR479      0.1957
     32  OH       -30.8910  -40.0420   31.2900 O.3   479  TYR479     -0.2866
     33  N        -21.9140  -24.4870   27.2660 N.3   499  HIS499     -0.1241
     34  CA       -22.4350  -25.4600   28.2040 C.3   499  HIS499      0.1621
     35  C        -22.2710  -26.8710   27.6390 C.2   499  HIS499      0.2264
     36  O        -22.7690  -27.1950   26.5520 O.2   499  HIS499     -0.2867
     37  CB       -23.9040  -25.1820   28.5030 C.3   499  HIS499      0.0745
     38  CG       -24.1240  -24.0280   29.4320 C.ar  499  HIS499      0.0817
     39  ND1      -24.0480  -22.7150   29.0190 N.ar  499  HIS499     -0.2268
     40  CD2      -24.4230  -23.9900   30.7520 C.ar  499  HIS499      0.1154
     41  CE1      -24.2940  -21.9170   30.0450 C.ar  499  HIS499      0.1986
     42  NE2      -24.5230  -22.6660   31.1100 N.ar  499  HIS499     -0.2212
     43  N        -22.7170  -30.9770   28.4430 N.3   501  ASN501     -0.1240
     44  CA       -23.4020  -31.9710   29.2570 C.3   501  ASN501      0.1653
     45  C        -22.6480  -33.2810   29.1940 C.2   501  ASN501      0.2266
     46  O        -22.5520  -33.8790   28.1300 O.2   501  ASN501     -0.2867
     47  CB       -24.8290  -32.1800   28.7440 C.3   501  ASN501      0.1155
     48  CG       -25.7600  -32.7390   29.8030 C.2   501  ASN501      0.2627
     49  OD1      -25.4250  -33.7040   30.4870 O.2   501  ASN501     -0.2716
     50  ND2      -26.9370  -32.1260   29.9430 N.am  501  ASN501     -0.0877
     51  N        -23.3830  -35.7590   31.5890 N.3   503  THR503     -0.1203
     52  CA       -24.1400  -36.6220   32.4860 C.3   503  THR503      0.1994
     53  C        -24.3920  -37.9850   31.8740 C.2   503  THR503      0.2617
     54  O        -24.4200  -38.1300   30.6540 O.2   503  THR503     -0.2717
     55  CB       -25.4950  -36.0210   32.8530 C.3   503  THR503      0.1784
     56  OG1      -26.2690  -35.8240   31.6650 O.3   503  THR503     -0.2211
     57  CG2      -25.3140  -34.6960   33.5630 C.3   503  THR503      0.0376
     58  N        -24.5610  -38.9790   32.7410 N.am  504  HIS504     -0.1975
     59  CA       -24.9190  -40.3330   32.3310 C.3   504  HIS504      0.1656
     60  C        -23.9260  -40.9610   31.3660 C.2   504  HIS504      0.2291
     61  O        -24.3070  -41.7310   30.4890 O.2   504  HIS504     -0.2864
     62  CB       -26.3360  -40.3730   31.7520 C.3   504  HIS504      0.0771
     63  CG       -27.4010  -40.0760   32.7600 C.ar  504  HIS504      0.0820
     64  ND1      -28.0610  -41.0640   33.4560 N.ar  504  HIS504     -0.2267
     65  CD2      -27.9050  -38.9000   33.2040 C.ar  504  HIS504      0.1154
     66  CE1      -28.9330  -40.5110   34.2800 C.ar  504  HIS504      0.1986
     67  NE2      -28.8550  -39.1990   34.1500 N.ar  504  HIS504     -0.2212
     68  N        -21.5650  -30.1750   33.0590 N.3   524  ASP524     -0.1239
     69  CA       -22.4220  -30.9630   33.9340 C.3   524  ASP524      0.1674
     70  C        -21.9000  -32.3930   34.0650 C.2   524  ASP524      0.2266
     71  O        -21.9290  -33.1540   33.1060 O.2   524  ASP524     -0.2867
     72  CB       -23.8550  -30.9660   33.3970 C.3   524  ASP524      0.1410
     73  CG       -24.8550  -31.4460   34.4240 C.2   524  ASP524      0.3668
     74  OD1      -24.4450  -32.1590   35.3650 O.co2 524  ASP524     -0.2456
     75  OD2      -26.0520  -31.1180   34.2930 O.co2 524  ASP524     -0.2456
     76  N        -24.5950  -37.7020   37.6620 N.3   527  ASP527     -0.1239
     77  CA       -25.0220  -39.0480   37.2650 C.3   527  ASP527      0.1674
     78  C        -23.9540  -39.8420   36.5230 C.2   527  ASP527      0.2266
     79  O        -24.2270  -40.4620   35.4950 O.2   527  ASP527     -0.2867
     80  CB       -26.2930  -38.9890   36.4090 C.3   527  ASP527      0.1410
     81  CG       -27.4560  -38.3670   37.1400 C.2   527  ASP527      0.3668
     82  OD1      -28.0370  -39.0410   38.0180 O.co2 527  ASP527     -0.2456
     83  OD2      -27.7940  -37.2060   36.8330 O.co2 527  ASP527     -0.2456
     84  N        -20.6880  -28.7290   37.4470 N.3   558  ARG558     -0.1245
     85  CA       -21.8990  -29.0450   38.1900 C.3   558  ARG558      0.1563
     86  C        -21.8000  -30.4740   38.6870 C.2   558  ARG558      0.2260
     87  O        -21.7460  -31.4240   37.8950 O.2   558  ARG558     -0.2867
     88  CB       -23.1370  -28.8690   37.3160 C.3   558  ARG558      0.0307
     89  CG       -24.4180  -29.3710   37.9510 C.3   558  ARG558      0.0489
     90  CD       -25.6270  -28.7400   37.2840 C.3   558  ARG558      0.2205
     91  NE       -26.7230  -29.6900   37.1280 N.pl3 558  ARG558     -0.0865
     92  CZ       -27.9770  -29.3450   36.8540 C.cat 558  ARG558      0.5346
     93  NH1      -28.3010  -28.0640   36.7190 N.pl3 558  ARG558      0.1354
     94  NH2      -28.9090  -30.2810   36.7240 N.pl3 558  ARG558      0.1354
     95  N        -25.2320  -33.5410   41.8540 N.3   561  ARG561     -0.1245
     96  CA       -25.7700  -34.8960   41.7930 C.3   561  ARG561      0.1563
     97  C        -24.7540  -35.8760   41.2080 C.2   561  ARG561      0.2260
     98  O        -25.1180  -36.8550   40.5500 O.2   561  ARG561     -0.2867
     99  CB       -27.1080  -34.9260   41.0480 C.3   561  ARG561      0.0307
    100  CG       -28.2660  -34.4270   41.9120 C.3   561  ARG561      0.0489
    101  CD       -29.4950  -34.0390   41.1090 C.3   561  ARG561      0.2205
    102  NE       -29.9870  -35.1430   40.2970 N.pl3 561  ARG561     -0.0865
    103  CZ       -29.9240  -35.1790   38.9690 C.cat 561  ARG561      0.5346
    104  NH1      -29.3980  -34.1600   38.3000 N.pl3 561  ARG561      0.1354
    105  NH2      -30.3910  -36.2300   38.3080 N.pl3 561  ARG561      0.1354
@<TRIPOS>BOND
     1    15    14    2
     2     4     3    2
     3     1     2    1
     4     3     2    1
     5    12    13    1
     6    14    13    1
     7     2     5    1
     8    16    13    1
     9    16    17    1
    10    17    18    1
    11     5     6    1
    12     6     7    1
    13     7     8    1
    14    18    20   ar
    15    18    19   ar
    16    24    23    2
    17     8     9    2
    18    36    35    2
    19    23    22    1
    20    10     9    1
    21     9    11    1
    22    25    22    1
    23    25    26    1
    24    33    34    1
    25    35    34    1
    26    22    21    1
    27    46    45    2
    28    34    37    1
    29    26    28   ar
    30    26    27   ar
    31    43    44    1
    32    37    38    1
    33    28    30   ar
    34    47    44    1
    35    47    48    1
    36    39    38   ar
    37    39    41   ar
    38    27    29   ar
    39    45    44    1
    40    38    40   ar
    41    30    31   ar
    42    48    50   am
    43    48    49    2
    44    41    42   ar
    45    29    31   ar
    46    31    32    1
    47    61    60    2
    48    54    53    2
    49    40    42   ar
    50    60    59    1
    51    51    52    1
    52    56    55    1
    53    62    59    1
    54    62    63    1
    55    53    52    1
    56    53    58   am
    57    59    58    1
    58    52    55    1
    59    63    65   ar
    60    63    64   ar
    61    55    57    1
    62    68    69    1
    63    71    70    2
    64    65    67   ar
    65    72    69    1
    66    72    73    1
    67    64    66   ar
    68    69    70    1
    69    67    66   ar
    70    75    73   ar
    71    73    74   ar
    72    79    78    2
    73    80    81    1
    74    80    77    1
    75    78    77    1
    76    93    92    1
    77    94    92    1
    78    83    81   ar
    79    92    91    2
    80    91    90    1
    81    81    82   ar
    82    77    76    1
    83    90    89    1
    84    88    89    1
    85    88    85    1
    86    84    85    1
    87    87    86    2
    88    85    86    1
    89   104   103    1
    90   105   103    1
    91   103   102    2
    92   102   101    1
    93    98    97    2
    94    99    96    1
    95    99   100    1
    96   101   100    1
    97    97    96    1
    98    96    95    1
