@<TRIPOS>MOLECULE
tmp/4lxrA09.pdb
 91 85 0 0 0
SMALL
GASTEIGER

@<TRIPOS>ATOM
      1  N        -75.0300  -22.2540   15.7790 N.3   132  THR132     -0.1203
      2  CA       -75.9230  -22.9350   16.7120 C.3   132  THR132      0.1994
      3  C        -75.7470  -24.4360   16.5820 C.2   132  THR132      0.2617
      4  O        -75.3690  -24.9200   15.5230 O.2   132  THR132     -0.2717
      5  CB       -77.4160  -22.5780   16.4680 C.3   132  THR132      0.1784
      6  OG1      -78.2280  -23.2120   17.4670 O.3   132  THR132     -0.2211
      7  CG2      -77.8900  -23.0450   15.0770 C.3   132  THR132      0.0376
      8  N        -76.0310  -25.1650   17.6580 N.am  133  ARG133     -0.1979
      9  CA       -76.0860  -26.6280   17.6170 C.3   133  ARG133      0.1597
     10  C        -77.5080  -27.1750   17.7740 C.2   133  ARG133      0.2287
     11  O        -77.7190  -28.3970   17.8530 O.2   133  ARG133     -0.2864
     12  CB       -75.1110  -27.2210   18.6520 C.3   133  ARG133      0.0334
     13  CG       -73.6760  -26.7950   18.2970 C.3   133  ARG133      0.0492
     14  CD       -72.6770  -27.0570   19.3650 C.3   133  ARG133      0.2205
     15  NE       -72.8230  -26.1540   20.4970 N.pl3 133  ARG133     -0.0865
     16  CZ       -71.8920  -26.0110   21.4320 C.cat 133  ARG133      0.5346
     17  NH1      -70.7670  -26.6990   21.3390 N.pl3 133  ARG133      0.1354
     18  NH2      -72.0850  -25.1910   22.4540 N.pl3 133  ARG133      0.1354
     19  N        -73.1240  -21.6350   10.6430 N.3   155  ARG155     -0.1245
     20  CA       -72.8600  -22.9500   11.1640 C.3   155  ARG155      0.1563
     21  C        -74.1070  -23.4430   11.8580 C.2   155  ARG155      0.2260
     22  O        -74.4010  -23.0210   12.9750 O.2   155  ARG155     -0.2867
     23  CB       -71.7000  -22.9260   12.1630 C.3   155  ARG155      0.0307
     24  CG       -71.2820  -24.3280   12.5300 C.3   155  ARG155      0.0489
     25  CD       -70.1140  -24.4080   13.4220 C.3   155  ARG155      0.2205
     26  NE       -68.8190  -24.0130   12.8600 N.pl3 155  ARG155     -0.0865
     27  CZ       -67.6780  -24.4300   13.4080 C.cat 155  ARG155      0.5346
     28  NH1      -67.7520  -25.2480   14.4440 N.pl3 155  ARG155      0.1354
     29  NH2      -66.4860  -24.0640   12.9460 N.pl3 155  ARG155      0.1354
     30  N        -75.6030  -27.0870   11.1160 N.3   157  ASN157     -0.1240
     31  CA       -75.8630  -28.4070   10.5290 C.3   157  ASN157      0.1653
     32  C        -76.6260  -28.3200    9.2060 C.2   157  ASN157      0.2266
     33  O        -77.5500  -29.0940    8.9560 O.2   157  ASN157     -0.2867
     34  CB       -76.5580  -29.3540   11.5270 C.3   157  ASN157      0.1155
     35  CG       -75.5830  -29.8430   12.6130 C.2   157  ASN157      0.2627
     36  OD1      -74.8310  -30.7830   12.3890 O.2   157  ASN157     -0.2716
     37  ND2      -75.5510  -29.1500   13.7620 N.am  157  ASN157     -0.0877
     38  N        -68.0540  -27.1630    8.7580 N.3   179  SER179     -0.1202
     39  CA       -68.7320  -27.8980    9.8210 C.3   179  SER179      0.2020
     40  C        -70.2490  -27.8450    9.7180 C.2   179  SER179      0.2619
     41  O        -70.9600  -27.5570   10.6830 O.2   179  SER179     -0.2717
     42  CB       -68.2470  -27.4580   11.2090 C.3   179  SER179      0.2103
     43  OG       -68.4340  -28.5160   12.1330 O.3   179  SER179     -0.2182
     44  N        -70.7450  -28.1420    8.5280 N.am  180  ASN180     -0.1960
     45  CA       -72.1710  -28.2430    8.3130 C.3   180  ASN180      0.1819
     46  C        -72.4460  -29.6250    7.7900 C.2   180  ASN180      0.2621
     47  O        -71.7030  -30.5630    8.1040 O.2   180  ASN180     -0.2715
     48  CB       -72.6660  -27.1400    7.3690 C.3   180  ASN180      0.1195
     49  CG       -72.8440  -25.8070    8.0870 C.2   180  ASN180      0.2630
     50  OD1      -73.7790  -25.6360    8.8810 O.2   180  ASN180     -0.2716
     51  ND2      -71.9340  -24.8600    7.8290 N.am  180  ASN180     -0.0877
     52  N        -73.5110  -29.7740    7.0110 N.am  181  LYS181     -0.1977
     53  CA       -73.8470  -31.0850    6.4650 C.3   181  LYS181      0.1596
     54  C        -74.0400  -31.0130    4.9500 C.2   181  LYS181      0.2287
     55  O        -74.8490  -31.7560    4.3810 O.2   181  LYS181     -0.2864
     56  CB       -75.1010  -31.6510    7.1540 C.3   181  LYS181      0.0298
     57  CG       -74.8780  -32.1670    8.5940 C.3   181  LYS181      0.0038
     58  CD       -76.2300  -32.6170    9.2030 C.3   181  LYS181      0.0206
     59  CE       -76.0790  -33.3230   10.5610 C.3   181  LYS181      0.1093
     60  NZ       -77.4050  -33.7970   11.1210 N.3   181  LYS181     -0.1314
     61  N        -65.1760  -30.0300    6.6420 N.3   203  SER203     -0.1202
     62  CA       -66.0490  -30.7790    7.5560 C.3   203  SER203      0.2020
     63  C        -67.4950  -30.7260    7.0970 C.2   203  SER203      0.2619
     64  O        -68.3960  -30.4210    7.8780 O.2   203  SER203     -0.2717
     65  CB       -65.9320  -30.2690    8.9940 C.3   203  SER203      0.2103
     66  OG       -64.6760  -30.5950    9.5560 O.3   203  SER203     -0.2182
     67  N        -67.6930  -30.9980    5.8150 N.am  204  ASN204     -0.1960
     68  CA       -69.0190  -31.1980    5.2640 C.3   204  ASN204      0.1819
     69  C        -69.0810  -32.6130    4.7210 C.2   204  ASN204      0.2621
     70  O        -68.3110  -33.4650    5.1500 O.2   204  ASN204     -0.2715
     71  CB       -69.3160  -30.1430    4.1980 C.3   204  ASN204      0.1195
     72  CG       -69.7880  -28.8460    4.8070 C.2   204  ASN204      0.2630
     73  OD1      -70.9100  -28.7800    5.3040 O.2   204  ASN204     -0.2716
     74  ND2      -68.9180  -27.8180    4.8300 N.am  204  ASN204     -0.0877
     75  N        -69.9770  -32.8910    3.7840 N.am  205  GLN205     -0.1977
     76  CA       -70.0160  -34.2420    3.2300 C.3   205  GLN205      0.1601
     77  C        -70.1550  -34.1570    1.7200 C.2   205  GLN205      0.2287
     78  O        -71.0510  -34.7550    1.1190 O.2   205  GLN205     -0.2864
     79  CB       -71.0800  -35.1370    3.9220 C.3   205  GLN205      0.0394
     80  CG       -72.5020  -34.5400    3.9940 C.3   205  GLN205      0.0908
     81  CD       -73.4940  -35.4150    4.7790 C.2   205  GLN205      0.2608
     82  OE1      -73.6970  -35.2240    5.9740 O.2   205  GLN205     -0.2717
     83  NE2      -74.1120  -36.3680    4.1030 N.am  205  GLN205     -0.0878
     84  N        -61.5370  -32.7680    5.3290 N.3   227  ASP227     -0.1239
     85  CA       -62.4970  -33.5670    6.0950 C.3   227  ASP227      0.1674
     86  C        -63.9140  -33.5740    5.4840 C.2   227  ASP227      0.2266
     87  O        -64.8860  -33.1770    6.1320 O.2   227  ASP227     -0.2867
     88  CB       -62.5480  -33.0980    7.5610 C.3   227  ASP227      0.1410
     89  CG       -63.5210  -33.9100    8.3910 C.2   227  ASP227      0.3668
     90  OD1      -63.6160  -35.1390    8.1690 O.co2 227  ASP227     -0.2456
     91  OD2      -64.2130  -33.3120    9.2410 O.co2 227  ASP227     -0.2456
@<TRIPOS>BOND
     1    78    77    2
     2    77    76    1
     3    76    75    1
     4    76    79    1
     5    75    69   am
     6    79    80    1
     7    80    81    1
     8    83    81   am
     9    71    72    1
    10    71    68    1
    11    55    54    2
    12    69    70    2
    13    69    68    1
    14    81    82    2
    15    72    74   am
    16    72    73    2
    17    54    53    1
    18    68    67    1
    19    84    85    1
    20    86    85    1
    21    86    87    2
    22    67    63   am
    23    85    88    1
    24    53    52    1
    25    53    56    1
    26    61    62    1
    27    52    46   am
    28    63    62    1
    29    63    64    2
    30    56    57    1
    31    48    49    1
    32    48    45    1
    33    62    65    1
    34    88    89    1
    35    46    47    2
    36    46    45    1
    37    51    49   am
    38    49    50    2
    39    90    89   ar
    40    45    44    1
    41    89    91   ar
    42    44    40   am
    43    57    58    1
    44    38    39    1
    45    33    32    2
    46    65    66    1
    47    58    59    1
    48    32    31    1
    49    40    39    1
    50    40    41    2
    51    39    42    1
    52    31    30    1
    53    31    34    1
    54    59    60    1
    55    19    20    1
    56    20    21    1
    57    20    23    1
    58    42    43    1
    59    34    35    1
    60    21    22    2
    61    23    24    1
    62    36    35    2
    63    24    25    1
    64    35    37   am
    65    26    27    2
    66    26    25    1
    67    29    27    1
    68    27    28    1
    69     7     5    1
    70     4     3    2
    71     1     2    1
    72     5     2    1
    73     5     6    1
    74     3     2    1
    75     3     8   am
    76     9     8    1
    77     9    10    1
    78     9    12    1
    79    10    11    2
    80    13    12    1
    81    13    14    1
    82    14    15    1
    83    15    16    2
    84    17    16    1
    85    16    18    1
