@<TRIPOS>MOLECULE
tmp/4lxuA00.pdb
 206 202 0 0 0
SMALL
GASTEIGER

@<TRIPOS>ATOM
      1  N        -31.0100   -9.0360    9.7010 N.3    75  PHE75      -0.1241
      2  CA       -30.9950   -7.5590    9.8270 C.3    75  PHE75       0.1605
      3  C        -29.6340   -7.1960   10.4010 C.2    75  PHE75       0.2264
      4  O        -29.2920   -7.6650   11.4830 O.2    75  PHE75      -0.2867
      5  CB       -32.0520   -7.1340   10.8370 C.3    75  PHE75       0.0534
      6  CG       -32.0470   -5.6500   11.0880 C.ar   75  PHE75      -0.0203
      7  CD1      -32.6170   -4.7980   10.1580 C.ar   75  PHE75      -0.0042
      8  CD2      -31.4640   -5.1450   12.2310 C.ar   75  PHE75      -0.0042
      9  CE1      -32.5860   -3.4040   10.3700 C.ar   75  PHE75      -0.0003
     10  CE2      -31.3990   -3.7460   12.4310 C.ar   75  PHE75      -0.0003
     11  CZ       -31.9730   -2.9010   11.5110 C.ar   75  PHE75      -0.0000
     12  N        -27.3040   -3.9570   11.4350 N.3    77  SER77      -0.1217
     13  CA       -27.0570   -2.5430   11.6920 C.3    77  SER77       0.1889
     14  C        -25.5600   -2.2540   11.6990 C.2    77  SER77       0.2288
     15  O        -24.7660   -2.8860   12.3870 O.2    77  SER77      -0.2866
     16  CB       -27.6190   -2.2270   13.0700 C.3    77  SER77       0.2089
     17  OG       -27.0530   -0.9950   13.5890 O.3    77  SER77      -0.2183
     18  N        -23.9250    1.2300   12.1440 N.3    79  GLU79      -0.1231
     19  CA       -24.1710    2.6290   12.4830 C.3    79  GLU79       0.1699
     20  C        -25.5760    3.0940   12.1970 C.2    79  GLU79       0.2592
     21  O        -25.8530    4.2690   11.9310 O.2    79  GLU79      -0.2718
     22  CB       -23.1100    3.5840   11.8600 C.3    79  GLU79       0.0402
     23  CG       -21.6900    3.3230   12.3770 C.3    79  GLU79       0.1161
     24  CD       -21.6780    3.2390   13.9250 C.2    79  GLU79       0.3649
     25  OE1      -21.7560    4.3000   14.6260 O.co2  79  GLU79      -0.2457
     26  OE2      -21.5450    2.1280   14.5330 O.co2  79  GLU79      -0.2457
     27  N        -26.5540    2.1770   12.3150 N.am   80  PHE80      -0.1962
     28  CA       -27.9530    2.5530   12.1760 C.3    80  PHE80       0.1771
     29  C        -28.4390    3.4540   13.3110 C.2    80  PHE80       0.2620
     30  O        -28.0480    3.2820   14.4680 O.2    80  PHE80      -0.2715
     31  CB       -28.8070    1.2550   12.0860 C.3    80  PHE80       0.0574
     32  CG       -30.2430    1.4130   11.7170 C.ar   80  PHE80      -0.0200
     33  CD1      -31.2390    0.7120   12.4290 C.ar   80  PHE80      -0.0042
     34  CD2      -30.5980    2.2030   10.6380 C.ar   80  PHE80      -0.0042
     35  CE1      -32.5750    0.8010   12.0210 C.ar   80  PHE80      -0.0003
     36  CE2      -31.9330    2.3180   10.2260 C.ar   80  PHE80      -0.0003
     37  CZ       -32.9160    1.5780   10.9040 C.ar   80  PHE80      -0.0000
     38  N        -29.3230    4.3590   12.9320 N.am   81  ASP81      -0.1957
     39  CA       -29.7700    5.4440   13.8190 C.3    81  ASP81       0.1840
     40  C        -31.0290    5.1660   14.6160 C.2    81  ASP81       0.2622
     41  O        -31.4260    5.9850   15.4560 O.2    81  ASP81      -0.2715
     42  CB       -29.8900    6.8000   13.1130 C.3    81  ASP81       0.1450
     43  CG       -30.8820    6.7860   11.9800 C.2    81  ASP81       0.3671
     44  OD1      -31.1380    7.8870   11.4190 O.co2  81  ASP81      -0.2456
     45  OD2      -31.4860    5.7390   11.6280 O.co2  81  ASP81      -0.2456
     46  N        -31.7080    4.0670   14.3180 N.am   82  GLN82      -0.1963
     47  CA       -32.9760    3.7650   15.0070 C.3    82  GLN82       0.1733
     48  C        -32.8730    2.5980   15.9720 C.2    82  GLN82       0.2616
     49  O        -32.3280    1.5570   15.5960 O.2    82  GLN82      -0.2715
     50  CB       -34.1080    3.4470   14.0280 C.3    82  GLN82       0.0408
     51  CG       -34.4250    4.5190   12.9890 C.3    82  GLN82       0.0908
     52  CD       -35.6580    4.2030   12.1470 C.2    82  GLN82       0.2608
     53  OE1      -36.7410    4.1230   12.7480 O.2    82  GLN82      -0.2717
     54  NE2      -35.5330    4.0420   10.8300 N.am   82  GLN82      -0.0878
     55  N        -33.3670    2.7520   17.1910 N.am   83  ILE83      -0.1963
     56  CA       -33.5230    1.6800   18.1700 C.3    83  ILE83       0.1727
     57  C        -34.6850    0.7820   17.7360 C.2    83  ILE83       0.2616
     58  O        -35.7740    1.2790   17.5740 O.2    83  ILE83      -0.2715
     59  CB       -33.8200    2.3100   19.5380 C.3    83  ILE83       0.0290
     60  CG1      -32.5220    2.9520   20.0570 C.3    83  ILE83       0.0022
     61  CG2      -34.3040    1.2420   20.5210 C.3    83  ILE83       0.0023
     62  CD1      -31.5040    1.9650   20.5620 C.3    83  ILE83       0.0001
     63  N        -34.4110   -0.4720   17.4850 N.am   84  ILE84      -0.1977
     64  CA       -35.4860   -1.4070   17.0690 C.3    84  ILE84       0.1596
     65  C        -36.0520   -2.1140   18.2960 C.2    84  ILE84       0.2287
     66  O        -35.4250   -2.2120   19.3740 O.2    84  ILE84      -0.2864
     67  CB       -34.9920   -2.4100   15.9980 C.3    84  ILE84       0.0276
     68  CG1      -33.9220   -3.3520   16.5250 C.3    84  ILE84       0.0022
     69  CG2      -34.4340   -1.6980   14.7220 C.3    84  ILE84       0.0022
     70  CD1      -33.6940   -4.6020   15.6560 C.3    84  ILE84       0.0001
     71  N        -25.6100   -6.1910   15.1800 N.3    96  ASN96      -0.1225
     72  CA       -25.0170   -4.8330   15.1570 C.3    96  ASN96       0.1785
     73  C        -23.5310   -4.9820   15.3780 C.2    96  ASN96       0.2597
     74  O        -23.0530   -5.8870   16.0660 O.2    96  ASN96      -0.2718
     75  CB       -25.6380   -3.9890   16.2880 C.3    96  ASN96       0.1169
     76  CG       -25.0270   -2.5950   16.3930 C.2    96  ASN96       0.2627
     77  OD1      -24.3430   -2.2980   17.4300 O.2    96  ASN96      -0.2716
     78  ND2      -25.2380   -1.7790   15.4080 N.am   96  ASN96      -0.0877
     79  N        -22.7700   -4.0240   14.8010 N.am   97  ILE97      -0.1966
     80  CA       -21.3830   -3.7970   15.2150 C.3    97  ILE97       0.1727
     81  C        -21.3190   -2.4610   16.0080 C.2    97  ILE97       0.2616
     82  O        -21.7620   -1.4220   15.5040 O.2    97  ILE97      -0.2715
     83  CB       -20.4160   -3.7770   14.0200 C.3    97  ILE97       0.0290
     84  CG1      -20.3280   -5.2220   13.4860 C.3    97  ILE97       0.0022
     85  CG2      -19.0230   -3.2650   14.4480 C.3    97  ILE97       0.0023
     86  CD1      -19.6830   -5.3530   12.0860 C.3    97  ILE97       0.0001
     87  N        -20.9440   -2.5760   17.2680 N.am   98  HIS98      -0.1973
     88  CA       -20.8210   -1.4460   18.1860 C.3    98  HIS98       0.1656
     89  C        -19.3900   -0.9790   18.2640 C.2    98  HIS98       0.2291
     90  O        -18.4590   -1.7460   18.4300 O.2    98  HIS98      -0.2864
     91  CB       -21.3490   -1.8200   19.5780 C.3    98  HIS98       0.0771
     92  CG       -21.2760   -0.6410   20.5180 C.ar   98  HIS98       0.0820
     93  ND1      -22.1150    0.4480   20.3920 N.ar   98  HIS98      -0.2267
     94  CD2      -20.4720   -0.3900   21.5740 C.ar   98  HIS98       0.1154
     95  CE1      -21.8190    1.3360   21.3410 C.ar   98  HIS98       0.1986
     96  NE2      -20.8370    0.8430   22.0670 N.ar   98  HIS98      -0.2212
     97  N        -23.9780    3.0520   24.2410 N.3   107  GLY107     -0.1210
     98  CA       -24.6150    4.3260   23.9870 C.3   107  GLY107      0.1956
     99  C        -23.9730    5.0390   22.8100 C.2   107  GLY107      0.2611
    100  O        -23.7630    4.4200   21.7640 O.2   107  GLY107     -0.2717
    101  N        -23.7420    6.3440   22.9370 N.am  108  VAL108     -0.1979
    102  CA       -23.3990    7.1960   21.7990 C.3   108  VAL108      0.1595
    103  C        -22.0740    7.9100   22.0620 C.2   108  VAL108      0.2287
    104  O        -21.4440    7.7490   23.1150 O.2   108  VAL108     -0.2864
    105  CB       -24.5230    8.2010   21.5280 C.3   108  VAL108      0.0276
    106  CG1      -25.8700    7.4250   21.2440 C.3   108  VAL108      0.0022
    107  CG2      -24.6330    9.1840   22.6550 C.3   108  VAL108      0.0022
    108  N        -22.3630   -7.9970   17.9690 N.3   127  HIS127     -0.1241
    109  CA       -23.3020   -8.5620   18.9480 C.3   127  HIS127      0.1621
    110  C        -24.6980   -8.7470   18.3820 C.2   127  HIS127      0.2264
    111  O        -25.0710   -8.1510   17.3840 O.2   127  HIS127     -0.2867
    112  CB       -23.2880   -7.6950   20.2310 C.3   127  HIS127      0.0745
    113  CG       -23.8410   -6.3110   20.0360 C.ar  127  HIS127      0.0817
    114  ND1      -25.1570   -5.9820   20.2190 N.ar  127  HIS127     -0.2268
    115  CD2      -23.2310   -5.1710   19.6120 C.ar  127  HIS127      0.1154
    116  CE1      -25.3670   -4.6990   19.9470 C.ar  127  HIS127      0.1986
    117  NE2      -24.1910   -4.1940   19.5920 N.ar  127  HIS127     -0.2212
    118  N        -28.5760   -7.9440   18.4990 N.3   129  ILE129     -0.1231
    119  CA       -29.4440   -6.8700   18.9780 C.3   129  ILE129      0.1692
    120  C        -30.5160   -7.4580   19.8700 C.2   129  ILE129      0.2592
    121  O        -31.2500   -8.3740   19.4420 O.2   129  ILE129     -0.2718
    122  CB       -30.0920   -6.0790   17.8350 C.3   129  ILE129      0.0266
    123  CG1      -29.0050   -5.3820   16.9810 C.3   129  ILE129      0.0019
    124  CG2      -31.1450   -5.0760   18.3090 C.3   129  ILE129      0.0020
    125  CD1      -29.5290   -4.6360   15.7620 C.3   129  ILE129      0.0001
    126  N        -30.6380   -6.9720   21.0980 N.am  130  ASP130     -0.1960
    127  CA       -31.8020   -7.1690   21.9610 C.3   130  ASP130      0.1840
    128  C        -32.4800   -5.8490   22.2130 C.2   130  ASP130      0.2622
    129  O        -32.1410   -4.8670   21.5340 O.2   130  ASP130     -0.2715
    130  CB       -31.4260   -7.9530   23.2170 C.3   130  ASP130      0.1450
    131  CG       -30.5200   -7.2000   24.1710 C.2   130  ASP130      0.3671
    132  OD1      -29.9600   -7.8730   25.0570 O.co2 130  ASP130     -0.2456
    133  OD2      -30.3960   -5.9750   24.0050 O.co2 130  ASP130     -0.2456
    134  N        -33.5050   -5.7550   23.0590 N.am  131  ASN131     -0.1958
    135  CA       -34.2400   -4.5110   23.1520 C.3   131  ASN131      0.1819
    136  C        -33.5250   -3.3550   23.8750 C.2   131  ASN131      0.2622
    137  O        -34.0190   -2.2450   23.7680 O.2   131  ASN131     -0.2715
    138  CB       -35.5630   -4.7550   23.8670 C.3   131  ASN131      0.1195
    139  CG       -36.6050   -5.2860   22.8890 C.2   131  ASN131      0.2630
    140  OD1      -36.5640   -5.0870   21.6720 O.2   131  ASN131     -0.2716
    141  ND2      -37.5090   -6.0520   23.4720 N.am  131  ASN131     -0.0877
    142  N        -32.4180   -3.6550   24.5380 N.am  132  GLY132     -0.1940
    143  CA       -31.5920   -2.5880   25.1380 C.3   132  GLY132      0.2014
    144  C        -30.6060   -2.0210   24.1370 C.2   132  GLY132      0.2639
    145  O        -30.3450   -2.5650   23.0640 O.2   132  GLY132     -0.2714
    146  N        -29.9600   -0.9610   24.6130 N.am  133  ILE133     -0.1963
    147  CA       -28.9300   -0.2550   23.8050 C.3   133  ILE133      0.1727
    148  C        -27.5450   -0.8960   24.0160 C.2   133  ILE133      0.2616
    149  O        -26.9310   -0.7830   25.0940 O.2   133  ILE133     -0.2715
    150  CB       -28.9470    1.2420   24.1670 C.3   133  ILE133      0.0290
    151  CG1      -30.2890    1.9070   23.8640 C.3   133  ILE133      0.0022
    152  CG2      -27.8240    1.9290   23.3220 C.3   133  ILE133      0.0023
    153  CD1      -30.4660    3.3340   24.3170 C.3   133  ILE133      0.0001
    154  N        -27.0670   -1.6220   23.0070 N.am  134  ASP134     -0.1957
    155  CA       -25.7660   -2.2690   22.9710 C.3   134  ASP134      0.1840
    156  C        -25.5710   -3.3040   24.0700 C.2   134  ASP134      0.2622
    157  O        -24.4560   -3.5530   24.5240 O.2   134  ASP134     -0.2715
    158  CB       -24.6210   -1.2230   23.0570 C.3   134  ASP134      0.1450
    159  CG       -24.7840   -0.0950   22.0610 C.2   134  ASP134      0.3671
    160  OD1      -25.1450   -0.3560   20.8840 O.co2 134  ASP134     -0.2456
    161  OD2      -24.5530    1.0910   22.4520 O.co2 134  ASP134     -0.2456
    162  N        -26.6880   -3.9630   24.4270 N.am  135  THR135     -0.1951
    163  CA       -26.7400   -4.8730   25.5640 C.3   135  THR135      0.1897
    164  C        -26.7400   -6.3510   25.1630 C.2   135  THR135      0.2313
    165  O        -26.5320   -7.2150   26.0500 O.2   135  THR135     -0.2863
    166  CB       -28.0150   -4.5770   26.4100 C.3   135  THR135      0.1794
    167  OG1      -29.0970   -4.3320   25.5050 O.3   135  THR135     -0.2208
    168  CG2      -27.8500   -3.2770   27.2510 C.3   135  THR135      0.0378
    169  N        -22.2420    3.4010   30.0470 N.3   191  TYR191     -0.1241
    170  CA       -23.1800    3.8840   29.0610 C.3   191  TYR191      0.1605
    171  C        -23.1560    5.3930   29.0950 C.2   191  TYR191      0.2264
    172  O        -23.1610    5.9910   30.1730 O.2   191  TYR191     -0.2867
    173  CB       -24.6110    3.4010   29.3810 C.3   191  TYR191      0.0534
    174  CG       -25.7160    4.0580   28.6050 C.ar  191  TYR191     -0.0201
    175  CD1      -26.1020    3.5800   27.3540 C.ar  191  TYR191     -0.0009
    176  CD2      -26.4350    5.1240   29.1330 C.ar  191  TYR191     -0.0009
    177  CE1      -27.1310    4.1450   26.6470 C.ar  191  TYR191      0.0417
    178  CE2      -27.4520    5.7010   28.4550 C.ar  191  TYR191      0.0417
    179  CZ       -27.8460    5.1920   27.2010 C.ar  191  TYR191      0.1957
    180  OH       -28.8850    5.7910   26.5210 O.3   191  TYR191     -0.2866
    181  N        -25.2540    8.7220   27.1670 N.3   193  SER193     -0.1202
    182  CA       -26.2680    9.2410   26.2680 C.3   193  SER193      0.2020
    183  C        -25.8760   10.6000   25.7290 C.2   193  SER193      0.2619
    184  O        -24.9310   11.1940   26.2530 O.2   193  SER193     -0.2717
    185  CB       -27.6820    9.2800   26.8610 C.3   193  SER193      0.2103
    186  OG       -27.7100   10.1680   27.9540 O.3   193  SER193     -0.2182
    187  N        -26.6290   11.1420   24.7830 N.am  194  ARG194     -0.1961
    188  CA       -26.2580   12.4160   24.1790 C.3   194  ARG194      0.1772
    189  C        -26.2070   13.4930   25.2650 C.2   194  ARG194      0.2619
    190  O        -25.2950   14.3220   25.2480 O.2   194  ARG194     -0.2715
    191  CB       -27.1700   12.7760   22.9980 C.3   194  ARG194      0.0603
    192  CG       -27.2670   11.7610   21.8390 C.2   194  ARG194      0.0163
    193  CD       -26.2070   11.9130   20.7230 C.2   194  ARG194      0.1886
    194  NE       -26.3650   11.0210   19.5700 N.pl3 194  ARG194     -0.0578
    195  CZ       -25.3680   10.6440   18.7760 C.cat 194  ARG194      0.5393
    196  NH1      -25.5840    9.8210   17.7600 N.pl3 194  ARG194      0.1358
    197  NH2      -24.1430   11.1390   18.9600 N.pl3 194  ARG194      0.1358
    198  N        -27.1150   13.4690   26.2330 N.am  195  LYS195     -0.1977
    199  CA       -27.1720   14.4900   27.2690 C.3   195  LYS195      0.1596
    200  C        -25.9380   14.4560   28.1610 C.2   195  LYS195      0.2287
    201  O        -25.6960   15.4210   28.8850 O.2   195  LYS195     -0.2864
    202  CB       -28.4210   14.3400   28.1600 C.3   195  LYS195      0.0298
    203  CG       -28.2520   13.4050   29.3610 C.3   195  LYS195      0.0038
    204  CD       -29.5130   13.2070   30.2080 C.3   195  LYS195      0.0206
    205  CE       -29.2640   12.1280   31.2450 C.3   195  LYS195      0.1093
    206  NZ       -28.9400   10.8490   30.5620 N.3   195  LYS195     -0.1314
@<TRIPOS>BOND
     1     1     2    1
     2     2     3    1
     3     2     5    1
     4     7     9   ar
     5     7     6   ar
     6    36    34   ar
     7    36    37   ar
     8     9    11   ar
     9     3     4    2
    10    34    32   ar
    11    54    52   am
    12     5     6    1
    13    37    35   ar
    14     6     8   ar
    15    44    43   ar
    16    12    13    1
    17    11    10   ar
    18    45    43   ar
    19    13    14    1
    20    13    16    1
    21    14    15    2
    22    32    31    1
    23    32    33   ar
    24    22    23    1
    25    22    19    1
    26    21    20    2
    27    43    42    1
    28    35    33   ar
    29    31    28    1
    30    86    84    1
    31    18    19    1
    32    52    53    2
    33    52    51    1
    34    28    27    1
    35    28    29    1
    36    20    27   am
    37    20    19    1
    38     8    10   ar
    39    23    24    1
    40    38    29   am
    41    38    39    1
    42    51    50    1
    43    16    17    1
    44    42    39    1
    45    29    30    2
    46    84    83    1
    47    39    40    1
    48    24    26   ar
    49    24    25   ar
    50    83    85    1
    51    83    80    1
    52    50    47    1
    53    46    40   am
    54    46    47    1
    55    40    41    2
    56    69    67    1
    57    79    80    1
    58    79    73   am
    59    47    48    1
    60    72    71    1
    61    72    73    1
    62    72    75    1
    63    80    81    1
    64    73    74    2
    65    78    76   am
    66    82    81    2
    67    49    48    2
    68    70    68    1
    69   125   123    1
    70    48    55   am
    71    67    68    1
    72    67    64    1
    73    81    87   am
    74    75    76    1
    75    76    77    2
    76   123   122    1
    77    64    63    1
    78    64    65    1
    79    55    56    1
    80    87    88    1
    81   111   110    2
    82    63    57   am
    83    58    57    2
    84    57    56    1
    85   196   195    1
    86   122   124    1
    87   122   119    1
    88   108   109    1
    89    56    59    1
    90    88    89    1
    91    88    91    1
    92    89    90    2
    93    65    66    2
    94   110   109    1
    95   118   119    1
    96   195   197    1
    97   195   194    2
    98   109   112    1
    99   119   120    1
   100   121   120    2
   101    59    60    1
   102    59    61    1
   103   194   193    1
   104    91    92    1
   105   117   115   ar
   106   117   116   ar
   107   115   113   ar
   108   120   126   am
   109   116   114   ar
   110   113   114   ar
   111   113   112    1
   112    60    62    1
   113    93    92   ar
   114    93    95   ar
   115    92    94   ar
   116   193   192    2
   117   160   159   ar
   118   126   127    1
   119   106   105    1
   120    95    96   ar
   121   105   102    1
   122   105   107    1
   123   129   128    2
   124    94    96   ar
   125   140   139    2
   126   100    99    2
   127   102   103    1
   128   102   101    1
   129   192   191    1
   130   127   128    1
   131   127   130    1
   132   159   161   ar
   133   159   158    1
   134   103   104    2
   135   128   134   am
   136    99   101   am
   137    99    98    1
   138   139   141   am
   139   139   138    1
   140   155   154    1
   141   155   158    1
   142   155   156    1
   143   191   188    1
   144   154   148   am
   145   134   135    1
   146   145   144    2
   147   135   138    1
   148   135   136    1
   149   130   131    1
   150   152   150    1
   151   137   136    2
   152   147   148    1
   153   147   150    1
   154   147   146    1
   155   151   150    1
   156   151   153    1
   157   136   142   am
   158    98    97    1
   159   133   131   ar
   160   148   149    2
   161   156   162   am
   162   156   157    2
   163   144   146   am
   164   144   143    1
   165   131   132   ar
   166   188   187    1
   167   188   189    1
   168   162   163    1
   169   142   143    1
   170   187   183   am
   171   164   163    1
   172   164   165    2
   173   190   189    2
   174   189   198   am
   175   167   166    1
   176   163   166    1
   177   183   184    2
   178   183   182    1
   179   198   199    1
   180   182   185    1
   181   182   181    1
   182   166   168    1
   183   180   179    1
   184   177   179   ar
   185   177   175   ar
   186   185   186    1
   187   179   178   ar
   188   199   202    1
   189   199   200    1
   190   175   174   ar
   191   202   203    1
   192   200   201    2
   193   178   176   ar
   194   174   176   ar
   195   174   173    1
   196   170   171    1
   197   170   173    1
   198   170   169    1
   199   171   172    2
   200   203   204    1
   201   204   205    1
   202   206   205    1
