@<TRIPOS>MOLECULE
tmp/4lxxA03.pdb
 228 223 0 0 0
SMALL
GASTEIGER

@<TRIPOS>ATOM
      1  N        -25.1040    3.5250    7.9790 N.3    11  LYS11      -0.1231
      2  CA       -24.4300    4.6160    7.2620 C.3    11  LYS11       0.1693
      3  C        -22.9250    4.4550    7.2160 C.2    11  LYS11       0.2592
      4  O        -22.3150    3.6270    7.8970 O.2    11  LYS11      -0.2718
      5  CB       -24.7600    5.9980    7.8880 C.3    11  LYS11       0.0285
      6  CG       -24.0900    6.1780    9.2810 C.3    11  LYS11       0.0035
      7  CD       -24.2390    7.6590    9.6650 C.3    11  LYS11       0.0206
      8  CE       -23.7520    7.7510   11.1010 C.3    11  LYS11       0.1093
      9  NZ       -23.8410    9.1790   11.5840 N.3    11  LYS11      -0.1314
     10  N        -22.3210    5.3290    6.4030 N.am   12  ASN12      -0.1974
     11  CA       -20.8620    5.5470    6.4130 C.3    12  ASN12       0.1688
     12  C        -20.0720    4.4240    5.7700 C.2    12  ASN12       0.2292
     13  O        -20.7060    3.4760    5.2450 O.2    12  ASN12      -0.2864
     14  CB       -20.3300    6.0010    7.7850 C.3    12  ASN12       0.1181
     15  CG       -20.7990    7.4030    8.1400 C.2    12  ASN12       0.2629
     16  OD1      -21.4330    8.0870    7.3290 O.2    12  ASN12      -0.2716
     17  ND2      -20.5070    7.8290    9.3720 N.am   12  ASN12      -0.0877
     18  N        -29.8470    5.7220    7.1390 N.3    37  ASN37      -0.1240
     19  CA       -30.2040    6.6400    8.2200 C.3    37  ASN37       0.1653
     20  C        -30.9960    7.8270    7.6800 C.2    37  ASN37       0.2266
     21  O        -30.9350    8.1640    6.4910 O.2    37  ASN37      -0.2867
     22  CB       -28.9640    7.1140    8.9680 C.3    37  ASN37       0.1155
     23  CG       -28.4240    6.0380    9.9030 C.2    37  ASN37       0.2627
     24  OD1      -28.9000    4.9050    9.8960 O.2    37  ASN37      -0.2716
     25  ND2      -27.4390    6.3640   10.6940 N.am   37  ASN37      -0.0877
     26  N        -23.9850    1.2170   12.2310 N.3    79  GLU79      -0.1231
     27  CA       -24.2300    2.6270   12.5190 C.3    79  GLU79       0.1699
     28  C        -25.6460    3.0970   12.2540 C.2    79  GLU79       0.2592
     29  O        -25.9100    4.2670   12.0160 O.2    79  GLU79      -0.2718
     30  CB       -23.1700    3.5770   11.8990 C.3    79  GLU79       0.0402
     31  CG       -21.7660    3.2180   12.3200 C.3    79  GLU79       0.1161
     32  CD       -21.6000    3.1650   13.8710 C.2    79  GLU79       0.3649
     33  OE1      -21.6590    4.2420   14.5350 O.co2  79  GLU79      -0.2457
     34  OE2      -21.3780    2.0640   14.4650 O.co2  79  GLU79      -0.2457
     35  N        -26.6210    2.1830   12.3650 N.am   80  PHE80      -0.1962
     36  CA       -28.0370    2.5400   12.2070 C.3    80  PHE80       0.1771
     37  C        -28.5220    3.4380   13.3570 C.2    80  PHE80       0.2619
     38  O        -28.1060    3.2580   14.5140 O.2    80  PHE80      -0.2715
     39  CB       -28.8840    1.2500   12.1470 C.3    80  PHE80       0.0574
     40  CG       -30.3070    1.4290   11.7340 C.ar   80  PHE80      -0.0200
     41  CD1      -31.2960    0.7370   12.4360 C.ar   80  PHE80      -0.0042
     42  CD2      -30.6720    2.2010   10.6400 C.ar   80  PHE80      -0.0042
     43  CE1      -32.6490    0.8020   12.0550 C.ar   80  PHE80      -0.0003
     44  CE2      -32.0200    2.3160   10.2540 C.ar   80  PHE80      -0.0003
     45  CZ       -32.9930    1.6180   10.9550 C.ar   80  PHE80      -0.0000
     46  N        -29.4310    4.3480   13.0320 N.am   81  ASP81      -0.1971
     47  CA       -29.8600    5.4200   13.9330 C.3    81  ASP81       0.1709
     48  C        -31.1620    5.1780   14.6690 C.2    81  ASP81       0.2293
     49  O        -31.5720    6.0320   15.4650 O.2    81  ASP81      -0.2864
     50  CB       -29.9020    6.7620   13.1810 C.3    81  ASP81       0.1436
     51  CG       -30.8810    6.7640   12.0250 C.2    81  ASP81       0.3671
     52  OD1      -31.1160    7.8620   11.4410 O.co2  81  ASP81      -0.2456
     53  OD2      -31.4570    5.7250   11.6410 O.co2  81  ASP81      -0.2456
     54  N        -25.6480   -6.2720   15.2770 N.3    96  ASN96      -0.1225
     55  CA       -25.0760   -4.9100   15.2470 C.3    96  ASN96       0.1785
     56  C        -23.5770   -5.0110   15.4380 C.2    96  ASN96       0.2597
     57  O        -23.0660   -5.9000   16.1120 O.2    96  ASN96      -0.2718
     58  CB       -25.6370   -4.0820   16.4070 C.3    96  ASN96       0.1169
     59  CG       -25.1080   -2.6460   16.4000 C.2    96  ASN96       0.2627
     60  OD1      -24.4360   -2.2340   17.4890 O.2    96  ASN96      -0.2716
     61  ND2      -25.3270   -1.9270   15.4260 N.am   96  ASN96      -0.0877
     62  N        -22.8230   -4.0700   14.8520 N.am   97  ILE97      -0.1966
     63  CA       -21.4240   -3.8400   15.2500 C.3    97  ILE97       0.1727
     64  C        -21.3790   -2.5060   16.0210 C.2    97  ILE97       0.2616
     65  O        -21.7460   -1.4570   15.4690 O.2    97  ILE97      -0.2715
     66  CB       -20.4820   -3.8040   14.0610 C.3    97  ILE97       0.0290
     67  CG1      -20.3440   -5.2610   13.5680 C.3    97  ILE97       0.0022
     68  CG2      -19.1000   -3.2670   14.5300 C.3    97  ILE97       0.0023
     69  CD1      -19.7270   -5.4370   12.1870 C.3    97  ILE97       0.0001
     70  N        -21.0250   -2.5990   17.2900 N.am   98  HIS98      -0.1959
     71  CA       -20.9090   -1.4030   18.1360 C.3    98  HIS98       0.1787
     72  C        -19.4670   -0.9650   18.2800 C.2    98  HIS98       0.2620
     73  O        -18.5700   -1.7710   18.4570 O.2    98  HIS98      -0.2715
     74  CB       -21.4850   -1.6970   19.5240 C.3    98  HIS98       0.0785
     75  CG       -21.4540   -0.4970   20.4180 C.ar   98  HIS98       0.0821
     76  ND1      -22.2530    0.6130   20.2080 N.ar   98  HIS98      -0.2267
     77  CD2      -20.7390   -0.2500   21.5370 C.ar   98  HIS98       0.1154
     78  CE1      -22.0110    1.5010   21.1650 C.ar   98  HIS98       0.1986
     79  NE2      -21.1050    1.0040   21.9820 N.ar   98  HIS98      -0.2212
     80  N        -19.2950    0.3520   18.1510 N.am   99  PHE99      -0.1974
     81  CA       -17.9450    0.9480   18.2290 C.3    99  PHE99       0.1639
     82  C        -17.4800    1.1830   19.6840 C.2    99  PHE99       0.2290
     83  O        -17.2530    2.3340   20.1190 O.2    99  PHE99      -0.2864
     84  CB       -17.9250    2.2560   17.4420 C.3    99  PHE99       0.0560
     85  CG       -18.0000    2.0840   15.9480 C.ar   99  PHE99      -0.0200
     86  CD1      -17.9690    0.8440   15.3170 C.ar   99  PHE99      -0.0042
     87  CD2      -18.1020    3.2240   15.1650 C.ar   99  PHE99      -0.0042
     88  CE1      -18.0240    0.7640   13.9270 C.ar   99  PHE99      -0.0003
     89  CE2      -18.1640    3.1460   13.8010 C.ar   99  PHE99      -0.0003
     90  CZ       -18.1200    1.8950   13.1600 C.ar   99  PHE99      -0.0000
     91  N        -24.0380    3.0930   24.2750 N.3   107  GLY107     -0.1210
     92  CA       -24.6400    4.3980   23.9770 C.3   107  GLY107      0.1956
     93  C        -23.8530    5.1040   22.8800 C.2   107  GLY107      0.2612
     94  O        -23.4230    4.4860   21.9020 O.2   107  GLY107     -0.2717
     95  N        -23.7250    6.4150   23.0130 N.am  108  VAL108     -0.1965
     96  CA       -23.3660    7.2520   21.8730 C.3   108  VAL108      0.1727
     97  C        -22.0290    7.9400   22.1020 C.2   108  VAL108      0.2616
     98  O        -21.3940    7.8120   23.1660 O.2   108  VAL108     -0.2715
     99  CB       -24.4600    8.2490   21.5320 C.3   108  VAL108      0.0290
    100  CG1      -25.7920    7.4640   21.3400 C.3   108  VAL108      0.0023
    101  CG2      -24.5650    9.2540   22.6280 C.3   108  VAL108      0.0023
    102  N        -21.6030    8.6130   21.0360 N.am  109  PHE109     -0.1960
    103  CA       -20.3590    9.4140   21.1080 C.3   109  PHE109      0.1771
    104  C        -19.1770    8.5580   21.5280 C.2   109  PHE109      0.2620
    105  O        -18.3140    8.9870   22.3150 O.2   109  PHE109     -0.2715
    106  CB       -20.4750   10.6450   22.0320 C.3   109  PHE109      0.0574
    107  CG       -21.4040   11.6970   21.5570 C.ar  109  PHE109     -0.0200
    108  CD1      -22.2500   12.3040   22.4470 C.ar  109  PHE109     -0.0042
    109  CD2      -21.4380   12.0600   20.2360 C.ar  109  PHE109     -0.0042
    110  CE1      -23.1440   13.3020   22.0340 C.ar  109  PHE109     -0.0003
    111  CE2      -22.3140   13.0670   19.7970 C.ar  109  PHE109     -0.0003
    112  CZ       -23.1730   13.6750   20.7000 C.ar  109  PHE109     -0.0000
    113  N        -19.0500    7.3580   20.9990 N.am  110  THR110     -0.1937
    114  CA       -18.0340    6.4510   21.4680 C.3   110  THR110      0.2028
    115  C        -16.6160    6.6910   20.9580 C.2   110  THR110      0.2643
    116  O        -15.6940    5.9810   21.3750 O.2   110  THR110     -0.2714
    117  CB       -18.4030    4.9730   21.2190 C.3   110  THR110      0.1808
    118  OG1      -18.3550    4.7400   19.8190 O.3   110  THR110     -0.2208
    119  CG2      -19.7970    4.5860   21.7720 C.3   110  THR110      0.0379
    120  N        -16.4160    7.6500   20.0480 N.am  111  SER111     -0.1935
    121  CA       -15.0790    8.1660   19.7530 C.3   111  SER111      0.2055
    122  C        -14.6400    9.2180   20.7460 C.2   111  SER111      0.2642
    123  O        -13.4650    9.5800   20.7230 O.2   111  SER111     -0.2714
    124  CB       -15.0460    8.7280   18.3250 C.3   111  SER111      0.2130
    125  OG       -15.4470    7.7250   17.3810 O.3   111  SER111     -0.2179
    126  N        -15.5770    9.7210   21.5430 N.am  112  ILE112     -0.1977
    127  CA       -15.2850   10.7370   22.5880 C.3   112  ILE112      0.1596
    128  C        -15.1520   10.0580   23.9510 C.2   112  ILE112      0.2287
    129  O        -14.1730   10.2280   24.6870 O.2   112  ILE112     -0.2864
    130  CB       -16.3890   11.8140   22.6350 C.3   112  ILE112      0.0276
    131  CG1      -16.4540   12.5210   21.2860 C.3   112  ILE112      0.0022
    132  CG2      -16.1150   12.8500   23.7870 C.3   112  ILE112      0.0022
    133  CD1      -17.5020   13.5920   21.2310 C.3   112  ILE112      0.0001
    134  N        -30.0310   -0.9070   24.8030 N.3   133  ILE133     -0.1231
    135  CA       -29.0450   -0.1920   23.9760 C.3   133  ILE133      0.1692
    136  C        -27.6590   -0.8260   24.1360 C.2   133  ILE133      0.2592
    137  O        -27.0410   -0.7620   25.2180 O.2   133  ILE133     -0.2718
    138  CB       -29.0080    1.3220   24.3390 C.3   133  ILE133      0.0266
    139  CG1      -30.3720    1.9670   24.0520 C.3   133  ILE133      0.0019
    140  CG2      -27.9100    2.0000   23.4950 C.3   133  ILE133      0.0020
    141  CD1      -30.4960    3.3820   24.5730 C.3   133  ILE133      0.0001
    142  N        -27.2150   -1.5100   23.0830 N.am  134  ASP134     -0.1974
    143  CA       -25.9440   -2.2020   23.0640 C.3   134  ASP134      0.1709
    144  C        -25.7570   -3.2110   24.1610 C.2   134  ASP134      0.2293
    145  O        -24.6370   -3.4830   24.6180 O.2   134  ASP134     -0.2864
    146  CB       -24.7600   -1.2060   23.0970 C.3   134  ASP134      0.1436
    147  CG       -24.9060   -0.1190   22.0430 C.2   134  ASP134      0.3671
    148  OD1      -25.1610   -0.4820   20.8560 O.co2 134  ASP134     -0.2456
    149  OD2      -24.7810    1.0950   22.3730 O.co2 134  ASP134     -0.2456
    150  N        -10.3530   12.0180   18.7300 N.3   152  ALA152     -0.1245
    151  CA       -11.6520   11.3550   18.4940 C.3   152  ALA152      0.1562
    152  C        -11.7720   10.9850   17.0160 C.2   152  ALA152      0.2260
    153  O        -12.2670    9.8830   16.6850 O.2   152  ALA152     -0.2867
    154  CB       -12.7460   12.2660   18.8740 C.3   152  ALA152      0.0290
    155  N        -12.3580    7.2630   15.5410 N.3   156  TYR156     -0.1241
    156  CA       -13.4820    6.9150   14.6740 C.3   156  TYR156      0.1605
    157  C        -13.0230    6.1870   13.4260 C.2   156  TYR156      0.2264
    158  O        -13.6390    5.1740   13.0150 O.2   156  TYR156     -0.2867
    159  CB       -14.3330    8.1420   14.3350 C.3   156  TYR156      0.0534
    160  CG       -15.6050    7.7580   13.6020 C.ar  156  TYR156     -0.0201
    161  CD1      -16.6850    7.2310   14.3110 C.ar  156  TYR156     -0.0009
    162  CD2      -15.7210    7.9380   12.2290 C.ar  156  TYR156     -0.0009
    163  CE1      -17.8510    6.8510   13.6550 C.ar  156  TYR156      0.0417
    164  CE2      -16.9010    7.5970   11.5610 C.ar  156  TYR156      0.0417
    165  CZ       -17.9430    7.0540   12.2820 C.ar  156  TYR156      0.1957
    166  OH       -19.1050    6.6890   11.5980 O.3   156  TYR156     -0.2866
    167  N        -26.6410   11.1950   24.7670 N.3   194  ARG194     -0.1245
    168  CA       -26.2720   12.4440   24.1070 C.3   194  ARG194      0.1563
    169  C        -26.2140   13.5680   25.1410 C.2   194  ARG194      0.2260
    170  O        -25.3140   14.3960   25.0880 O.2   194  ARG194     -0.2867
    171  CB       -27.2180   12.7780   22.9290 C.3   194  ARG194      0.0307
    172  CG       -27.2340   11.7380   21.7680 C.3   194  ARG194      0.0489
    173  CD       -26.2920   11.9730   20.5510 C.3   194  ARG194      0.2205
    174  NE       -26.4150   10.9510   19.4880 N.pl3 194  ARG194     -0.0865
    175  CZ       -25.4300   10.5510   18.6750 C.cat 194  ARG194      0.5346
    176  NH1      -25.6540    9.6230   17.7530 N.pl3 194  ARG194      0.1354
    177  NH2      -24.2070   11.0680   18.7560 N.pl3 194  ARG194      0.1354
    178  N        -20.7860   18.9880   23.7270 N.3   199  LEU199     -0.1245
    179  CA       -19.8350   18.9960   22.6240 C.3   199  LEU199      0.1561
    180  C        -19.0340   20.2880   22.5160 C.2   199  LEU199      0.2260
    181  O        -18.0620   20.3340   21.7640 O.2   199  LEU199     -0.2867
    182  CB       -20.5410   18.7500   21.2940 C.3   199  LEU199      0.0270
    183  CG       -21.0980   17.3360   21.1450 C.3   199  LEU199      0.0019
    184  CD1      -22.0950   17.2820   19.9660 C.3   199  LEU199      0.0001
    185  CD2      -19.9350   16.3770   20.9320 C.3   199  LEU199      0.0001
    186  N        -12.3120   15.8210   21.8860 N.3   219  PHE219     -0.1241
    187  CA       -13.2260   16.6400   21.1130 C.3   219  PHE219      0.1605
    188  C        -12.6690   17.0970   19.7520 C.2   219  PHE219      0.2264
    189  O        -13.3390   17.8500   19.0240 O.2   219  PHE219     -0.2867
    190  CB       -13.7580   17.8120   21.9390 C.3   219  PHE219      0.0534
    191  CG       -14.6060   17.3720   23.0870 C.ar  219  PHE219     -0.0203
    192  CD1      -15.9710   17.1960   22.9200 C.ar  219  PHE219     -0.0042
    193  CD2      -14.0480   17.0640   24.3140 C.ar  219  PHE219     -0.0042
    194  CE1      -16.7640   16.7540   23.9850 C.ar  219  PHE219     -0.0003
    195  CE2      -14.8370   16.6300   25.3710 C.ar  219  PHE219     -0.0003
    196  CZ       -16.2010   16.4840   25.2090 C.ar  219  PHE219     -0.0000
    197  N        -12.4950   16.5490   16.3300 N.3   221  PHE221     -0.1241
    198  CA       -13.0870   15.7890   15.2060 C.3   221  PHE221      0.1605
    199  C        -13.6060   16.8410   14.2310 C.2   221  PHE221      0.2264
    200  O        -14.7690   17.2310   14.2880 O.2   221  PHE221     -0.2867
    201  CB       -14.2000   14.8620   15.7290 C.3   221  PHE221      0.0534
    202  CG       -14.5760   13.7310   14.7830 C.ar  221  PHE221     -0.0203
    203  CD1      -14.9990   12.5070   15.3180 C.ar  221  PHE221     -0.0042
    204  CD2      -14.5470   13.8620   13.4030 C.ar  221  PHE221     -0.0042
    205  CE1      -15.4020   11.4350   14.4530 C.ar  221  PHE221     -0.0003
    206  CE2      -14.9380   12.7980   12.5500 C.ar  221  PHE221     -0.0003
    207  CZ       -15.3560   11.5820   13.1050 C.ar  221  PHE221     -0.0000
    208  N        -16.9810   17.8230   12.6790 N.3   224  TYR224     -0.1227
    209  CA       -17.9900   18.2720   13.6130 C.3   224  TYR224      0.1736
    210  C        -17.5880   19.4950   14.4440 C.2   224  TYR224      0.2595
    211  O        -18.3160   20.5090   14.4260 O.2   224  TYR224     -0.2718
    212  CB       -18.3280   17.1170   14.5650 C.3   224  TYR224      0.0548
    213  CG       -18.9970   15.9190   13.8870 C.ar  224  TYR224     -0.0200
    214  CD1      -20.3250   15.9870   13.4810 C.ar  224  TYR224     -0.0009
    215  CD2      -18.2790   14.7490   13.6480 C.ar  224  TYR224     -0.0009
    216  CE1      -20.9190   14.8970   12.8690 C.ar  224  TYR224      0.0417
    217  CE2      -18.8700   13.6580   13.0400 C.ar  224  TYR224      0.0417
    218  CZ       -20.1730   13.7690   12.6740 C.ar  224  TYR224      0.1957
    219  OH       -20.7790   12.6900   12.0770 O.3   224  TYR224     -0.2866
    220  N        -16.4930   19.3990   15.1980 N.am  225  GLN225     -0.1979
    221  CA       -16.0560   20.5640   15.9980 C.3   225  GLN225      0.1601
    222  C        -14.6200   20.3710   16.3910 C.2   225  GLN225      0.2287
    223  O        -14.0780   19.2830   16.2640 O.2   225  GLN225     -0.2864
    224  CB       -16.9060   20.7880   17.2510 C.3   225  GLN225      0.0394
    225  CG       -16.6380   19.7910   18.4250 C.3   225  GLN225      0.0908
    226  CD       -17.1590   18.3870   18.1570 C.2   225  GLN225      0.2608
    227  OE1      -18.3540   18.2040   17.8810 O.2   225  GLN225     -0.2717
    228  NE2      -16.2650   17.4070   18.2320 N.am  225  GLN225     -0.0878
@<TRIPOS>BOND
     1    13    12    2
     2    12    11    1
     3    10    11    1
     4    10     3   am
     5    11    14    1
     6    21    20    2
     7    18    19    1
     8     3     2    1
     9     3     4    2
    10     2     5    1
    11     2     1    1
    12    16    15    2
    13    20    19    1
    14    14    15    1
    15     5     6    1
    16    15    17   am
    17    19    22    1
    18    22    23    1
    19     6     7    1
    20     7     8    1
    21    24    23    2
    22    23    25   am
    23    44    42   ar
    24    44    45   ar
    25    42    40   ar
    26    45    43   ar
    27     8     9    1
    28    52    51   ar
    29   164   162   ar
    30   164   165   ar
    31   166   165    1
    32    53    51   ar
    33    40    39    1
    34    40    41   ar
    35    30    31    1
    36    30    27    1
    37    29    28    2
    38    51    50    1
    39    43    41   ar
    40   219   218    1
    41    39    36    1
    42    69    67    1
    43    36    35    1
    44    36    37    1
    45   162   160   ar
    46    26    27    1
    47    28    35   am
    48    28    27    1
    49   165   163   ar
    50    31    32    1
    51   206   207   ar
    52   206   204   ar
    53   218   216   ar
    54   218   217   ar
    55   208   209    1
    56   216   214   ar
    57   158   157    2
    58    46    37   am
    59    46    47    1
    60   217   215   ar
    61   207   205   ar
    62    90    89   ar
    63    90    88   ar
    64    50    47    1
    65    37    38    2
    66   204   202   ar
    67   157   156    1
    68   214   213   ar
    69    67    66    1
    70   160   161   ar
    71   160   159    1
    72   209   210    1
    73   209   212    1
    74   215   213   ar
    75   163   161   ar
    76    89    87   ar
    77    32    34   ar
    78    32    33   ar
    79   213   212    1
    80    88    86   ar
    81    47    48    1
    82    66    68    1
    83    66    63    1
    84   199   200    2
    85   199   198    1
    86   159   156    1
    87   211   210    2
    88   210   220   am
    89   205   203   ar
    90    48    49    2
    91   156   155    1
    92   202   203   ar
    93   202   201    1
    94    62    63    1
    95    62    56   am
    96    87    85   ar
    97   220   221    1
    98   198   201    1
    99   198   197    1
   100    55    54    1
   101    55    56    1
   102    55    58    1
   103    63    64    1
   104    86    85   ar
   105    61    59   am
   106    56    57    2
   107    65    64    2
   108    85    84    1
   109   221   222    1
   110   221   224    1
   111    64    70   am
   112   223   222    2
   113    59    58    1
   114    59    60    2
   115   153   152    2
   116   152   151    1
   117   224   225    1
   118    70    71    1
   119   125   124    1
   120    84    81    1
   121   176   175    1
   122   227   226    2
   123    71    72    1
   124    71    74    1
   125    80    81    1
   126    80    72   am
   127   226   228   am
   128   226   225    1
   129    81    82    1
   130    72    73    2
   131   124   121    1
   132   151   150    1
   133   151   154    1
   134   175   177    1
   135   175   174    2
   136   189   188    2
   137   174   173    1
   138    74    75    1
   139    82    83    2
   140   188   187    1
   141   121   120    1
   142   121   122    1
   143   111   109   ar
   144   111   112   ar
   145   118   117    1
   146   184   183    1
   147   120   115   am
   148    76    75   ar
   149    76    78   ar
   150   109   107   ar
   151    75    77   ar
   152   173   172    1
   153   112   110   ar
   154   123   122    2
   155   122   126   am
   156   148   147   ar
   157   185   183    1
   158   115   116    2
   159   115   114    1
   160   113   114    1
   161   113   104   am
   162   102   103    1
   163   102    97   am
   164   103   104    1
   165   103   106    1
   166   187   186    1
   167   187   190    1
   168   183   182    1
   169    78    79   ar
   170   117   114    1
   171   117   119    1
   172   133   131    1
   173   131   130    1
   174   182   179    1
   175   100    99    1
   176   104   105    2
   177    99    96    1
   178    99   101    1
   179    77    79   ar
   180   126   127    1
   181   107   106    1
   182   107   108   ar
   183   181   180    2
   184   172   171    1
   185    96    97    1
   186    96    95    1
   187    94    93    2
   188   190   191    1
   189   110   108   ar
   190   147   149   ar
   191   147   146    1
   192    97    98    2
   193   180   179    1
   194   127   130    1
   195   127   128    1
   196   179   178    1
   197   130   132    1
   198    93    95   am
   199    93    92    1
   200   192   191   ar
   201   192   194   ar
   202   171   168    1
   203   143   142    1
   204   143   146    1
   205   143   144    1
   206   142   136   am
   207   191   193   ar
   208   140   138    1
   209   128   129    2
   210   135   136    1
   211   135   138    1
   212   135   134    1
   213    92    91    1
   214   194   196   ar
   215   139   138    1
   216   139   141    1
   217   168   167    1
   218   168   169    1
   219   136   137    2
   220   144   145    2
   221   193   195   ar
   222   170   169    2
   223   196   195   ar
