@<TRIPOS>MOLECULE
tmp/4lxzB04.pdb
 159 156 0 0 0
SMALL
GASTEIGER

@<TRIPOS>ATOM
      1  N         32.9480    3.4660  -24.9420 N.3    20  GLY20      -0.1210
      2  CA        32.8340    3.8010  -26.3610 C.3    20  GLY20       0.1956
      3  C         33.9790    3.3230  -27.2430 C.2    20  GLY20       0.2612
      4  O         33.8650    3.3940  -28.4680 O.2    20  GLY20      -0.2717
      5  N         35.1170    2.8880  -26.6510 N.am   21  HIS21      -0.1962
      6  CA        36.2630    2.4530  -27.4580 C.3    21  HIS21       0.1772
      7  C         35.9560    1.0690  -28.0930 C.2    21  HIS21       0.2462
      8  O         35.5520    0.1440  -27.3840 O.2    21  HIS21      -0.2730
      9  CB        37.5930    2.4620  -26.6480 C.3    21  HIS21       0.0785
     10  CG        38.8060    2.4370  -27.5440 C.ar   21  HIS21       0.0821
     11  ND1       39.0980    1.3290  -28.3330 N.ar   21  HIS21      -0.2267
     12  CD2       39.7250    3.4060  -27.7960 C.ar   21  HIS21       0.1154
     13  CE1       40.1820    1.6470  -29.0180 C.ar   21  HIS21       0.1986
     14  NE2       40.6050    2.8850  -28.7230 N.ar   21  HIS21      -0.2212
     15  N         36.1010    0.9140  -29.4260 N.am   22  PRO22      -0.2716
     16  CA        35.7220   -0.3700  -30.0540 C.3    22  PRO22       0.1536
     17  C         36.6280   -1.5460  -29.7210 C.2    22  PRO22       0.2598
     18  O         36.1870   -2.6760  -29.8900 O.2    22  PRO22      -0.2715
     19  CB        35.7320   -0.0660  -31.5580 C.3    22  PRO22       0.0310
     20  CG        36.6320    1.1030  -31.7000 C.3    22  PRO22       0.0237
     21  CD        36.5210    1.9080  -30.4360 C.3    22  PRO22       0.0939
     22  N         37.9000   -1.2920  -29.3060 N.am   23  MET23      -0.1978
     23  CA        38.8360   -2.3830  -28.9830 C.3    23  MET23       0.1605
     24  C         38.4820   -2.9870  -27.6330 C.2    23  MET23       0.2287
     25  O         38.5120   -2.2920  -26.6210 O.2    23  MET23      -0.2864
     26  CB        40.3050   -1.9240  -29.0340 C.3    23  MET23       0.0413
     27  CG        41.3020   -3.0340  -28.5980 C.3    23  MET23       0.0598
     28  SD        41.2000   -4.5250  -29.6210 S.3    23  MET23      -0.1393
     29  CE        42.3470   -4.0820  -30.9100 C.3    23  MET23       0.0692
     30  N         44.3550    9.3830  -27.5980 N.3    91  GLU91      -0.1231
     31  CA        43.1480    9.4270  -28.4370 C.3    91  GLU91       0.1699
     32  C         42.6950    8.0400  -28.8990 C.2    91  GLU91       0.2592
     33  O         41.9120    7.4110  -28.1990 O.2    91  GLU91      -0.2718
     34  CB        43.2810   10.4300  -29.5880 C.3    91  GLU91       0.0402
     35  CG        43.4180   11.8620  -29.1010 C.3    91  GLU91       0.1161
     36  CD        44.7510   12.4760  -29.4700 C.2    91  GLU91       0.3649
     37  OE1       45.7730   12.0970  -28.8530 O.co2  91  GLU91      -0.2457
     38  OE2       44.7790   13.3020  -30.4110 O.co2  91  GLU91      -0.2457
     39  N         43.2030    7.5470  -30.0400 N.am   92  ASP92      -0.1974
     40  CA        42.8740    6.1980  -30.5180 C.3    92  ASP92       0.1709
     41  C         43.5110    5.1880  -29.5870 C.2    92  ASP92       0.2293
     42  O         43.0070    4.0880  -29.4660 O.2    92  ASP92      -0.2864
     43  CB        43.4580    5.9430  -31.9230 C.3    92  ASP92       0.1436
     44  CG        42.7900    6.6430  -33.0810 C.2    92  ASP92       0.3671
     45  OD1       41.5800    6.9540  -32.9710 O.co2  92  ASP92      -0.2456
     46  OD2       43.4390    6.7740  -34.1390 O.co2  92  ASP92      -0.2456
     47  N         49.6420   -4.9290  -35.0530 N.3   133  HIS133     -0.1226
     48  CA        50.4370   -4.5370  -36.2170 C.3   133  HIS133      0.1752
     49  C         50.8270   -3.0920  -36.4350 C.2   133  HIS133      0.2596
     50  O         51.7730   -2.8440  -37.2000 O.2   133  HIS133     -0.2718
     51  CB        49.9070   -5.1770  -37.5230 C.3   133  HIS133      0.0759
     52  CG        48.5050   -4.8330  -37.9310 C.ar  133  HIS133      0.0818
     53  ND1       48.0140   -5.2330  -39.1650 N.ar  133  HIS133     -0.2268
     54  CD2       47.5330   -4.1650  -37.2730 C.ar  133  HIS133      0.1154
     55  CE1       46.7690   -4.7930  -39.2250 C.ar  133  HIS133      0.1986
     56  NE2       46.4320   -4.1380  -38.1100 N.ar  133  HIS133     -0.2212
     57  N         50.0890   -2.1420  -35.8330 N.am  134  HIS134     -0.1975
     58  CA        50.3780   -0.7110  -36.0630 C.3   134  HIS134      0.1656
     59  C         51.4720   -0.0870  -35.2200 C.2   134  HIS134      0.2291
     60  O         51.9510    0.9810  -35.5850 O.2   134  HIS134     -0.2864
     61  CB        49.1030    0.1340  -35.9180 C.3   134  HIS134      0.0771
     62  CG        47.9990   -0.2530  -36.8590 C.ar  134  HIS134      0.0820
     63  ND1       48.2080   -0.3420  -38.2260 N.ar  134  HIS134     -0.2267
     64  CD2       46.7160   -0.5800  -36.5860 C.ar  134  HIS134      0.1154
     65  CE1       47.0460   -0.7260  -38.7400 C.ar  134  HIS134      0.1986
     66  NE2       46.1130   -0.8630  -37.7900 N.ar  134  HIS134     -0.2212
     67  N         46.6700    3.1320  -33.9080 N.3   142  GLY142     -0.1210
     68  CA        45.5940    2.1990  -34.2560 C.3   142  GLY142      0.1956
     69  C         45.2740    1.1570  -33.2160 C.2   142  GLY142      0.2612
     70  O         45.1260   -0.0270  -33.5500 O.2   142  GLY142     -0.2717
     71  N         45.1950    1.6000  -31.9390 N.am  143  PHE143     -0.1962
     72  CA        44.8580    0.7740  -30.7550 C.3   143  PHE143      0.1771
     73  C         46.0060   -0.1520  -30.3180 C.2   143  PHE143      0.2619
     74  O         45.8100   -0.9620  -29.4100 O.2   143  PHE143     -0.2715
     75  CB        43.5760   -0.0620  -31.0040 C.3   143  PHE143      0.0574
     76  CG        42.3990    0.6360  -31.6720 C.ar  143  PHE143     -0.0200
     77  CD1       42.2370    2.0270  -31.5790 C.ar  143  PHE143     -0.0042
     78  CD2       41.4220   -0.1020  -32.3360 C.ar  143  PHE143     -0.0042
     79  CE1       41.1310    2.6630  -32.1570 C.ar  143  PHE143     -0.0003
     80  CE2       40.3010    0.5300  -32.8990 C.ar  143  PHE143     -0.0003
     81  CZ        40.1730    1.9150  -32.8170 C.ar  143  PHE143     -0.0000
     82  N         47.1760   -0.0270  -30.9700 N.am  144  CYS144     -0.1968
     83  CA        48.3830   -0.8350  -30.7650 C.3   144  CYS144      0.1712
     84  C         49.4210   -0.0220  -30.0380 C.2   144  CYS144      0.2296
     85  O         49.6990    1.0900  -30.4680 O.2   144  CYS144     -0.2864
     86  CB        48.9440   -1.3570  -32.0910 C.3   144  CYS144      0.0983
     87  SG        47.7430   -2.2520  -33.1330 S.3   144  CYS144     -0.0798
     88  N         44.2090   -8.9870  -41.6680 N.3   169  ASP169     -0.1239
     89  CA        43.4130   -7.9590  -41.0020 C.3   169  ASP169      0.1674
     90  C         42.8970   -7.0410  -42.1210 C.2   169  ASP169      0.2266
     91  O         43.5710   -6.9350  -43.1510 O.2   169  ASP169     -0.2867
     92  CB        44.3470   -7.1440  -40.1120 C.3   169  ASP169      0.1410
     93  CG        43.6380   -6.2020  -39.1550 C.2   169  ASP169      0.3668
     94  OD1       43.6540   -6.4740  -37.9470 O.co2 169  ASP169     -0.2456
     95  OD2       43.1820   -5.1400  -39.6060 O.co2 169  ASP169     -0.2456
     96  N         43.0060   -3.8970  -42.1480 N.3   171  HIS171     -0.1241
     97  CA        43.9280   -2.7560  -42.2120 C.3   171  HIS171      0.1621
     98  C         45.3460   -3.1920  -42.6140 C.2   171  HIS171      0.2264
     99  O         45.7760   -4.3080  -42.3040 O.2   171  HIS171     -0.2867
    100  CB        43.9640   -2.0150  -40.8480 C.3   171  HIS171      0.0745
    101  CG        42.6160   -1.5280  -40.4060 C.ar  171  HIS171      0.0817
    102  ND1       41.8600   -2.2250  -39.4650 N.ar  171  HIS171     -0.2268
    103  CD2       41.9200   -0.4360  -40.8040 C.ar  171  HIS171      0.1154
    104  CE1       40.7290   -1.5430  -39.3310 C.ar  171  HIS171      0.1986
    105  NE2       40.7180   -0.4510  -40.1080 N.ar  171  HIS171     -0.2212
    106  N         42.2040    3.9270  -42.7850 N.3   198  PHE198     -0.1241
    107  CA        43.2980    3.7940  -41.8070 C.3   198  PHE198      0.1605
    108  C         44.2040    2.5880  -42.1680 C.2   198  PHE198      0.2264
    109  O         43.6500    1.5480  -42.5120 O.2   198  PHE198     -0.2867
    110  CB        42.7150    3.5810  -40.3970 C.3   198  PHE198      0.0534
    111  CG        43.7640    3.6170  -39.3070 C.ar  198  PHE198     -0.0203
    112  CD1       44.4230    2.4490  -38.9080 C.ar  198  PHE198     -0.0042
    113  CD2       44.1690    4.8290  -38.7460 C.ar  198  PHE198     -0.0042
    114  CE1       45.4440    2.4910  -37.9510 C.ar  198  PHE198     -0.0003
    115  CE2       45.1620    4.8650  -37.7520 C.ar  198  PHE198     -0.0003
    116  CZ        45.8100    3.6980  -37.3800 C.ar  198  PHE198     -0.0000
    117  N         38.6010   -8.1670  -38.2810 N.3   257  ASP257     -0.1239
    118  CA        37.8340   -7.0230  -38.7780 C.3   257  ASP257      0.1674
    119  C         37.6200   -7.0910  -40.2810 C.2   257  ASP257      0.2266
    120  O         36.9340   -6.2390  -40.8360 O.2   257  ASP257     -0.2867
    121  CB        38.4510   -5.7000  -38.3280 C.3   257  ASP257      0.1410
    122  CG        39.9520   -5.6000  -38.5300 C.2   257  ASP257      0.3668
    123  OD1       40.5530   -4.6510  -37.9940 O.co2 257  ASP257     -0.2456
    124  OD2       40.5180   -6.4590  -39.2530 O.co2 257  ASP257     -0.2456
    125  N         32.1370   -3.9030  -36.9380 N.3   263  ARG263     -0.1231
    126  CA        31.7790   -2.5350  -36.5290 C.3   263  ARG263      0.1694
    127  C         32.5720   -1.4780  -37.2900 C.2   263  ARG263      0.2591
    128  O         32.0360   -0.4170  -37.5910 O.2   263  ARG263     -0.2718
    129  CB        32.0260   -2.3220  -35.0200 C.3   263  ARG263      0.0321
    130  CG        30.8670   -2.6660  -34.0940 C.3   263  ARG263      0.0489
    131  CD        31.1230   -2.1830  -32.6510 C.3   263  ARG263      0.2205
    132  NE        31.3310   -0.7260  -32.5460 N.pl3 263  ARG263     -0.0865
    133  CZ        31.7710   -0.0910  -31.4590 C.cat 263  ARG263      0.5346
    134  NH1       32.0790   -0.7710  -30.3610 N.pl3 263  ARG263      0.1354
    135  NH2       31.9150    1.2270  -31.4650 N.pl3 263  ARG263      0.1354
    136  N         33.8610   -1.7410  -37.5570 N.am  264  LEU264     -0.1980
    137  CA        34.7390   -0.7760  -38.2310 C.3   264  LEU264      0.1596
    138  C         35.0770   -1.1360  -39.6730 C.2   264  LEU264      0.2287
    139  O         35.3520   -0.2390  -40.4610 O.2   264  LEU264     -0.2864
    140  CB        36.0610   -0.5930  -37.4330 C.3   264  LEU264      0.0297
    141  CG        36.0030   -0.0930  -35.9820 C.3   264  LEU264      0.0022
    142  CD1       37.3890    0.2700  -35.4960 C.3   264  LEU264      0.0001
    143  CD2       35.0670    1.0850  -35.7910 C.3   264  LEU264      0.0001
    144  N         42.7870   -6.8150  -35.1860 N.3   294  GLY294     -0.1225
    145  CA        41.5200   -6.0980  -35.0590 C.3   294  GLY294      0.1811
    146  C         40.3470   -7.0650  -35.0560 C.2   294  GLY294      0.2280
    147  O         40.5380   -8.2790  -35.0910 O.2   294  GLY294     -0.2866
    148  N         35.9680   -6.1010  -34.2450 N.3   296  TYR296     -0.1241
    149  CA        35.1270   -5.2230  -33.4340 C.3   296  TYR296      0.1605
    150  C         33.6700   -5.6270  -33.2180 C.2   296  TYR296      0.2264
    151  O         32.9940   -4.9550  -32.4500 O.2   296  TYR296     -0.2867
    152  CB        35.3250   -3.7550  -33.9150 C.3   296  TYR296      0.0534
    153  CG        36.8050   -3.4090  -33.9890 C.ar  296  TYR296     -0.0201
    154  CD1       37.4960   -3.4700  -35.2010 C.ar  296  TYR296     -0.0009
    155  CD2       37.5500   -3.2110  -32.8250 C.ar  296  TYR296     -0.0009
    156  CE1       38.8780   -3.2860  -35.2540 C.ar  296  TYR296      0.0417
    157  CE2       38.9200   -2.9890  -32.8700 C.ar  296  TYR296      0.0417
    158  CZ        39.5790   -3.0190  -34.0880 C.ar  296  TYR296      0.1957
    159  OH        40.9320   -2.8230  -34.1000 O.3   296  TYR296     -0.2866
@<TRIPOS>BOND
     1    91    90    2
     2   106   107    1
     3    98    99    2
     4    98    97    1
     5   109   108    2
     6    97    96    1
     7    97   100    1
     8   108   107    1
     9    90    89    1
    10   107   110    1
    11    88    89    1
    12    89    92    1
    13   100   101    1
    14   120   119    2
    15   103   101   ar
    16   103   105   ar
    17   139   138    2
    18   101   102   ar
    19   110   111    1
    20   119   118    1
    21    92    93    1
    22   105   104   ar
    23   138   137    1
    24    95    93   ar
    25   102   104   ar
    26   111   112   ar
    27   111   113   ar
    28   124   122   ar
    29    55    53   ar
    30    55    56   ar
    31    53    52   ar
    32    93    94   ar
    33   112   114   ar
    34   118   121    1
    35   118   117    1
    36   113   115   ar
    37    65    63   ar
    38    65    66   ar
    39   122   121    1
    40   122   123   ar
    41   137   136    1
    42   137   140    1
    43    63    62   ar
    44    56    54   ar
    45   114   116   ar
    46    52    51    1
    47    52    54   ar
    48    66    64   ar
    49   115   116   ar
    50   128   127    2
    51   136   127   am
    52    51    48    1
    53   140   141    1
    54   127   126    1
    55    50    49    2
    56   125   126    1
    57    62    64   ar
    58    62    61    1
    59   126   129    1
    60    49    48    1
    61    49    57   am
    62    48    47    1
    63    58    61    1
    64    58    57    1
    65    58    59    1
    66   141   143    1
    67   141   142    1
    68    60    59    2
    69   156   154   ar
    70   156   158   ar
    71   154   153   ar
    72   144   145    1
    73   147   146    2
    74   145   146    1
    75   129   130    1
    76    68    67    1
    77    68    69    1
    78   148   149    1
    79    46    44   ar
    80   159   158    1
    81   130   131    1
    82   158   157   ar
    83   153   152    1
    84   153   155   ar
    85   152   149    1
    86    70    69    2
    87   149   150    1
    88   150   151    2
    89    69    71   am
    90    87    86    1
    91    44    45   ar
    92    44    43    1
    93    80    81   ar
    94    80    78   ar
    95   157   155   ar
    96    81    79   ar
    97   131   132    1
    98   132   133    2
    99    78    76   ar
   100    79    77   ar
   101    86    83    1
   102    71    72    1
   103    43    40    1
   104    20    19    1
   105    20    21    1
   106    76    77   ar
   107    76    75    1
   108    19    16    1
   109   135   133    1
   110   133   134    1
   111    75    72    1
   112    82    83    1
   113    82    73   am
   114    29    28    1
   115    83    84    1
   116    72    73    1
   117    40    39    1
   118    40    41    1
   119    85    84    2
   120    21    15    1
   121    38    36   ar
   122    73    74    2
   123    16    17    1
   124    16    15    1
   125    39    32   am
   126    18    17    2
   127    17    22   am
   128    28    27    1
   129    34    35    1
   130    34    31    1
   131    41    42    2
   132    36    35    1
   133    36    37   ar
   134    15     7   am
   135    22    23    1
   136    26    23    1
   137    26    27    1
   138    13    14   ar
   139    13    11   ar
   140    23    24    1
   141    32    31    1
   142    32    33    2
   143    14    12   ar
   144     4     3    2
   145    31    30    1
   146    11    10   ar
   147     7     6    1
   148     7     8    2
   149    12    10   ar
   150    24    25    2
   151    10     9    1
   152     6     5    1
   153     6     9    1
   154     3     5   am
   155     3     2    1
   156     2     1    1
