@<TRIPOS>MOLECULE
tmp/4ly0B00.pdb
 147 144 0 0 0
SMALL
GASTEIGER

@<TRIPOS>ATOM
      1  N         -4.6280   -9.8910   56.1780 N.3    77  SER77      -0.1217
      2  CA        -3.2980  -10.4990   56.1970 C.3    77  SER77       0.1889
      3  C         -2.3570   -9.2790   56.0120 C.2    77  SER77       0.2288
      4  O         -2.5670   -8.4810   55.0820 O.2    77  SER77      -0.2866
      5  CB        -3.0790  -11.4380   55.0190 C.3    77  SER77       0.2089
      6  OG        -1.7240  -11.5630   54.6290 O.3    77  SER77      -0.2183
      7  N          1.4280   -9.0420   56.1230 N.3    79  GLU79      -0.1231
      8  CA         2.6310   -9.8400   56.1100 C.3    79  GLU79       0.1699
      9  C          2.4840  -11.2410   56.6650 C.2    79  GLU79       0.2592
     10  O          3.3880  -11.8540   57.2160 O.2    79  GLU79      -0.2718
     11  CB         3.8490   -9.0800   56.7440 C.3    79  GLU79       0.0402
     12  CG         4.2460   -7.8730   55.9140 C.3    79  GLU79       0.1161
     13  CD         4.4790   -8.1760   54.4320 C.2    79  GLU79       0.3649
     14  OE1        5.5330   -8.7440   54.0830 O.co2  79  GLU79      -0.2457
     15  OE2        3.5670   -7.8070   53.6450 O.co2  79  GLU79      -0.2457
     16  N          1.3080  -11.8180   56.4140 N.am   80  PHE80      -0.1962
     17  CA         1.0710  -13.1940   56.8000 C.3    80  PHE80       0.1771
     18  C          1.8620  -14.1980   55.9370 C.2    80  PHE80       0.2620
     19  O          2.1550  -13.9210   54.7670 O.2    80  PHE80      -0.2715
     20  CB        -0.4480  -13.3410   56.6890 C.3    80  PHE80       0.0574
     21  CG        -1.0230  -14.5980   57.3000 C.ar   80  PHE80      -0.0200
     22  CD1       -1.9430  -15.3670   56.5770 C.ar   80  PHE80      -0.0042
     23  CD2       -0.6780  -14.9930   58.5710 C.ar   80  PHE80      -0.0042
     24  CE1       -2.5300  -16.4880   57.1570 C.ar   80  PHE80      -0.0003
     25  CE2       -1.2490  -16.1050   59.1470 C.ar   80  PHE80      -0.0003
     26  CZ        -2.1860  -16.8620   58.4440 C.ar   80  PHE80      -0.0000
     27  N          2.1860  -15.3460   56.5490 N.am   81  ASP81      -0.1957
     28  CA         3.0670  -16.3480   56.0210 C.3    81  ASP81       0.1840
     29  C          2.3090  -17.5620   55.5040 C.2    81  ASP81       0.2622
     30  O          2.9310  -18.5510   55.2140 O.2    81  ASP81      -0.2715
     31  CB         4.1010  -16.7820   57.0760 C.3    81  ASP81       0.1450
     32  CG         3.4870  -17.4430   58.2990 C.2    81  ASP81       0.3671
     33  OD1        4.2680  -17.8740   59.1710 O.co2  81  ASP81      -0.2456
     34  OD2        2.2460  -17.4310   58.4540 O.co2  81  ASP81      -0.2456
     35  N          0.9860  -17.4930   55.3720 N.am   82  GLN82      -0.1963
     36  CA         0.2890  -18.6580   54.8380 C.3    82  GLN82       0.1733
     37  C         -0.5490  -18.3210   53.6280 C.2    82  GLN82       0.2616
     38  O         -1.1130  -17.2570   53.5620 O.2    82  GLN82      -0.2715
     39  CB        -0.5870  -19.2870   55.9120 C.3    82  GLN82       0.0408
     40  CG         0.0760  -19.7190   57.2090 C.3    82  GLN82       0.0908
     41  CD        -0.8530  -20.5780   58.0710 C.2    82  GLN82       0.2608
     42  OE1       -1.3490  -21.6190   57.6290 O.2    82  GLN82      -0.2717
     43  NE2       -1.1020  -20.1430   59.2840 N.am   82  GLN82      -0.0878
     44  N         -0.6430  -19.2190   52.6540 N.am   83  ILE83      -0.1963
     45  CA        -1.5440  -19.0540   51.5160 C.3    83  ILE83       0.1727
     46  C         -2.9690  -19.5020   51.9160 C.2    83  ILE83       0.2616
     47  O         -3.1230  -20.5470   52.5460 O.2    83  ILE83      -0.2715
     48  CB        -1.0660  -19.8960   50.3220 C.3    83  ILE83       0.0290
     49  CG1       -1.8780  -19.5040   49.0900 C.3    83  ILE83       0.0022
     50  CG2       -1.1940  -21.3980   50.5760 C.3    83  ILE83       0.0023
     51  CD1       -1.0540  -19.1950   47.8790 C.3    83  ILE83       0.0001
     52  N         -3.9590  -18.6710   51.6390 N.am   84  ILE84      -0.1963
     53  CA        -5.3900  -18.8820   51.9910 C.3    84  ILE84       0.1727
     54  C         -5.9750  -19.6640   50.8040 C.2    84  ILE84       0.2619
     55  O         -5.5270  -19.5400   49.6620 O.2    84  ILE84      -0.2715
     56  CB        -6.0870  -17.4900   52.0750 C.3    84  ILE84       0.0290
     57  CG1       -5.4290  -16.6890   53.2060 C.3    84  ILE84       0.0022
     58  CG2       -7.5970  -17.4620   52.3010 C.3    84  ILE84       0.0023
     59  CD1       -5.4020  -17.3960   54.5400 C.3    84  ILE84       0.0001
     60  N         -6.9480  -20.5200   51.1310 N.am   85  LYS85      -0.1932
     61  CA        -7.8480  -21.1460   50.1300 C.3    85  LYS85       0.1812
     62  C         -9.2340  -20.6450   50.4940 C.2    85  LYS85       0.2332
     63  O         -9.7090  -20.8830   51.6240 O.2    85  LYS85      -0.2860
     64  CB        -7.7460  -22.6740   50.2280 C.2    85  LYS85      -0.0016
     65  CG        -6.3970  -23.2620   49.8670 C.2    85  LYS85      -0.0270
     66  CD        -6.2360  -24.7460   50.1340 C.3    85  LYS85       0.0462
     67  CE        -4.8130  -25.2330   49.9230 C.3    85  LYS85       0.1140
     68  NZ        -3.8880  -24.6480   50.9390 N.3    85  LYS85      -0.1310
     69  N         -5.7220   -8.4140   51.9060 N.3    96  ASN96      -0.1240
     70  CA        -4.2700   -8.4920   52.0560 C.3    96  ASN96       0.1653
     71  C         -3.7420   -7.1280   51.6770 C.2    96  ASN96       0.2266
     72  O         -4.2460   -6.4830   50.7730 O.2    96  ASN96      -0.2867
     73  CB        -3.6450   -9.4980   51.0720 C.3    96  ASN96       0.1155
     74  CG        -2.1080   -9.6030   51.1940 C.2    96  ASN96       0.2627
     75  OD1       -1.4200   -9.4190   50.1760 O.2    96  ASN96      -0.2716
     76  ND2       -1.5920   -9.9090   52.3510 N.am   96  ASN96      -0.0877
     77  N         -0.2880   -6.0750   50.0680 N.3    98  HIS98      -0.1241
     78  CA         0.9630   -6.6070   49.4350 C.3    98  HIS98       0.1621
     79  C          1.8950   -5.4130   49.2110 C.2    98  HIS98       0.2264
     80  O          1.4740   -4.3440   48.7420 O.2    98  HIS98      -0.2867
     81  CB         0.6520   -7.3100   48.1170 C.3    98  HIS98       0.0745
     82  CG         1.8540   -7.8530   47.4090 C.ar   98  HIS98       0.0817
     83  ND1        2.6380   -8.8690   47.8800 N.ar   98  HIS98      -0.2268
     84  CD2        2.4860   -7.3650   46.3170 C.ar   98  HIS98       0.1154
     85  CE1        3.6440   -9.0810   47.0450 C.ar   98  HIS98       0.1986
     86  NE2        3.5760   -8.1630   46.0890 N.ar   98  HIS98      -0.2212
     87  N         -5.7810   -5.3580   48.5320 N.3   127  HIS127     -0.1241
     88  CA        -6.5480   -6.1550   47.6110 C.3   127  HIS127      0.1621
     89  C         -7.3850   -7.2130   48.3440 C.2   127  HIS127      0.2264
     90  O         -7.0700   -7.7080   49.4280 O.2   127  HIS127     -0.2867
     91  CB        -5.6910   -6.7500   46.5000 C.3   127  HIS127      0.0745
     92  CG        -4.6410   -7.7230   46.9780 C.ar  127  HIS127      0.0817
     93  ND1       -4.8360   -9.0800   46.9680 N.ar  127  HIS127     -0.2268
     94  CD2       -3.4020   -7.5500   47.4940 C.ar  127  HIS127      0.1154
     95  CE1       -3.7850   -9.7100   47.4480 C.ar  127  HIS127      0.1986
     96  NE2       -2.8870   -8.7940   47.7670 N.ar  127  HIS127     -0.2212
     97  N         -8.3070  -11.0330   48.7160 N.3   129  ILE129     -0.1231
     98  CA        -7.6040  -12.2660   48.5590 C.3   129  ILE129      0.1692
     99  C         -8.4430  -13.2230   47.6750 C.2   129  ILE129      0.2592
    100  O         -9.6040  -13.4410   47.9950 O.2   129  ILE129     -0.2718
    101  CB        -7.3960  -12.9470   49.9010 C.3   129  ILE129      0.0266
    102  CG1       -6.3700  -12.1650   50.7360 C.3   129  ILE129      0.0019
    103  CG2       -6.9670  -14.4200   49.8070 C.3   129  ILE129      0.0020
    104  CD1       -5.9960  -12.7270   52.0860 C.3   129  ILE129      0.0001
    105  N         -7.8990  -13.6780   46.5520 N.am  130  ASP130     -0.1960
    106  CA        -8.3850  -14.8790   45.8380 C.3   130  ASP130      0.1840
    107  C         -7.4130  -16.0360   45.9550 C.2   130  ASP130      0.2622
    108  O         -6.4510  -15.9320   46.7130 O.2   130  ASP130     -0.2715
    109  CB        -8.8210  -14.5270   44.4110 C.3   130  ASP130      0.1450
    110  CG        -7.6350  -14.1420   43.4900 C.2   130  ASP130      0.3671
    111  OD1       -8.0180  -13.5160   42.4830 O.co2 130  ASP130     -0.2456
    112  OD2       -6.5010  -14.6140   43.7470 O.co2 130  ASP130     -0.2456
    113  N         -7.5870  -17.1730   45.2800 N.am  131  ASN131     -0.1958
    114  CA        -6.7600  -18.3270   45.5170 C.3   131  ASN131      0.1819
    115  C         -5.3800  -18.2140   44.8810 C.2   131  ASN131      0.2622
    116  O         -4.5210  -19.0190   45.1700 O.2   131  ASN131     -0.2715
    117  CB        -7.4340  -19.5930   45.0060 C.3   131  ASN131      0.1195
    118  CG        -8.4900  -20.1040   45.9670 C.2   131  ASN131      0.2630
    119  OD1       -8.5150  -19.7380   47.1390 O.2   131  ASN131     -0.2716
    120  ND2       -9.4280  -20.9110   45.4430 N.am  131  ASN131     -0.0877
    121  N         -5.1590  -17.1560   44.1040 N.am  132  GLY132     -0.1940
    122  CA        -3.8200  -16.9560   43.5800 C.3   132  GLY132      0.2014
    123  C         -2.9930  -16.0530   44.4940 C.2   132  GLY132      0.2639
    124  O         -3.5300  -15.3340   45.3390 O.2   132  GLY132     -0.2714
    125  N         -1.7000  -16.0210   44.1740 N.am  133  ILE133     -0.1963
    126  CA        -0.8110  -15.2070   45.0040 C.3   133  ILE133      0.1727
    127  C         -0.7960  -13.7790   44.5250 C.2   133  ILE133      0.2616
    128  O         -0.2900  -13.4860   43.4540 O.2   133  ILE133     -0.2715
    129  CB         0.5860  -15.8240   44.9760 C.3   133  ILE133      0.0290
    130  CG1        0.6590  -17.2520   45.5080 C.3   133  ILE133      0.0022
    131  CG2        1.5360  -14.9310   45.7800 C.3   133  ILE133      0.0023
    132  CD1        1.9320  -18.0480   45.3890 C.3   133  ILE133      0.0001
    133  N         -1.3550  -12.8580   45.3060 N.am  134  ASP134     -0.1957
    134  CA        -1.3090  -11.4270   45.1100 C.3   134  ASP134      0.1840
    135  C         -2.0690  -10.9920   43.8560 C.2   134  ASP134      0.2622
    136  O         -1.7910   -9.9890   43.2080 O.2   134  ASP134     -0.2715
    137  CB         0.1270  -10.8970   45.1520 C.3   134  ASP134      0.1450
    138  CG         0.8390  -11.2320   46.4380 C.2   134  ASP134      0.3671
    139  OD1        0.2100  -11.2720   47.5260 O.co2 134  ASP134     -0.2456
    140  OD2        2.0510  -11.5300   46.2710 O.co2 134  ASP134     -0.2456
    141  N         -3.0530  -11.8300   43.4770 N.am  135  THR135     -0.1951
    142  CA        -3.7610  -11.7150   42.2230 C.3   135  THR135      0.1897
    143  C         -5.1520  -11.1160   42.3350 C.2   135  THR135      0.2313
    144  O         -5.6870  -10.6620   41.3160 O.2   135  THR135     -0.2863
    145  CB        -3.9450  -13.0860   41.5580 C.3   135  THR135      0.1794
    146  OG1       -4.3220  -13.9970   42.5880 O.3   135  THR135     -0.2208
    147  CG2       -2.6640  -13.6450   40.8970 C.3   135  THR135      0.0378
@<TRIPOS>BOND
     1   147   145    1
     2   144   143    2
     3   145   142    1
     4   145   146    1
     5   142   143    1
     6   142   141    1
     7   111   110   ar
     8   136   135    2
     9   128   127    2
    10   141   135   am
    11   110   112   ar
    12   110   109    1
    13   122   121    1
    14   122   123    1
    15   135   134    1
    16   121   115   am
    17   125   123   am
    18   125   126    1
    19   109   106    1
    20   123   124    2
    21   127   126    1
    22   127   133   am
    23   115   116    2
    24   115   114    1
    25   129   126    1
    26   129   130    1
    27   129   131    1
    28   117   114    1
    29   117   118    1
    30   134   137    1
    31   134   133    1
    32   137   138    1
    33   113   114    1
    34   113   107   am
    35   132   130    1
    36   120   118   am
    37   106   107    1
    38   106   105    1
    39   107   108    2
    40   118   119    2
    41    86    84   ar
    42    86    85   ar
    43   140   138   ar
    44    84    82   ar
    45   138   139   ar
    46    91    92    1
    47    91    88    1
    48   105    99   am
    49    93    92   ar
    50    93    95   ar
    51    92    94   ar
    52    85    83   ar
    53    82    83   ar
    54    82    81    1
    55    95    96   ar
    56    94    96   ar
    57    88    89    1
    58    88    87    1
    59    99   100    2
    60    99    98    1
    61    51    49    1
    62    81    78    1
    63    89    90    2
    64    98    97    1
    65    98   101    1
    66    80    79    2
    67    49    48    1
    68    79    78    1
    69    78    77    1
    70    55    54    2
    71   103   101    1
    72    65    66    1
    73    65    64    2
    74   101   102    1
    75    67    66    1
    76    67    68    1
    77    61    64    1
    78    61    62    1
    79    61    60    1
    80    75    74    2
    81    48    50    1
    82    48    45    1
    83    62    63    2
    84   102   104    1
    85    72    71    2
    86    54    60   am
    87    54    53    1
    88    73    74    1
    89    73    70    1
    90    74    76   am
    91    45    46    1
    92    45    44    1
    93    52    46   am
    94    52    53    1
    95    71    70    1
    96    69    70    1
    97    46    47    2
    98    53    56    1
    99    56    58    1
   100    56    57    1
   101    44    37   am
   102    57    59    1
   103    38    37    2
   104    37    36    1
   105    15    13   ar
   106    14    13   ar
   107    13    12    1
   108     6     5    1
   109    19    18    2
   110    36    35    1
   111    36    39    1
   112     5     2    1
   113     4     3    2
   114    30    29    2
   115    35    29   am
   116    29    28    1
   117    39    40    1
   118    12    11    1
   119    18    27   am
   120    18    17    1
   121     3     2    1
   122    28    27    1
   123    28    31    1
   124     8     7    1
   125     8     9    1
   126     8    11    1
   127     1     2    1
   128    16     9   am
   129    16    17    1
   130    22    24   ar
   131    22    21   ar
   132     9    10    2
   133    20    17    1
   134    20    21    1
   135    31    32    1
   136    24    26   ar
   137    40    41    1
   138    21    23   ar
   139    42    41    2
   140    41    43   am
   141    32    34   ar
   142    32    33   ar
   143    26    25   ar
   144    23    25   ar
