@<TRIPOS>MOLECULE
tmp/4ly0B01.pdb
 202 199 0 0 0
SMALL
GASTEIGER

@<TRIPOS>ATOM
      1  N          2.5430  -10.1120   60.7590 N.3    11  LYS11      -0.1231
      2  CA         3.7320   -9.7800   61.5490 C.3    11  LYS11       0.1693
      3  C          4.1730   -8.3380   61.3350 C.2    11  LYS11       0.2592
      4  O          3.6620   -7.5790   60.4860 O.2    11  LYS11      -0.2718
      5  CB         4.8970  -10.7250   61.2850 C.3    11  LYS11       0.0285
      6  CG         5.4790  -10.5110   59.8990 C.3    11  LYS11       0.0035
      7  CD         6.7660  -11.2490   59.6310 C.3    11  LYS11       0.0206
      8  CE         7.2290  -11.1770   58.1860 C.3    11  LYS11       0.1093
      9  NZ         8.4820  -11.9760   58.1190 N.3    11  LYS11      -0.1314
     10  N          5.0570   -7.9650   62.2620 N.am   12  ASN12      -0.1974
     11  CA         5.9030   -6.7710   62.1550 C.3    12  ASN12       0.1688
     12  C          5.1130   -5.5050   62.4400 C.2    12  ASN12       0.2292
     13  O          3.9440   -5.5600   62.8950 O.2    12  ASN12      -0.2864
     14  CB         6.6700   -6.7820   60.8300 C.3    12  ASN12       0.1181
     15  CG         7.8330   -7.7710   60.7780 C.2    12  ASN12       0.2629
     16  OD1        8.1500   -8.5330   61.7090 O.2    12  ASN12      -0.2716
     17  ND2        8.4860   -7.8420   59.6070 N.am   12  ASN12      -0.0877
     18  N          2.6190  -15.1150   62.7370 N.3    37  ASN37      -0.1240
     19  CA         3.4090  -15.9520   61.8830 C.3    37  ASN37       0.1653
     20  C          4.1490  -16.9810   62.6940 C.2    37  ASN37       0.2266
     21  O          4.4150  -16.8330   63.9120 O.2    37  ASN37      -0.2867
     22  CB         4.3640  -15.0820   61.0670 C.3    37  ASN37       0.1155
     23  CG         3.6710  -14.4220   59.8720 C.2    37  ASN37       0.2627
     24  OD1        2.4350  -14.2980   59.7640 O.2    37  ASN37      -0.2716
     25  ND2        4.5120  -13.8450   59.0210 N.am   37  ASN37      -0.0877
     26  N         14.0400   -5.5500   65.8920 N.3    46  TRP46      -0.1241
     27  CA        13.9810   -4.3990   65.0480 C.3    46  TRP46       0.1605
     28  C         12.5730   -4.2040   64.4820 C.2    46  TRP46       0.2264
     29  O         12.3320   -3.1730   63.8740 O.2    46  TRP46      -0.2867
     30  CB        15.0030   -4.5120   63.9130 C.3    46  TRP46       0.0550
     31  CG        14.8280   -5.7350   63.0480 C.ar   46  TRP46       0.0003
     32  CD1       15.2030   -6.9990   63.3100 C.ar   46  TRP46       0.0946
     33  CD2       14.2440   -5.7560   61.7460 C.ar   46  TRP46       0.0152
     34  NE1       14.8610   -7.8370   62.2640 N.ar   46  TRP46      -0.2442
     35  CE2       14.2510   -7.0890   61.2900 C.ar   46  TRP46       0.0810
     36  CE3       13.6830   -4.8000   60.9330 C.ar   46  TRP46       0.0012
     37  CZ2       13.7320   -7.4550   60.0420 C.ar   46  TRP46       0.0191
     38  CZ3       13.2130   -5.1630   59.6610 C.ar   46  TRP46       0.0001
     39  CH2       13.1610   -6.4890   59.2720 C.ar   46  TRP46       0.0015
     40  N          1.4280   -9.0420   56.1230 N.3    79  GLU79      -0.1231
     41  CA         2.6310   -9.8400   56.1100 C.3    79  GLU79       0.1699
     42  C          2.4840  -11.2410   56.6650 C.2    79  GLU79       0.2592
     43  O          3.3880  -11.8540   57.2160 O.2    79  GLU79      -0.2718
     44  CB         3.8490   -9.0800   56.7440 C.3    79  GLU79       0.0402
     45  CG         4.2460   -7.8730   55.9140 C.3    79  GLU79       0.1161
     46  CD         4.4790   -8.1760   54.4320 C.2    79  GLU79       0.3649
     47  OE1        5.5330   -8.7440   54.0830 O.co2  79  GLU79      -0.2457
     48  OE2        3.5670   -7.8070   53.6450 O.co2  79  GLU79      -0.2457
     49  N          1.3080  -11.8180   56.4140 N.am   80  PHE80      -0.1962
     50  CA         1.0710  -13.1940   56.8000 C.3    80  PHE80       0.1771
     51  C          1.8620  -14.1980   55.9370 C.2    80  PHE80       0.2619
     52  O          2.1550  -13.9210   54.7670 O.2    80  PHE80      -0.2715
     53  CB        -0.4480  -13.3410   56.6890 C.3    80  PHE80       0.0574
     54  CG        -1.0230  -14.5980   57.3000 C.ar   80  PHE80      -0.0200
     55  CD1       -1.9430  -15.3670   56.5770 C.ar   80  PHE80      -0.0042
     56  CD2       -0.6780  -14.9930   58.5710 C.ar   80  PHE80      -0.0042
     57  CE1       -2.5300  -16.4880   57.1570 C.ar   80  PHE80      -0.0003
     58  CE2       -1.2490  -16.1050   59.1470 C.ar   80  PHE80      -0.0003
     59  CZ        -2.1860  -16.8620   58.4440 C.ar   80  PHE80      -0.0000
     60  N          2.1860  -15.3460   56.5490 N.am   81  ASP81      -0.1971
     61  CA         3.0670  -16.3480   56.0210 C.3    81  ASP81       0.1709
     62  C          2.3090  -17.5620   55.5040 C.2    81  ASP81       0.2293
     63  O          2.9310  -18.5510   55.2140 O.2    81  ASP81      -0.2864
     64  CB         4.1010  -16.7820   57.0760 C.3    81  ASP81       0.1436
     65  CG         3.4870  -17.4430   58.2990 C.2    81  ASP81       0.3671
     66  OD1        4.2680  -17.8740   59.1710 O.co2  81  ASP81      -0.2456
     67  OD2        2.2460  -17.4310   58.4540 O.co2  81  ASP81      -0.2456
     68  N         -5.7220   -8.4140   51.9060 N.3    96  ASN96      -0.1240
     69  CA        -4.2700   -8.4920   52.0560 C.3    96  ASN96       0.1653
     70  C         -3.7420   -7.1280   51.6770 C.2    96  ASN96       0.2266
     71  O         -4.2460   -6.4830   50.7730 O.2    96  ASN96      -0.2867
     72  CB        -3.6450   -9.4980   51.0720 C.3    96  ASN96       0.1155
     73  CG        -2.1080   -9.6030   51.1940 C.2    96  ASN96       0.2627
     74  OD1       -1.4200   -9.4190   50.1760 O.2    96  ASN96      -0.2716
     75  ND2       -1.5920   -9.9090   52.3510 N.am   96  ASN96      -0.0877
     76  N         -0.2880   -6.0750   50.0680 N.3    98  HIS98      -0.1226
     77  CA         0.9630   -6.6070   49.4350 C.3    98  HIS98       0.1752
     78  C          1.8950   -5.4130   49.2110 C.2    98  HIS98       0.2596
     79  O          1.4740   -4.3440   48.7420 O.2    98  HIS98      -0.2718
     80  CB         0.6520   -7.3100   48.1170 C.3    98  HIS98       0.0759
     81  CG         1.8540   -7.8530   47.4090 C.ar   98  HIS98       0.0818
     82  ND1        2.6380   -8.8690   47.8800 N.ar   98  HIS98      -0.2268
     83  CD2        2.4860   -7.3650   46.3170 C.ar   98  HIS98       0.1154
     84  CE1        3.6440   -9.0810   47.0450 C.ar   98  HIS98       0.1986
     85  NE2        3.5760   -8.1630   46.0890 N.ar   98  HIS98      -0.2212
     86  N          3.1610   -5.6690   49.4890 N.am   99  PHE99      -0.1976
     87  CA         4.2280   -4.6270   49.4160 C.3    99  PHE99       0.1639
     88  C          4.7540   -4.4650   47.9810 C.2    99  PHE99       0.2290
     89  O          5.9280   -4.7350   47.6660 O.2    99  PHE99      -0.2864
     90  CB         5.3080   -5.0730   50.3760 C.3    99  PHE99       0.0560
     91  CG         5.0150   -4.8260   51.8300 C.ar   99  PHE99      -0.0200
     92  CD1        3.8310   -4.1880   52.2230 C.ar   99  PHE99      -0.0042
     93  CD2        5.9580   -5.1500   52.7970 C.ar   99  PHE99      -0.0042
     94  CE1        3.5410   -3.9640   53.5530 C.ar   99  PHE99      -0.0003
     95  CE2        5.6770   -4.9050   54.1270 C.ar   99  PHE99      -0.0003
     96  CZ         4.4710   -4.3190   54.4950 C.ar   99  PHE99      -0.0000
     97  N          4.4630  -11.8400   44.7150 N.3   107  GLY107     -0.1210
     98  CA         5.3780  -12.8200   45.3200 C.3   107  GLY107      0.1956
     99  C          6.3440  -12.1780   46.3290 C.2   107  GLY107      0.2612
    100  O          5.9710  -11.2250   46.9860 O.2   107  GLY107     -0.2717
    101  N          7.5380  -12.7380   46.4380 N.am  108  VAL108     -0.1965
    102  CA         8.4090  -12.5250   47.5830 C.3   108  VAL108      0.1727
    103  C          9.4420  -11.3950   47.3920 C.2   108  VAL108      0.2616
    104  O          9.7490  -11.0180   46.2780 O.2   108  VAL108     -0.2715
    105  CB         9.1840  -13.8100   47.9010 C.3   108  VAL108      0.0290
    106  CG1        8.2080  -14.9610   48.1040 C.3   108  VAL108      0.0023
    107  CG2       10.1180  -14.2250   46.8090 C.3   108  VAL108      0.0023
    108  N         10.0420  -11.0470   48.5260 N.am  109  PHE109     -0.1960
    109  CA        11.2700  -10.2310   48.5390 C.3   109  PHE109      0.1771
    110  C         11.0370   -8.9480   47.7370 C.2   109  PHE109      0.2620
    111  O         11.8990   -8.5370   46.9330 O.2   109  PHE109     -0.2715
    112  CB        12.4330  -11.0210   47.9470 C.3   109  PHE109      0.0574
    113  CG        12.9840  -12.1350   48.8090 C.ar  109  PHE109     -0.0200
    114  CD1       13.7940  -13.1000   48.2420 C.ar  109  PHE109     -0.0042
    115  CD2       12.6260  -12.2940   50.1520 C.ar  109  PHE109     -0.0042
    116  CE1       14.3110  -14.1290   49.0250 C.ar  109  PHE109     -0.0003
    117  CE2       13.1670  -13.3130   50.9420 C.ar  109  PHE109     -0.0003
    118  CZ        13.9910  -14.2460   50.3670 C.ar  109  PHE109     -0.0000
    119  N          9.8980   -8.2740   47.9130 N.am  110  THR110     -0.1937
    120  CA         9.6200   -7.1220   47.1150 C.3   110  THR110      0.2028
    121  C         10.3290   -5.8220   47.5610 C.2   110  THR110      0.2643
    122  O         10.1710   -4.8160   46.9140 O.2   110  THR110     -0.2714
    123  CB         8.1050   -6.8000   47.2030 C.3   110  THR110      0.1808
    124  OG1        7.7300   -6.5600   48.5420 O.3   110  THR110     -0.2208
    125  CG2        7.2730   -7.9400   46.6610 C.3   110  THR110      0.0379
    126  N         11.1560   -5.9340   48.5870 N.am  111  SER111     -0.1935
    127  CA        12.1270   -4.8850   48.9290 C.3   111  SER111      0.2055
    128  C         13.3970   -5.0050   48.0820 C.2   111  SER111      0.2642
    129  O         14.2060   -4.0620   48.0370 O.2   111  SER111     -0.2714
    130  CB        12.4550   -4.9190   50.4050 C.3   111  SER111      0.2130
    131  OG        11.3340   -4.6450   51.2430 O.3   111  SER111     -0.2179
    132  N         13.5810   -6.1620   47.4510 N.am  112  ILE112     -0.1977
    133  CA        14.7320   -6.4880   46.6020 C.3   112  ILE112      0.1596
    134  C         14.3520   -6.3760   45.1410 C.2   112  ILE112      0.2287
    135  O         15.0190   -5.7510   44.3090 O.2   112  ILE112     -0.2864
    136  CB        15.2930   -7.8690   46.9180 C.3   112  ILE112      0.0276
    137  CG1       15.6180   -7.9850   48.4140 C.3   112  ILE112      0.0022
    138  CG2       16.4010   -8.2390   45.9120 C.3   112  ILE112      0.0022
    139  CD1       16.3470   -9.2570   48.7670 C.3   112  ILE112      0.0001
    140  N         11.8970   -1.4060   52.5420 N.3   156  TYR156     -0.1241
    141  CA        11.0300   -2.1800   53.4500 C.3   156  TYR156      0.1605
    142  C         10.3600   -1.3170   54.5010 C.2   156  TYR156      0.2264
    143  O          9.1460   -1.3570   54.7600 O.2   156  TYR156     -0.2867
    144  CB        11.8290   -3.3120   54.0750 C.3   156  TYR156      0.0534
    145  CG        10.9890   -4.2880   54.8660 C.ar  156  TYR156     -0.0201
    146  CD1       10.1220   -5.1310   54.1950 C.ar  156  TYR156     -0.0009
    147  CD2       10.9060   -4.2180   56.2180 C.ar  156  TYR156     -0.0009
    148  CE1        9.3220   -5.9790   54.9340 C.ar  156  TYR156      0.0417
    149  CE2       10.1160   -5.0560   56.9990 C.ar  156  TYR156      0.0417
    150  CZ         9.3220   -5.9850   56.3210 C.ar  156  TYR156      0.1957
    151  OH         8.4830   -6.8310   57.0620 O.3   156  TYR156     -0.2866
    152  N         11.0280  -17.4880   45.8510 N.3   194  ARG194     -0.1245
    153  CA        12.3530  -17.5360   46.4910 C.3   194  ARG194      0.1563
    154  C         13.4320  -18.1230   45.6030 C.2   194  ARG194      0.2260
    155  O         14.5640  -17.6980   45.6140 O.2   194  ARG194     -0.2867
    156  CB        12.3290  -18.1750   47.8960 C.3   194  ARG194      0.0307
    157  CG        12.1850  -17.1160   49.0030 C.3   194  ARG194      0.0489
    158  CD        12.2860  -17.5660   50.4630 C.3   194  ARG194      0.2205
    159  NE        11.6880  -16.6070   51.4160 N.pl3 194  ARG194     -0.0865
    160  CZ        12.1290  -16.2950   52.6460 C.cat 194  ARG194      0.5346
    161  NH1       11.4670  -15.3970   53.3960 N.pl3 194  ARG194      0.1354
    162  NH2       13.2250  -16.8600   53.1520 N.pl3 194  ARG194      0.1354
    163  N         20.3610  -14.7060   47.3670 N.3   199  LEU199     -0.1245
    164  CA        20.6830  -13.6610   48.3380 C.3   199  LEU199      0.1561
    165  C         22.1790  -13.4570   48.4930 C.2   199  LEU199      0.2260
    166  O         22.5780  -12.5380   49.1890 O.2   199  LEU199     -0.2867
    167  CB        20.1020  -14.0350   49.6960 C.3   199  LEU199      0.0270
    168  CG        18.5830  -14.0360   49.6930 C.3   199  LEU199      0.0019
    169  CD1       17.9620  -14.7480   50.8880 C.3   199  LEU199      0.0001
    170  CD2       18.1320  -12.5800   49.5860 C.3   199  LEU199      0.0001
    171  N         20.5000   -5.1490   53.5010 N.3   221  PHE221     -0.1241
    172  CA        19.5030   -5.2550   54.5660 C.3   221  PHE221      0.1605
    173  C         20.1120   -5.9890   55.7570 C.2   221  PHE221      0.2264
    174  O         20.0840   -7.2160   55.8590 O.2   221  PHE221     -0.2867
    175  CB        18.2970   -5.9970   54.0010 C.3   221  PHE221      0.0534
    176  CG        16.9940   -5.7510   54.7250 C.ar  221  PHE221     -0.0203
    177  CD1       15.8170   -5.6680   53.9880 C.ar  221  PHE221     -0.0042
    178  CD2       16.9040   -5.6570   56.1220 C.ar  221  PHE221     -0.0042
    179  CE1       14.6050   -5.4810   54.6010 C.ar  221  PHE221     -0.0003
    180  CE2       15.6730   -5.4740   56.7260 C.ar  221  PHE221     -0.0003
    181  CZ        14.5410   -5.4130   55.9690 C.ar  221  PHE221     -0.0000
    182  N         19.7410   -9.2660   57.7370 N.3   224  TYR224     -0.1227
    183  CA        19.8540  -10.4780   56.9590 C.3   224  TYR224      0.1736
    184  C         21.2230  -10.6630   56.3360 C.2   224  TYR224      0.2595
    185  O         21.8470  -11.7180   56.5610 O.2   224  TYR224     -0.2718
    186  CB        18.7350  -10.5310   55.9110 C.3   224  TYR224      0.0548
    187  CG        17.3420  -10.5380   56.5140 C.ar  224  TYR224     -0.0200
    188  CD1       16.8450  -11.6760   57.1210 C.ar  224  TYR224     -0.0009
    189  CD2       16.5450   -9.4040   56.4900 C.ar  224  TYR224     -0.0009
    190  CE1       15.5720  -11.6740   57.6650 C.ar  224  TYR224      0.0417
    191  CE2       15.2550   -9.3790   57.0140 C.ar  224  TYR224      0.0417
    192  CZ        14.7680  -10.5360   57.5900 C.ar  224  TYR224      0.1957
    193  OH        13.5210  -10.5160   58.1800 O.3   224  TYR224     -0.2866
    194  N         21.5760   -9.7140   55.4660 N.am  225  GLN225     -0.1979
    195  CA        22.8210   -9.7770   54.7720 C.3   225  GLN225      0.1601
    196  C         23.2320   -8.4100   54.2110 C.2   225  GLN225      0.2287
    197  O         22.4740   -7.4570   54.1520 O.2   225  GLN225     -0.2864
    198  CB        22.8290  -10.8140   53.6510 C.3   225  GLN225      0.0394
    199  CG        22.1770  -10.4110   52.3580 C.3   225  GLN225      0.0908
    200  CD        20.6580  -10.2870   52.4390 C.2   225  GLN225      0.2608
    201  OE1       19.9900  -11.2960   52.7620 O.2   225  GLN225     -0.2717
    202  NE2       20.0990   -9.1240   52.1290 N.am  225  GLN225     -0.0878
@<TRIPOS>BOND
     1   135   134    2
     2    97    98    1
     3   134   133    1
     4    98    99    1
     5   154   155    2
     6   154   153    1
     7   152   153    1
     8   138   136    1
     9    85    83   ar
    10    85    84   ar
    11   104   103    2
    12    83    81   ar
    13    99   101   am
    14    99   100    2
    15   101   102    1
    16   153   156    1
    17   133   136    1
    18   133   132    1
    19   125   123    1
    20   107   105    1
    21   122   121    2
    22   136   137    1
    23   111   110    2
    24    84    82   ar
    25   120   123    1
    26   120   121    1
    27   120   119    1
    28   123   124    1
    29   163   164    1
    30   103   102    1
    31   103   108   am
    32    81    82   ar
    33    81    80    1
    34   132   128   am
    35   121   126   am
    36   102   105    1
    37    89    88    2
    38   110   119   am
    39   110   109    1
    40   156   157    1
    41   105   106    1
    42   112   109    1
    43   112   113    1
    44    88    87    1
    45   129   128    2
    46   128   127    1
    47    80    77    1
    48   114   113   ar
    49   114   116   ar
    50   164   165    1
    51   164   167    1
    52   137   139    1
    53   165   166    2
    54   108   109    1
    55   126   127    1
    56    79    78    2
    57   113   115   ar
    58   127   130    1
    59   157   158    1
    60   116   118   ar
    61    78    77    1
    62    78    86   am
    63    87    86    1
    64    87    90    1
    65    77    76    1
    66   170   168    1
    67   168   167    1
    68   168   169    1
    69   115   117   ar
    70    74    73    2
    71   118   117   ar
    72    90    91    1
    73   130   131    1
    74   158   159    1
    75    71    70    2
    76    72    73    1
    77    72    69    1
    78    73    75   am
    79   159   160    2
    80    70    69    1
    81    91    92   ar
    82    91    93   ar
    83    68    69    1
    84   202   200   am
    85    92    94   ar
    86   199   200    1
    87   199   198    1
    88   200   201    2
    89   140   141    1
    90   160   162    1
    91   160   161    1
    92    93    95   ar
    93   141   144    1
    94   141   142    1
    95   171   172    1
    96    94    96   ar
    97    48    46   ar
    98   198   195    1
    99   177   179   ar
   100   177   176   ar
   101   175   172    1
   102   175   176    1
   103   144   145    1
   104    47    46   ar
   105    95    96   ar
   106   197   196    2
   107   146   145   ar
   108   146   148   ar
   109   196   195    1
   110    46    45    1
   111   142   143    2
   112   172   173    1
   113   179   181   ar
   114   176   178   ar
   115    52    51    2
   116   195   194    1
   117   145   147   ar
   118   148   150   ar
   119    63    62    2
   120   194   184   am
   121    62    61    1
   122   173   174    2
   123   186   187    1
   124   186   183    1
   125    45    44    1
   126    51    60   am
   127    51    50    1
   128   181   180   ar
   129    61    60    1
   130    61    64    1
   131    41    40    1
   132    41    42    1
   133    41    44    1
   134   178   180   ar
   135   147   149   ar
   136   150   149   ar
   137   150   151    1
   138   184   185    2
   139   184   183    1
   140    49    42   am
   141    49    50    1
   142   189   187   ar
   143   189   191   ar
   144   187   188   ar
   145    55    57   ar
   146    55    54   ar
   147    42    43    2
   148    53    50    1
   149    53    54    1
   150   183   182    1
   151   191   192   ar
   152    64    65    1
   153   188   190   ar
   154    57    59   ar
   155    54    56   ar
   156   192   190   ar
   157   192   193    1
   158     9     8    1
   159     8     7    1
   160    65    67   ar
   161    65    66   ar
   162    59    58   ar
   163    56    58   ar
   164    25    23   am
   165    39    38   ar
   166    39    37   ar
   167    17    15   am
   168     7     6    1
   169    38    36   ar
   170    24    23    2
   171    23    22    1
   172     6     5    1
   173    37    35   ar
   174     4     3    2
   175     1     2    1
   176    15    14    1
   177    15    16    2
   178    14    11    1
   179    36    33   ar
   180    22    19    1
   181     5     2    1
   182    35    33   ar
   183    35    34   ar
   184     3     2    1
   185     3    10   am
   186    33    31   ar
   187    19    20    1
   188    19    18    1
   189    11    10    1
   190    11    12    1
   191    34    32   ar
   192    12    13    2
   193    20    21    2
   194    31    32   ar
   195    31    30    1
   196    29    28    2
   197    30    27    1
   198    28    27    1
   199    27    26    1
