@<TRIPOS>MOLECULE
tmp/4ly1A03.pdb
 189 184 0 0 0
SMALL
GASTEIGER

@<TRIPOS>ATOM
      1  N         21.9450  -14.7400   13.0690 N.3    18  TYR18      -0.1241
      2  CA        23.1690  -15.2520   12.4580 C.3    18  TYR18       0.1605
      3  C         24.4020  -14.4210   12.8510 C.2    18  TYR18       0.2264
      4  O         25.5260  -14.8740   12.6250 O.2    18  TYR18      -0.2867
      5  CB        23.0370  -15.2640   10.9190 C.3    18  TYR18       0.0534
      6  CG        22.4390  -16.5320   10.3420 C.ar   18  TYR18      -0.0201
      7  CD1       23.1630  -17.3240    9.4520 C.ar   18  TYR18      -0.0009
      8  CD2       21.1270  -16.9150   10.6430 C.ar   18  TYR18      -0.0009
      9  CE1       22.6090  -18.4650    8.8840 C.ar   18  TYR18       0.0417
     10  CE2       20.5720  -18.0800   10.1030 C.ar   18  TYR18       0.0417
     11  CZ        21.3020  -18.8210    9.1810 C.ar   18  TYR18       0.1957
     12  OH        20.7690  -19.9610    8.6230 O.3    18  TYR18      -0.2866
     13  N         21.4290  -13.1500    6.3320 N.3    24  MET24      -0.1245
     14  CA        20.2760  -14.0220    6.6190 C.3    24  MET24       0.1570
     15  C         19.6510  -13.5540    7.9100 C.2    24  MET24       0.2261
     16  O         20.2930  -13.6020    8.9750 O.2    24  MET24      -0.2867
     17  CB        20.6830  -15.4850    6.6830 C.3    24  MET24       0.0387
     18  CG        19.5720  -16.4320    7.1390 C.3    24  MET24       0.0595
     19  SD        18.0230  -16.1770    6.2320 S.3    24  MET24      -0.1393
     20  CE        18.4610  -16.8950    4.5750 C.3    24  MET24       0.0692
     21  N         12.7190  -12.1650    9.1480 N.3    28  ARG28      -0.1245
     22  CA        11.8720  -12.0580    7.9530 C.3    28  ARG28       0.1563
     23  C         10.6840  -13.0680    7.9780 C.2    28  ARG28       0.2260
     24  O          9.6630  -12.8030    7.3370 O.2    28  ARG28      -0.2867
     25  CB        12.6870  -12.2400    6.6470 C.3    28  ARG28       0.0307
     26  CG        13.1630  -13.6700    6.4050 C.3    28  ARG28       0.0489
     27  CD        14.4470  -13.8080    5.5600 C.3    28  ARG28       0.2205
     28  NE        14.7150  -15.2350    5.5540 N.pl3  28  ARG28      -0.0865
     29  CZ        14.7040  -16.0270    4.4820 C.cat  28  ARG28       0.5346
     30  NH1       14.7590  -15.5060    3.2600 N.pl3  28  ARG28       0.1354
     31  NH2       14.7200  -17.3430    4.6290 N.pl3  28  ARG28       0.1354
     32  N         30.3840  -18.3070    6.4930 N.3    93  ASP93      -0.1239
     33  CA        29.0870  -18.0820    5.8290 C.3    93  ASP93       0.1674
     34  C         27.9700  -18.7720    6.6330 C.2    93  ASP93       0.2266
     35  O         26.8070  -18.3650    6.5770 O.2    93  ASP93      -0.2867
     36  CB        29.1130  -18.7750    4.4420 C.3    93  ASP93       0.1410
     37  CG        29.3640  -17.9270    3.2140 C.2    93  ASP93       0.3668
     38  OD1       29.8700  -16.7930    3.3640 O.co2  93  ASP93      -0.2456
     39  OD2       29.0900  -18.4180    2.0910 O.co2  93  ASP93      -0.2456
     40  N         17.1930  -23.8950   15.6780 N.3   103  PHE103     -0.1241
     41  CA        16.7940  -23.2720   14.4160 C.3   103  PHE103      0.1605
     42  C         16.6790  -24.3550   13.3290 C.2   103  PHE103      0.2264
     43  O         15.6970  -24.3760   12.5830 O.2   103  PHE103     -0.2867
     44  CB        17.8350  -22.2060   14.0030 C.3   103  PHE103      0.0534
     45  CG        17.5780  -21.6160   12.6360 C.ar  103  PHE103     -0.0203
     46  CD1       18.3350  -22.0100   11.5370 C.ar  103  PHE103     -0.0042
     47  CD2       16.5860  -20.6660   12.4480 C.ar  103  PHE103     -0.0042
     48  CE1       18.0850  -21.4660   10.2690 C.ar  103  PHE103     -0.0003
     49  CE2       16.3210  -20.1450   11.1770 C.ar  103  PHE103     -0.0003
     50  CZ        17.0650  -20.5580   10.0950 C.ar  103  PHE103     -0.0000
     51  N          9.7600  -21.1680    6.6980 N.3   130  ALA130     -0.1231
     52  CA        11.0450  -21.2650    7.3930 C.3   130  ALA130      0.1694
     53  C         11.9520  -22.3360    6.7590 C.2   130  ALA130      0.2593
     54  O         13.0700  -22.5090    7.2300 O.2   130  ALA130     -0.2718
     55  CB        10.8190  -21.6080    8.8570 C.3   130  ALA130      0.0304
     56  N         11.4450  -23.0840    5.7800 N.am  131  GLY131     -0.1942
     57  CA        12.2010  -24.1480    5.1310 C.3   131  GLY131      0.2014
     58  C         12.8120  -23.6920    3.8160 C.2   131  GLY131      0.2639
     59  O         12.8980  -22.4820    3.5410 O.2   131  GLY131     -0.2714
     60  N         13.2060  -24.6750    3.0090 N.am  132  GLY132     -0.1939
     61  CA        13.7910  -24.4170    1.6930 C.3   132  GLY132      0.2014
     62  C         15.3040  -24.2360    1.7060 C.2   132  GLY132      0.2639
     63  O         15.8440  -23.5270    0.8410 O.2   132  GLY132     -0.2714
     64  N         16.0130  -24.9000    2.6430 N.am  133  LEU133     -0.1963
     65  CA        17.4570  -24.7090    2.8040 C.3   133  LEU133      0.1728
     66  C         18.2030  -25.6470    1.8440 C.2   133  LEU133      0.2616
     67  O         18.8180  -26.6250    2.2390 O.2   133  LEU133     -0.2715
     68  CB        17.8190  -24.9490    4.2930 C.3   133  LEU133      0.0311
     69  CG        17.4590  -23.7800    5.2140 C.3   133  LEU133      0.0022
     70  CD1       15.9360  -23.7110    5.4910 C.3   133  LEU133      0.0001
     71  CD2       18.1920  -23.9380    6.5720 C.3   133  LEU133      0.0001
     72  N         18.1540  -25.2870    0.5650 N.am  134  HIS134     -0.1959
     73  CA        18.5910  -26.1800   -0.5070 C.3   134  HIS134      0.1787
     74  C         20.0740  -26.4470   -0.6570 C.2   134  HIS134      0.2620
     75  O         20.4130  -27.4120   -1.3430 O.2   134  HIS134     -0.2715
     76  CB        17.9730  -25.7680   -1.8480 C.3   134  HIS134      0.0785
     77  CG        18.3410  -24.3990   -2.3450 C.ar  134  HIS134      0.0821
     78  ND1       17.8530  -23.9430   -3.5640 N.ar  134  HIS134     -0.2267
     79  CD2       19.1440  -23.4390   -1.8070 C.ar  134  HIS134      0.1154
     80  CE1       18.3610  -22.7300   -3.7300 C.ar  134  HIS134      0.1986
     81  NE2       19.1540  -22.3830   -2.7120 N.ar  134  HIS134     -0.2212
     82  N         20.9290  -25.6650    0.0060 N.am  135  HIS135     -0.1973
     83  CA        22.3870  -25.8580   -0.1530 C.3   135  HIS135      0.1656
     84  C         22.9890  -26.8810    0.8050 C.2   135  HIS135      0.2291
     85  O         24.1070  -27.3510    0.5710 O.2   135  HIS135     -0.2864
     86  CB        23.1230  -24.5330    0.0350 C.3   135  HIS135      0.0771
     87  CG        22.7550  -23.4600   -0.9410 C.ar  135  HIS135      0.0820
     88  ND1       22.7730  -23.6880   -2.3070 N.ar  135  HIS135     -0.2267
     89  CD2       22.4740  -22.1490   -0.7170 C.ar  135  HIS135      0.1154
     90  CE1       22.4470  -22.5240   -2.8690 C.ar  135  HIS135      0.1986
     91  NE2       22.2520  -21.5740   -1.9500 N.ar  135  HIS135     -0.2212
     92  N         26.2270  -22.1920    2.1540 N.3   143  GLY143     -0.1210
     93  CA        25.3690  -21.0680    1.7750 C.3   143  GLY143      0.1956
     94  C         24.2870  -20.6830    2.7760 C.2   143  GLY143      0.2612
     95  O         23.1420  -20.4370    2.3940 O.2   143  GLY143     -0.2717
     96  N         24.6710  -20.6320    4.0700 N.am  144  PHE144     -0.1962
     97  CA        23.8150  -20.2610    5.2190 C.3   144  PHE144      0.1771
     98  C         22.9090  -21.3990    5.6910 C.2   144  PHE144      0.2619
     99  O         22.1640  -21.2070    6.6490 O.2   144  PHE144     -0.2715
    100  CB        22.9500  -18.9910    4.9420 C.3   144  PHE144      0.0574
    101  CG        23.5660  -17.8470    4.1350 C.ar  144  PHE144     -0.0200
    102  CD1       24.9440  -17.6150    4.1470 C.ar  144  PHE144     -0.0042
    103  CD2       22.7590  -16.9600    3.4380 C.ar  144  PHE144     -0.0042
    104  CE1       25.4980  -16.5450    3.4150 C.ar  144  PHE144     -0.0003
    105  CE2       23.3110  -15.9070    2.6970 C.ar  144  PHE144     -0.0003
    106  CZ        24.6800  -15.6920    2.7080 C.ar  144  PHE144     -0.0000
    107  N         22.9320  -22.5440    5.0020 N.am  145  CYS145     -0.1968
    108  CA        22.0870  -23.7340    5.2650 C.3   145  CYS145      0.1712
    109  C         22.8520  -24.7680    6.0270 C.2   145  CYS145      0.2296
    110  O         23.9860  -25.0560    5.6480 O.2   145  CYS145     -0.2864
    111  CB        21.6120  -24.3440    3.9600 C.3   145  CYS145      0.0983
    112  SG        20.7100  -23.2130    2.8970 S.3   145  CYS145     -0.0798
    113  N         14.4550  -20.1660   -6.3010 N.3   170  ASP170     -0.1239
    114  CA        15.4520  -19.3530   -5.6120 C.3   170  ASP170      0.1674
    115  C         16.4270  -18.8540   -6.7250 C.2   170  ASP170      0.2266
    116  O         16.5920  -19.5390   -7.7400 O.2   170  ASP170     -0.2867
    117  CB        16.2260  -20.3000   -4.6690 C.3   170  ASP170      0.1410
    118  CG        17.0990  -19.5920   -3.6710 C.2   170  ASP170      0.3668
    119  OD1       16.6820  -19.4840   -2.4930 O.co2 170  ASP170     -0.2456
    120  OD2       18.2210  -19.2230   -4.0330 O.co2 170  ASP170     -0.2456
    121  N         19.5930  -18.9760   -6.5880 N.3   172  HIS172     -0.1241
    122  CA        20.6950  -19.9180   -6.5830 C.3   172  HIS172      0.1621
    123  C         20.3190  -21.3190   -6.9990 C.2   172  HIS172      0.2264
    124  O         19.1740  -21.7680   -6.8290 O.2   172  HIS172     -0.2867
    125  CB        21.3830  -19.9770   -5.2120 C.3   172  HIS172      0.0745
    126  CG        21.8250  -18.6230   -4.7340 C.ar  172  HIS172      0.0817
    127  ND1       21.0480  -17.8860   -3.8860 N.ar  172  HIS172     -0.2268
    128  CD2       22.9030  -17.8870   -5.1150 C.ar  172  HIS172      0.1154
    129  CE1       21.6790  -16.7330   -3.7190 C.ar  172  HIS172      0.1986
    130  NE2       22.8070  -16.6810   -4.4650 N.ar  172  HIS172     -0.2212
    131  N         28.8380  -17.6510  -10.1140 N.3   198  TYR198     -0.1227
    132  CA        27.8890  -17.2230   -9.0950 C.3   198  TYR198      0.1736
    133  C         27.7370  -18.3690   -8.1440 C.2   198  TYR198      0.2595
    134  O         27.8660  -19.5200   -8.5550 O.2   198  TYR198     -0.2718
    135  CB        26.5150  -16.9450   -9.7410 C.3   198  TYR198      0.0548
    136  CG        25.6520  -15.9890   -8.9510 C.ar  198  TYR198     -0.0200
    137  CD1       24.4550  -16.4120   -8.3620 C.ar  198  TYR198     -0.0009
    138  CD2       25.9900  -14.6440   -8.8450 C.ar  198  TYR198     -0.0009
    139  CE1       23.6350  -15.5180   -7.6690 C.ar  198  TYR198      0.0417
    140  CE2       25.1940  -13.7510   -8.1350 C.ar  198  TYR198      0.0417
    141  CZ        24.0170  -14.1890   -7.5530 C.ar  198  TYR198      0.1957
    142  OH        23.2210  -13.2780   -6.9040 O.3   198  TYR198     -0.2866
    143  N         27.4250  -18.0760   -6.8860 N.am  199  PHE199     -0.1976
    144  CA        27.2280  -19.1230   -5.9150 C.3   199  PHE199      0.1639
    145  C         26.0520  -20.0440   -6.2980 C.2   199  PHE199      0.2290
    146  O         25.0140  -19.5230   -6.7430 O.2   199  PHE199     -0.2864
    147  CB        26.9280  -18.5060   -4.5210 C.3   199  PHE199      0.0560
    148  CG        26.9310  -19.5370   -3.4080 C.ar  199  PHE199     -0.0200
    149  CD1       25.7610  -20.2060   -3.0500 C.ar  199  PHE199     -0.0042
    150  CD2       28.1140  -19.8900   -2.7640 C.ar  199  PHE199     -0.0042
    151  CE1       25.7790  -21.2120   -2.0710 C.ar  199  PHE199     -0.0003
    152  CE2       28.1170  -20.8560   -1.7400 C.ar  199  PHE199     -0.0003
    153  CZ        26.9480  -21.5060   -1.3910 C.ar  199  PHE199     -0.0000
    154  N         15.0690  -14.5460   -3.1260 N.3   258  ASP258     -0.1239
    155  CA        16.2870  -13.8120   -3.5400 C.3   258  ASP258      0.1674
    156  C         16.3230  -13.5890   -5.0570 C.2   258  ASP258      0.2266
    157  O         17.2520  -12.9530   -5.5700 O.2   258  ASP258     -0.2867
    158  CB        17.5750  -14.4210   -2.9720 C.3   258  ASP258      0.1410
    159  CG        17.6890  -15.9320   -3.0820 C.2   258  ASP258      0.3668
    160  OD1       16.8920  -16.5330   -3.8530 O.co2 258  ASP258     -0.2456
    161  OD2       18.6230  -16.5040   -2.4670 O.co2 258  ASP258     -0.2456
    162  N         21.3260   -9.3890   -2.1440 N.3   265  LEU265     -0.1245
    163  CA        22.3730  -10.2530   -2.6700 C.3   265  LEU265      0.1561
    164  C         22.1650  -10.5950   -4.1300 C.2   265  LEU265      0.2260
    165  O         23.1420  -10.6460   -4.8780 O.2   265  LEU265     -0.2867
    166  CB        22.5360  -11.5190   -1.8380 C.3   265  LEU265      0.0270
    167  CG        22.9450  -11.3590   -0.3610 C.3   265  LEU265      0.0019
    168  CD1       23.2330  -12.6870    0.2460 C.3   265  LEU265      0.0001
    169  CD2       24.1630  -10.4090   -0.1810 C.3   265  LEU265      0.0001
    170  N         13.1080  -20.0510    1.3190 N.3   294  GLY294     -0.1210
    171  CA        14.4410  -20.1460    0.7210 C.3   294  GLY294      0.1956
    172  C         15.1650  -18.8390    1.0050 C.2   294  GLY294      0.2612
    173  O         14.9580  -18.2270    2.0600 O.2   294  GLY294     -0.2717
    174  N         15.9930  -18.3930    0.0600 N.am  295  GLY295     -0.1956
    175  CA        16.7470  -17.1590    0.2400 C.3   295  GLY295      0.1869
    176  C         15.8500  -15.9390    0.2080 C.2   295  GLY295      0.2309
    177  O         14.6350  -16.0530    0.0290 O.2   295  GLY295     -0.2863
    178  N         16.8450  -11.4800    0.9290 N.3   297  TYR297     -0.1241
    179  CA        17.6830  -10.5980    1.7250 C.3   297  TYR297      0.1605
    180  C         17.2080   -9.1710    1.8590 C.2   297  TYR297      0.2264
    181  O         17.7700   -8.4570    2.6860 O.2   297  TYR297     -0.2867
    182  CB        19.1790  -10.7370    1.2830 C.3   297  TYR297      0.0534
    183  CG        19.5620  -12.2010    1.3070 C.ar  297  TYR297     -0.0201
    184  CD1       19.4900  -12.9830    0.1470 C.ar  297  TYR297     -0.0009
    185  CD2       19.7800  -12.8540    2.5110 C.ar  297  TYR297     -0.0009
    186  CE1       19.6930  -14.3690    0.1940 C.ar  297  TYR297      0.0417
    187  CE2       19.9700  -14.2280    2.5730 C.ar  297  TYR297      0.0417
    188  CZ        19.8890  -14.9920    1.4190 C.ar  297  TYR297      0.1957
    189  OH        20.0420  -16.3490    1.5590 O.3   297  TYR297     -0.2866
@<TRIPOS>BOND
     1   131   132    1
     2   135   132    1
     3   135   136    1
     4   132   133    1
     5   136   138   ar
     6   136   137   ar
     7   138   140   ar
     8   134   133    2
     9   137   139   ar
    10   133   143   am
    11   140   141   ar
    12   116   115    2
    13   139   141   ar
    14   141   142    1
    15   123   124    2
    16   123   122    1
    17   143   144    1
    18   146   145    2
    19   115   114    1
    20   121   122    1
    21   122   125    1
    22   113   114    1
    23   145   144    1
    24   144   147    1
    25   114   117    1
    26   157   156    2
    27   125   126    1
    28   128   126   ar
    29   128   130   ar
    30   156   155    1
    31   165   164    2
    32   126   127   ar
    33   117   118    1
    34   147   148    1
    35   130   129   ar
    36   164   163    1
    37   120   118   ar
    38   127   129   ar
    39   160   159   ar
    40    80    78   ar
    41    80    81   ar
    42   118   119   ar
    43    78    77   ar
    44   155   154    1
    45   155   158    1
    46   148   149   ar
    47   148   150   ar
    48   159   158    1
    49   159   161   ar
    50   149   151   ar
    51    90    88   ar
    52    90    91   ar
    53   150   152   ar
    54    81    79   ar
    55   163   162    1
    56   163   166    1
    57    77    76    1
    58    77    79   ar
    59    88    87   ar
    60   151   153   ar
    61    91    89   ar
    62    76    73    1
    63   166   167    1
    64   152   153   ar
    65    75    74    2
    66    87    89   ar
    67    87    86    1
    68    74    73    1
    69    74    82   am
    70    73    72    1
    71   167   169    1
    72   167   168    1
    73    83    82    1
    74    83    86    1
    75    83    84    1
    76   177   176    2
    77   174   175    1
    78   174   172   am
    79   184   186   ar
    80   184   183   ar
    81   186   188   ar
    82   176   175    1
    83    72    66   am
    84    85    84    2
    85   171   172    1
    86   171   170    1
    87    63    62    2
    88   178   179    1
    89   172   173    2
    90   182   183    1
    91   182   179    1
    92   183   185   ar
    93   188   189    1
    94   188   187   ar
    95    61    62    1
    96    61    60    1
    97    62    64   am
    98   179   180    1
    99    93    92    1
   100    93    94    1
   101    66    67    2
   102    66    65    1
   103   180   181    2
   104    39    37   ar
   105    95    94    2
   106   185   187   ar
   107    64    65    1
   108   105   106   ar
   109   105   103   ar
   110   106   104   ar
   111    94    96   am
   112    65    68    1
   113   112   111    1
   114    60    58   am
   115    37    38   ar
   116    37    36    1
   117    30    29    1
   118   104   102   ar
   119   103   101   ar
   120    59    58    2
   121    58    57    1
   122   111   108    1
   123    96    97    1
   124   101   102   ar
   125   101   100    1
   126    68    69    1
   127    36    33    1
   128    29    31    1
   129    29    28    2
   130    20    19    1
   131   100    97    1
   132   107   108    1
   133   107    98   am
   134    57    56    1
   135    69    70    1
   136    69    71    1
   137    97    98    1
   138   108   109    1
   139    28    27    1
   140    27    26    1
   141   110   109    2
   142    98    99    2
   143    56    53   am
   144    33    32    1
   145    33    34    1
   146    19    18    1
   147    13    14    1
   148    26    25    1
   149    35    34    2
   150    14    17    1
   151    14    15    1
   152    25    22    1
   153    17    18    1
   154    51    52    1
   155    53    54    2
   156    53    52    1
   157    24    23    2
   158    52    55    1
   159    15    16    2
   160    22    23    1
   161    22    21    1
   162    12    11    1
   163     9    11   ar
   164     9     7   ar
   165    11    10   ar
   166     7     6   ar
   167    50    48   ar
   168    50    49   ar
   169    10     8   ar
   170    48    46   ar
   171     6     8   ar
   172     6     5    1
   173     5     2    1
   174    49    47   ar
   175    46    45   ar
   176    47    45   ar
   177     2     3    1
   178     2     1    1
   179    43    42    2
   180     4     3    2
   181    45    44    1
   182    42    41    1
   183    44    41    1
   184    41    40    1
