@<TRIPOS>MOLECULE
tmp/4ly9A01.pdb
 245 238 0 0 0
SMALL
GASTEIGER

@<TRIPOS>ATOM
      1  N         38.3940  -21.7010    5.0900 N.3     9  HIS9       -0.1226
      2  CA        37.6570  -22.4880    6.0440 C.3     9  HIS9        0.1752
      3  C         37.1980  -21.6930    7.2950 C.2     9  HIS9        0.2596
      4  O         36.4110  -22.2000    8.0960 O.2     9  HIS9       -0.2718
      5  CB        38.4810  -23.7120    6.4160 C.3     9  HIS9        0.0759
      6  CG        39.2230  -23.5970    7.7090 C.ar    9  HIS9        0.0818
      7  ND1       40.2940  -22.7480    7.8860 N.ar    9  HIS9       -0.2268
      8  CD2       39.0780  -24.2750    8.8800 C.ar    9  HIS9        0.1154
      9  CE1       40.7520  -22.8800    9.1230 C.ar    9  HIS9        0.1986
     10  NE2       40.0350  -23.8010    9.7490 N.ar    9  HIS9       -0.2212
     11  N         37.6610  -20.4440    7.4680 N.am   10  VAL10      -0.1966
     12  CA        37.2780  -19.6790    8.6390 C.3    10  VAL10       0.1727
     13  C         35.8430  -19.2700    8.4140 C.2    10  VAL10       0.2616
     14  O         35.5620  -18.7410    7.3960 O.2    10  VAL10      -0.2715
     15  CB        38.1500  -18.4380    8.8590 C.3    10  VAL10       0.0290
     16  CG1       37.6680  -17.6780   10.0720 C.3    10  VAL10       0.0023
     17  CG2       39.5840  -18.8390    9.0870 C.3    10  VAL10       0.0023
     18  N         34.9410  -19.5870    9.3430 N.am   11  ILE11      -0.1977
     19  CA        33.5710  -19.1250    9.2780 C.3    11  ILE11       0.1596
     20  C         33.5150  -17.6430    9.6890 C.2    11  ILE11       0.2287
     21  O         34.2010  -17.2300   10.6520 O.2    11  ILE11      -0.2864
     22  CB        32.6590  -19.8970   10.2560 C.3    11  ILE11       0.0276
     23  CG1       32.7250  -21.4250   10.0470 C.3    11  ILE11       0.0022
     24  CG2       31.2060  -19.4680   10.1110 C.3    11  ILE11       0.0022
     25  CD1       32.0790  -21.9260    8.7850 C.3    11  ILE11       0.0001
     26  N         24.7100  -15.9290   17.0420 N.3    19  TRP19      -0.1241
     27  CA        25.7710  -16.9230   17.1380 C.3    19  TRP19       0.1605
     28  C         25.2030  -18.3280   16.9050 C.2    19  TRP19       0.2264
     29  O         25.7850  -19.1110   16.1400 O.2    19  TRP19      -0.2867
     30  CB        26.4960  -16.8110   18.4640 C.3    19  TRP19       0.0550
     31  CG        27.4740  -15.6560   18.5140 C.ar   19  TRP19       0.0003
     32  CD1       27.2090  -14.3660   18.8760 C.ar   19  TRP19       0.0946
     33  CD2       28.8790  -15.7030   18.2210 C.ar   19  TRP19       0.0152
     34  NE1       28.3630  -13.6030   18.8110 N.ar   19  TRP19      -0.2442
     35  CE2       29.3970  -14.4040   18.4170 C.ar   19  TRP19       0.0810
     36  CE3       29.7530  -16.7200   17.8110 C.ar   19  TRP19       0.0012
     37  CZ2       30.7360  -14.0980   18.2110 C.ar   19  TRP19       0.0191
     38  CZ3       31.0940  -16.4020   17.5950 C.ar   19  TRP19       0.0001
     39  CH2       31.5670  -15.1110   17.7960 C.ar   19  TRP19       0.0015
     40  N         26.9530  -20.9410   13.4090 N.3    24  TYR24      -0.1241
     41  CA        28.3480  -20.8700   13.8150 C.3    24  TYR24       0.1605
     42  C         28.5550  -21.8350   14.9720 C.2    24  TYR24       0.2264
     43  O         29.4290  -22.6930   14.8840 O.2    24  TYR24      -0.2867
     44  CB        28.7690  -19.4590   14.2250 C.3    24  TYR24       0.0534
     45  CG        30.2410  -19.2910   14.5210 C.ar   24  TYR24      -0.0201
     46  CD1       30.7880  -19.6700   15.7490 C.ar   24  TYR24      -0.0009
     47  CD2       31.0680  -18.7180   13.6180 C.ar   24  TYR24      -0.0009
     48  CE1       32.1250  -19.4960   16.0520 C.ar   24  TYR24       0.0417
     49  CE2       32.4100  -18.5400   13.9100 C.ar   24  TYR24       0.0417
     50  CZ        32.9380  -18.9410   15.1310 C.ar   24  TYR24       0.1957
     51  OH        34.2830  -18.7520   15.3790 O.3    24  TYR24      -0.2866
     52  N         31.2090  -25.3590   15.7560 N.3    28  VAL28      -0.1231
     53  CA        32.3410  -25.4350   16.6880 C.3    28  VAL28       0.1678
     54  C         32.4460  -26.8630   17.1750 C.2    28  VAL28       0.2434
     55  O         31.5330  -27.3730   17.8400 O.2    28  VAL28      -0.2733
     56  CB        32.2420  -24.4860   17.8980 C.3    28  VAL28       0.0265
     57  CG1       33.5070  -24.5770   18.7640 C.3    28  VAL28       0.0020
     58  CG2       32.0470  -23.0280   17.4330 C.3    28  VAL28       0.0020
     59  N         33.5760  -27.5100   16.8650 N.am   29  PRO29      -0.2729
     60  CA        33.7970  -28.8810   17.3390 C.3    29  PRO29       0.1401
     61  C         33.5010  -29.0570   18.8030 C.2    29  PRO29       0.2269
     62  O         33.8170  -28.1800   19.6090 O.2    29  PRO29      -0.2865
     63  CB        35.2860  -29.1150   17.0460 C.3    29  PRO29       0.0296
     64  CG        35.6120  -28.1920   15.9080 C.3    29  PRO29       0.0237
     65  CD        34.7680  -26.9740   16.1560 C.3    29  PRO29       0.0939
     66  N         35.0390  -30.4480   21.0370 N.3    31  THR31      -0.1203
     67  CA        36.2390  -30.3500   21.8250 C.3    31  THR31       0.1994
     68  C         36.6960  -28.9140   22.0730 C.2    31  THR31       0.2618
     69  O         37.4310  -28.6720   22.9900 O.2    31  THR31      -0.2717
     70  CB        37.4040  -31.1330   21.1630 C.3    31  THR31       0.1784
     71  OG1       37.6670  -30.6530   19.8010 O.3    31  THR31      -0.2211
     72  CG2       37.0310  -32.6010   21.1590 C.3    31  THR31       0.0376
     73  N         36.2670  -27.9780   21.2440 N.am   32  GLU32      -0.1965
     74  CA        36.6320  -26.5740   21.3950 C.3    32  GLU32       0.1733
     75  C         35.5840  -25.7420   22.0500 C.2    32  GLU32       0.2616
     76  O         35.8060  -24.5630   22.3200 O.2    32  GLU32      -0.2715
     77  CB        36.8760  -25.9910   20.0040 C.3    32  GLU32       0.0429
     78  CG        38.0100  -26.7250   19.2800 C.3    32  GLU32       0.1163
     79  CD        39.4150  -26.4330   19.8420 C.2    32  GLU32       0.3649
     80  OE1       39.6040  -25.3580   20.3840 O.co2  32  GLU32      -0.2457
     81  OE2       40.3210  -27.2930   19.7250 O.co2  32  GLU32      -0.2457
     82  N         34.4270  -26.3300   22.3080 N.am   33  LYS33      -0.1963
     83  CA        33.2970  -25.5510   22.7820 C.3    33  LYS33       0.1728
     84  C         33.5300  -24.9630   24.1600 C.2    33  LYS33       0.2616
     85  O         34.3370  -25.5000   24.9290 O.2    33  LYS33      -0.2715
     86  CB        32.0030  -26.3820   22.7600 C.3    33  LYS33       0.0311
     87  CG        31.2730  -26.4660   21.4120 C.3    33  LYS33       0.0038
     88  CD        29.8640  -27.0730   21.5940 C.3    33  LYS33       0.0206
     89  CE        29.3020  -27.8040   20.3670 C.3    33  LYS33       0.1093
     90  NZ        29.1490  -26.9490   19.1450 N.3    33  LYS33      -0.1314
     91  N         32.8290  -23.8470   24.4380 N.am   34  SER34      -0.1950
     92  CA        32.6920  -23.2730   25.7930 C.3    34  SER34       0.1924
     93  C         31.7530  -24.1840   26.6110 C.2    34  SER34       0.2314
     94  O         30.5890  -24.3660   26.2470 O.2    34  SER34      -0.2863
     95  CB        32.0800  -21.8460   25.7240 C.3    34  SER34       0.2116
     96  OG        31.8890  -21.2960   27.0190 O.3    34  SER34      -0.2180
     97  N         40.7550  -34.1900   19.2960 N.3   179  GLY179     -0.1225
     98  CA        40.0190  -33.2880   18.4450 C.3   179  GLY179      0.1811
     99  C         39.8460  -33.8010   17.0460 C.2   179  GLY179      0.2280
    100  O         39.2490  -33.0960   16.2340 O.2   179  GLY179     -0.2866
    101  N         42.2130  -34.1110   15.0290 N.3   181  SER181     -0.1217
    102  CA        42.8570  -32.9020   14.6450 C.3   181  SER181      0.1889
    103  C         44.3070  -33.0670   14.1890 C.2   181  SER181      0.2288
    104  O         44.6930  -32.3470   13.2900 O.2   181  SER181     -0.2866
    105  CB        42.8580  -31.9430   15.8350 C.3   181  SER181      0.2089
    106  OG        43.8660  -30.9540   15.6640 O.3   181  SER181     -0.2183
    107  N         35.3320  -36.1310   18.8670 N.3   207  ASN207     -0.1240
    108  CA        34.4440  -35.3400   18.0130 C.3   207  ASN207      0.1653
    109  C         33.7450  -36.2660   17.0700 C.2   207  ASN207      0.2266
    110  O         34.2980  -37.2350   16.6790 O.2   207  ASN207     -0.2867
    111  CB        35.2060  -34.3170   17.1870 C.3   207  ASN207      0.1155
    112  CG        35.4290  -33.0390   17.9180 C.2   207  ASN207      0.2627
    113  OD1       34.5500  -32.5530   18.6420 O.2   207  ASN207     -0.2716
    114  ND2       36.6180  -32.4810   17.7630 N.am  207  ASN207     -0.0877
    115  N         32.6580  -33.2280   12.5500 N.3   211  MET211     -0.1230
    116  CA        33.3820  -32.0990   13.0960 C.3   211  MET211      0.1702
    117  C         34.8650  -32.3580   13.1030 C.2   211  MET211      0.2592
    118  O         35.6400  -31.6590   13.7780 O.2   211  MET211     -0.2718
    119  CB        32.9220  -31.8250   14.5320 C.3   211  MET211      0.0401
    120  CG        31.4830  -31.3470   14.6690 C.3   211  MET211      0.0596
    121  SD        30.9770  -31.4380   16.3840 S.3   211  MET211     -0.1393
    122  CE        29.5160  -30.4010   16.3950 C.3   211  MET211      0.0692
    123  N         35.3160  -33.3580   12.3680 N.am  212  ALA212     -0.1966
    124  CA        36.7340  -33.5910   12.3460 C.3   212  ALA212      0.1728
    125  C         37.3460  -32.4170   11.6560 C.2   212  ALA212      0.2616
    126  O         36.7150  -31.7740   10.8350 O.2   212  ALA212     -0.2715
    127  CB        37.0940  -34.8710   11.6400 C.3   212  ALA212      0.0334
    128  N         38.6020  -32.1530   11.9860 N.am  213  ARG213     -0.1963
    129  CA        39.3490  -31.0320   11.4150 C.3   213  ARG213      0.1729
    130  C         39.4580  -31.1430    9.9150 C.2   213  ARG213      0.2616
    131  O         39.7260  -32.2330    9.3650 O.2   213  ARG213     -0.2715
    132  CB        40.7110  -30.9640   12.0600 C.3   213  ARG213      0.0348
    133  CG        41.3660  -29.6880   11.8420 C.3   213  ARG213      0.0492
    134  CD        42.5970  -29.5780   12.7020 C.3   213  ARG213      0.2205
    135  NE        43.4180  -28.4810   12.2430 N.pl3 213  ARG213     -0.0865
    136  CZ        44.6230  -28.1800   12.7070 C.cat 213  ARG213      0.5346
    137  NH1       45.1830  -28.9050   13.6670 N.pl3 213  ARG213      0.1354
    138  NH2       45.2720  -27.1410   12.2090 N.pl3 213  ARG213      0.1354
    139  N         39.2630  -29.9960    9.2580 N.am  214  ASN214     -0.1958
    140  CA        39.1360  -29.9020    7.7940 C.3   214  ASN214      0.1819
    141  C         39.9400  -28.8040    7.1140 C.2   214  ASN214      0.2621
    142  O         39.7030  -28.5600    5.9490 O.2   214  ASN214     -0.2715
    143  CB        37.6440  -29.7370    7.4120 C.3   214  ASN214      0.1195
    144  CG        37.3130  -30.2570    6.0190 C.2   214  ASN214      0.2630
    145  OD1       37.7730  -31.3210    5.5730 O.2   214  ASN214     -0.2716
    146  ND2       36.5050  -29.4900    5.3100 N.am  214  ASN214     -0.0877
    147  N         40.8810  -28.1580    7.7950 N.am  215  ASP215     -0.1971
    148  CA        41.7970  -27.1960    7.1390 C.3   215  ASP215      0.1709
    149  C         43.0010  -27.9440    6.5940 C.2   215  ASP215      0.2293
    150  O         43.2840  -29.0260    7.0670 O.2   215  ASP215     -0.2864
    151  CB        42.2410  -26.0640    8.0820 C.3   215  ASP215      0.1436
    152  CG        43.0310  -26.5690    9.2800 C.2   215  ASP215      0.3671
    153  OD1       42.5530  -27.5220    9.8940 O.co2 215  ASP215     -0.2456
    154  OD2       44.1040  -26.0360    9.6240 O.co2 215  ASP215     -0.2456
    155  N         37.9550  -24.3940   27.9740 N.3   253  SER253     -0.1217
    156  CA        37.7440  -24.5310   26.5350 C.3   253  SER253      0.1889
    157  C         38.9860  -24.9940   25.8030 C.2   253  SER253      0.2288
    158  O         39.9960  -24.3240   25.8360 O.2   253  SER253     -0.2866
    159  CB        37.2660  -23.2240   25.9390 C.3   253  SER253      0.2089
    160  OG        36.1110  -22.7540   26.6050 O.3   253  SER253     -0.2183
    161  N         38.0530  -19.4520   28.9680 N.3   483  HIS483     -0.1241
    162  CA        39.0100  -19.4170   27.8770 C.3   483  HIS483      0.1621
    163  C         40.3830  -18.9930   28.4130 C.2   483  HIS483      0.2264
    164  O         40.4870  -18.0910   29.2900 O.2   483  HIS483     -0.2867
    165  CB        38.5310  -18.4060   26.8210 C.3   483  HIS483      0.0745
    166  CG        37.2060  -18.7500   26.2080 C.ar  483  HIS483      0.0817
    167  ND1       37.0030  -19.9000   25.4740 N.ar  483  HIS483     -0.2268
    168  CD2       36.0160  -18.1100   26.2300 C.ar  483  HIS483      0.1154
    169  CE1       35.7590  -19.9450   25.0500 C.ar  483  HIS483      0.1986
    170  NE2       35.1380  -18.8620   25.4830 N.ar  483  HIS483     -0.2212
    171  N         46.4980  -25.5040   15.1410 N.3   493  LYS493     -0.1245
    172  CA        45.3000  -25.5310   15.9710 C.3   493  LYS493      0.1561
    173  C         45.1700  -24.3520   16.9940 C.2   493  LYS493      0.2260
    174  O         44.1200  -23.7150   17.1200 O.2   493  LYS493     -0.2867
    175  CB        45.2290  -26.8720   16.6660 C.3   493  LYS493      0.0271
    176  CG        44.0200  -27.0480   17.5640 C.3   493  LYS493      0.0035
    177  CD        44.0480  -28.4500   18.1510 C.3   493  LYS493      0.0206
    178  CE        45.2160  -28.6820   19.1220 C.3   493  LYS493      0.1093
    179  NZ        45.1130  -30.1020   19.5720 N.3   493  LYS493     -0.1314
    180  N         44.3720  -21.3250   15.1700 N.3   496  TRP496     -0.1227
    181  CA        42.9320  -21.2150   14.9120 C.3   496  TRP496      0.1737
    182  C         42.1450  -20.9150   16.1500 C.2   496  TRP496      0.2595
    183  O         41.1410  -20.1840   16.0680 O.2   496  TRP496     -0.2718
    184  CB        42.3580  -22.4360   14.2340 C.3   496  TRP496      0.0564
    185  CG        42.9730  -22.7220   12.9020 C.ar  496  TRP496      0.0003
    186  CD1       43.5960  -23.8640   12.5460 C.ar  496  TRP496      0.0946
    187  CD2       43.0240  -21.8590   11.7540 C.ar  496  TRP496      0.0152
    188  NE1       43.9990  -23.8000   11.2510 N.ar  496  TRP496     -0.2442
    189  CE2       43.6660  -22.5750   10.7340 C.ar  496  TRP496      0.0810
    190  CE3       42.5470  -20.5730   11.4770 C.ar  496  TRP496      0.0012
    191  CZ2       43.8830  -22.0390    9.4460 C.ar  496  TRP496      0.0191
    192  CZ3       42.7730  -20.0190   10.1970 C.ar  496  TRP496      0.0001
    193  CH2       43.4450  -20.7500    9.2140 C.ar  496  TRP496      0.0015
    194  N         42.5560  -21.4990   17.2920 N.am  497  ARG497     -0.1980
    195  CA        41.8870  -21.1960   18.5610 C.3   497  ARG497      0.1597
    196  C         42.0740  -19.6980   18.8620 C.2   497  ARG497      0.2287
    197  O         41.1550  -19.0330   19.3320 O.2   497  ARG497     -0.2864
    198  CB        42.3960  -22.0650   19.7080 C.3   497  ARG497      0.0334
    199  CG        41.6780  -21.8380   21.0640 C.3   497  ARG497      0.0492
    200  CD        42.0790  -22.9200   22.0910 C.3   497  ARG497      0.2205
    201  NE        41.9890  -24.3100   21.5620 N.pl3 497  ARG497     -0.0865
    202  CZ        42.7520  -25.3340   21.9330 C.cat 497  ARG497      0.5346
    203  NH1       43.7240  -25.1560   22.8050 N.pl3 497  ARG497      0.1354
    204  NH2       42.6020  -26.5340   21.3990 N.pl3 497  ARG497      0.1354
    205  N         42.4320  -17.2650   16.7080 N.3   499  LEU499     -0.1231
    206  CA        41.5550  -16.5190   15.8080 C.3   499  LEU499      0.1693
    207  C         40.0940  -16.5990   16.3110 C.2   499  LEU499      0.2592
    208  O         39.4100  -15.6080   16.3890 O.2   499  LEU499     -0.2718
    209  CB        41.7230  -17.0040   14.3590 C.3   499  LEU499      0.0284
    210  CG        40.8460  -16.3580   13.3120 C.3   499  LEU499      0.0019
    211  CD1       41.0960  -14.8430   13.2960 C.3   499  LEU499      0.0001
    212  CD2       41.1170  -17.0100   11.9430 C.3   499  LEU499      0.0001
    213  N         39.6290  -17.7770   16.6700 N.am  500  ALA500     -0.1966
    214  CA        38.2970  -17.9090   17.2920 C.3   500  ALA500      0.1728
    215  C         38.0510  -17.0790   18.5480 C.2   500  ALA500      0.2616
    216  O         36.9220  -16.5670   18.7780 O.2   500  ALA500     -0.2715
    217  CB        38.0670  -19.3540   17.6620 C.3   500  ALA500      0.0334
    218  N         39.0540  -17.0150   19.4170 N.am  501  MET501     -0.1977
    219  CA        38.8740  -16.2210   20.6270 C.3   501  MET501      0.1605
    220  C         38.7450  -14.7480   20.2300 C.2   501  MET501      0.2287
    221  O         37.8580  -14.0400   20.7370 O.2   501  MET501     -0.2864
    222  CB        39.9870  -16.4960   21.6490 C.3   501  MET501      0.0413
    223  CG        39.8170  -17.8600   22.3040 C.3   501  MET501      0.0598
    224  SD        41.0210  -18.1830   23.5670 S.3   501  MET501     -0.1393
    225  CE        42.4980  -18.0650   22.6310 C.3   501  MET501      0.0692
    226  N         37.3640  -13.6370   17.4800 N.3   503  GLN503     -0.1231
    227  CA        35.9850  -13.4170   16.9880 C.3   503  GLN503      0.1698
    228  C         34.9760  -13.3890   18.1290 C.2   503  GLN503      0.2592
    229  O         34.0760  -12.5810   18.1220 O.2   503  GLN503     -0.2718
    230  CB        35.5300  -14.4950   16.0180 C.3   503  GLN503      0.0381
    231  CG        36.4610  -14.8190   14.8650 C.3   503  GLN503      0.0905
    232  CD        35.8790  -15.9080   14.0220 C.2   503  GLN503      0.2608
    233  OE1       36.0220  -17.0810   14.3560 O.2   503  GLN503     -0.2717
    234  NE2       35.1020  -15.5310   12.9920 N.am  503  GLN503     -0.0878
    235  N         35.1200  -14.2990   19.0910 N.am  504  ARG504     -0.1980
    236  CA        34.1920  -14.3950   20.1880 C.3   504  ARG504      0.1597
    237  C         34.2190  -13.1730   21.1350 C.2   504  ARG504      0.2287
    238  O         33.1930  -12.7940   21.6420 O.2   504  ARG504     -0.2864
    239  CB        34.4610  -15.6680   20.9860 C.3   504  ARG504      0.0334
    240  CG        33.6000  -15.9060   22.2390 C.3   504  ARG504      0.0492
    241  CD        32.1930  -16.3180   21.9100 C.3   504  ARG504      0.2205
    242  NE        32.1410  -17.6200   21.2380 N.pl3 504  ARG504     -0.0865
    243  CZ        31.0190  -18.2870   20.9680 C.cat 504  ARG504      0.5346
    244  NH1       29.8290  -17.7620   21.2710 N.pl3 504  ARG504      0.1354
    245  NH2       31.0860  -19.4840   20.3750 N.pl3 504  ARG504      0.1354
@<TRIPOS>BOND
     1     1     2    1
     2   146   144   am
     3   145   144    2
     4   142   141    2
     5   144   143    1
     6     2     5    1
     7     2     3    1
     8     5     6    1
     9   149   150    2
    10   149   148    1
    11   141   140    1
    12   141   147   am
    13   148   147    1
    14   148   151    1
    15     3    11   am
    16     3     4    2
    17    14    13    2
    18   143   140    1
    19    11    12    1
    20     6     7   ar
    21     6     8   ar
    22   140   139    1
    23     7     9   ar
    24   151   152    1
    25    13    12    1
    26    13    18   am
    27    12    15    1
    28    25    23    1
    29    15    17    1
    30    15    16    1
    31     8    10   ar
    32     9    10   ar
    33   193   191   ar
    34   193   192   ar
    35   139   130   am
    36    19    18    1
    37    19    20    1
    38    19    22    1
    39   152   154   ar
    40   152   153   ar
    41   131   130    2
    42   191   189   ar
    43    20    21    2
    44   130   129    1
    45    23    22    1
    46    24    22    1
    47   192   190   ar
    48   189   188   ar
    49   189   187   ar
    50   126   125    2
    51   188   186   ar
    52   129   128    1
    53   129   132    1
    54   190   187   ar
    55   127   124    1
    56   125   128   am
    57   125   124    1
    58   187   185   ar
    59   133   132    1
    60   133   134    1
    61   212   210    1
    62   138   136    1
    63   135   134    1
    64   135   136    2
    65   124   123    1
    66   123   117   am
    67   186   185   ar
    68   115   116    1
    69   136   137    1
    70   185   184    1
    71   234   232   am
    72   116   117    1
    73   116   119    1
    74   117   118    2
    75   104   103    2
    76   211   210    1
    77   210   209    1
    78    40    41    1
    79    47    49   ar
    80    47    45   ar
    81    41    44    1
    82    41    42    1
    83    49    50   ar
    84   232   233    2
    85   232   231    1
    86   103   102    1
    87    44    45    1
    88   184   181    1
    89   209   206    1
    90    45    46   ar
    91   119   120    1
    92   102   101    1
    93   102   105    1
    94   120   121    1
    95   231   230    1
    96    43    42    2
    97   181   180    1
    98   181   182    1
    99    50    51    1
   100    50    48   ar
   101   171   172    1
   102   106   105    1
   103    46    48   ar
   104    52    53    1
   105   206   207    1
   106   206   205    1
   107    64    65    1
   108    64    63    1
   109   172   175    1
   110   172   173    1
   111   230   227    1
   112   183   182    2
   113    29    28    2
   114   182   194   am
   115    65    59    1
   116   100    99    2
   117   207   208    2
   118   207   213   am
   119   121   122    1
   120   175   176    1
   121   213   214    1
   122   110   109    2
   123    53    54    1
   124    53    56    1
   125    59    54   am
   126    59    60    1
   127    28    27    1
   128   227   226    1
   129   227   228    1
   130   173   174    2
   131    26    27    1
   132    63    60    1
   133    99    98    1
   134   109   108    1
   135    27    30    1
   136    54    55    2
   137   111   112    1
   138   111   108    1
   139   214   217    1
   140   214   215    1
   141   194   195    1
   142    60    61    1
   143    58    56    1
   144   176   177    1
   145    38    39   ar
   146    38    36   ar
   147   114   112   am
   148    39    37   ar
   149    36    33   ar
   150    56    57    1
   151   112   113    2
   152   108   107    1
   153   229   228    2
   154   228   235   am
   155   177   178    1
   156    37    35   ar
   157    33    35   ar
   158    33    31   ar
   159    35    34   ar
   160    98    97    1
   161    30    31    1
   162    31    32   ar
   163   215   216    2
   164   215   218   am
   165   195   196    1
   166   195   198    1
   167    61    62    2
   168    34    32   ar
   169   196   197    2
   170   235   236    1
   171   178   179    1
   172    90    89    1
   173    78    79    1
   174    78    77    1
   175   218   219    1
   176   198   199    1
   177    81    79   ar
   178    71    70    1
   179    79    80   ar
   180    77    74    1
   181   236   239    1
   182   236   237    1
   183   220   219    1
   184   220   221    2
   185    89    88    1
   186   245   243    1
   187   219   222    1
   188   243   242    2
   189   243   244    1
   190   239   240    1
   191    66    67    1
   192   199   200    1
   193   237   238    2
   194    72    70    1
   195    70    67    1
   196   242   241    1
   197    73    74    1
   198    73    68   am
   199    74    75    1
   200   204   202    1
   201    87    88    1
   202    87    86    1
   203   201   202    2
   204   201   200    1
   205   222   223    1
   206    67    68    1
   207   241   240    1
   208   202   203    1
   209    75    82   am
   210    75    76    2
   211    68    69    2
   212   223   224    1
   213    82    83    1
   214   225   224    1
   215    86    83    1
   216    83    84    1
   217    84    91   am
   218    84    85    2
   219    91    92    1
   220   169   167   ar
   221   169   170   ar
   222   167   166   ar
   223   170   168   ar
   224    95    92    1
   225    95    96    1
   226    92    93    1
   227   157   158    2
   228   157   156    1
   229   159   156    1
   230   159   160    1
   231   166   168   ar
   232   166   165    1
   233    94    93    2
   234   156   155    1
   235   165   162    1
   236   162   163    1
   237   162   161    1
   238   163   164    2
