@<TRIPOS>MOLECULE
tmp/4lyaA01.pdb
 130 124 0 0 0
SMALL
GASTEIGER

@<TRIPOS>ATOM
      1  N        -22.4670    3.5210   27.0690 N.3   280  LEU280     -0.1245
      2  CA       -23.3910    4.1340   28.0130 C.3   280  LEU280      0.1561
      3  C        -24.0810    3.0820   28.8740 C.2   280  LEU280      0.2260
      4  O        -24.8320    2.2490   28.3680 O.2   280  LEU280     -0.2867
      5  CB       -24.4340    4.9690   27.2680 C.3   280  LEU280      0.0270
      6  CG       -25.4010    5.7840   28.1290 C.3   280  LEU280      0.0019
      7  CD1      -24.6530    6.8470   28.9230 C.3   280  LEU280      0.0001
      8  CD2      -26.4890    6.4140   27.2720 C.3   280  LEU280      0.0001
      9  N        -35.1140   -8.0560   15.2880 N.3   324  SER324     -0.1202
     10  CA       -34.4440   -9.1580   15.9740 C.3   324  SER324      0.2020
     11  C        -33.1000   -8.7400   16.5600 C.2   324  SER324      0.2619
     12  O        -32.2090   -8.2930   15.8340 O.2   324  SER324     -0.2717
     13  CB       -34.2550  -10.3450   15.0270 C.3   324  SER324      0.2103
     14  OG       -35.5010  -10.8080   14.5370 O.3   324  SER324     -0.2182
     15  N        -32.9710   -8.8900   17.8760 N.am  325  ARG325     -0.1965
     16  CA       -31.7430   -8.5650   18.5970 C.3   325  ARG325      0.1729
     17  C        -31.3030   -7.1260   18.3630 C.2   325  ARG325      0.2616
     18  O        -30.2160   -6.8770   17.8430 O.2   325  ARG325     -0.2715
     19  CB       -30.6220   -9.5320   18.2150 C.3   325  ARG325      0.0348
     20  CG       -30.9390  -10.9920   18.5020 C.3   325  ARG325      0.0492
     21  CD       -30.2330  -11.8700   17.5330 C.3   325  ARG325      0.2205
     22  NE       -30.1770  -11.2950   16.1920 N.pl3 325  ARG325     -0.0865
     23  CZ       -29.1880  -11.5840   15.3360 C.cat 325  ARG325      0.5346
     24  NH1      -28.1570  -12.3660   15.6750 N.pl3 325  ARG325      0.1354
     25  NH2      -29.2270  -11.0870   14.0990 N.pl3 325  ARG325      0.1354
     26  N        -32.1530   -6.1830   18.7550 N.am  326  LYS326     -0.1963
     27  CA       -31.8780   -4.7690   18.5300 C.3   326  LYS326      0.1728
     28  C        -31.8290   -3.9530   19.8200 C.2   326  LYS326      0.2617
     29  O        -31.1430   -2.9330   19.8860 O.2   326  LYS326     -0.2715
     30  CB       -32.9020   -4.1760   17.5650 C.3   326  LYS326      0.0311
     31  CG       -32.6870   -4.5720   16.1150 C.3   326  LYS326      0.0038
     32  CD       -31.3430   -4.0780   15.6030 C.3   326  LYS326      0.0206
     33  CE       -31.2300   -4.2520   14.0970 C.3   326  LYS326      0.1093
     34  NZ       -32.2400   -3.4410   13.3560 N.3   326  LYS326     -0.1314
     35  N        -32.5590   -4.3990   20.8390 N.am  327  GLY327     -0.1940
     36  CA       -32.5460   -3.7400   22.1350 C.3   327  GLY327      0.2014
     37  C        -33.9060   -3.6250   22.7970 C.2   327  GLY327      0.2639
     38  O        -34.0820   -2.8330   23.7220 O.2   327  GLY327     -0.2714
     39  N        -34.8650   -4.4180   22.3310 N.am  328  LYS328     -0.1963
     40  CA       -36.2340   -4.3490   22.8370 C.3   328  LYS328      0.1728
     41  C        -36.3330   -4.6470   24.3320 C.2   328  LYS328      0.2617
     42  O        -36.9240   -3.8720   25.0850 O.2   328  LYS328     -0.2715
     43  CB       -37.1500   -5.2920   22.0550 C.3   328  LYS328      0.0311
     44  CG       -37.2310   -4.9900   20.5690 C.3   328  LYS328      0.0038
     45  CD       -38.3900   -5.7270   19.9250 C.3   328  LYS328      0.0206
     46  CE       -38.2650   -7.2280   20.1210 C.3   328  LYS328      0.1093
     47  NZ       -37.0540   -7.7810   19.4540 N.3   328  LYS328     -0.1314
     48  N        -35.7570   -5.7670   24.7570 N.am  329  THR329     -0.1937
     49  CA       -35.8040   -6.1650   26.1600 C.3   329  THR329      0.2028
     50  C        -35.0670   -5.1600   27.0390 C.2   329  THR329      0.2642
     51  O        -35.5040   -4.8550   28.1490 O.2   329  THR329     -0.2714
     52  CB       -35.2140   -7.5760   26.3700 C.3   329  THR329      0.1808
     53  OG1      -35.9720   -8.5300   25.6150 O.3   329  THR329     -0.2208
     54  CG2      -35.2470   -7.9630   27.8420 C.3   329  THR329      0.0379
     55  N        -33.9580   -4.6340   26.5280 N.am  330  ASN330     -0.1971
     56  CA       -33.1590   -3.6680   27.2720 C.3   330  ASN330      0.1688
     57  C        -33.9020   -2.3590   27.5220 C.2   330  ASN330      0.2292
     58  O        -33.8010   -1.7780   28.6020 O.2   330  ASN330     -0.2864
     59  CB       -31.8380   -3.3970   26.5560 C.3   330  ASN330      0.1181
     60  CG       -30.9780   -2.3890   27.2900 C.2   330  ASN330      0.2629
     61  OD1      -30.3020   -2.7250   28.2610 O.2   330  ASN330     -0.2716
     62  ND2      -31.0000   -1.1440   26.8280 N.am  330  ASN330     -0.0877
     63  N        -36.1480   -2.8140   30.2970 N.3   333  LYS333     -0.1245
     64  CA       -35.3920   -2.7210   31.5420 C.3   333  LYS333      0.1561
     65  C        -35.2120   -1.2670   31.9640 C.2   333  LYS333      0.2260
     66  O        -35.3240   -0.9370   33.1430 O.2   333  LYS333     -0.2867
     67  CB       -34.0200   -3.3890   31.4090 C.3   333  LYS333      0.0271
     68  CG       -34.0550   -4.8750   31.0810 C.3   333  LYS333      0.0035
     69  CD       -32.7170   -5.5230   31.4130 C.3   333  LYS333      0.0206
     70  CE       -32.5920   -6.9170   30.8150 C.3   333  LYS333      0.1093
     71  NZ       -32.3620   -6.8730   29.3420 N.3   333  LYS333     -0.1314
     72  N        -38.1190  -15.7920   25.7820 N.3   354  ASP354     -0.1239
     73  CA       -36.7780  -16.0780   26.2840 C.3   354  ASP354      0.1674
     74  C        -36.6510  -15.9570   27.8030 C.2   354  ASP354      0.2266
     75  O        -35.6360  -16.3560   28.3750 O.2   354  ASP354     -0.2867
     76  CB       -35.7570  -15.1620   25.6060 C.3   354  ASP354      0.1410
     77  CG       -35.8040  -15.2560   24.0940 C.2   354  ASP354      0.3668
     78  OD1      -36.0640  -16.3620   23.5740 O.co2 354  ASP354     -0.2456
     79  OD2      -35.5860  -14.2220   23.4260 O.co2 354  ASP354     -0.2456
     80  N        -43.2950   -7.3810   27.5000 N.3   407  ASP407     -0.1239
     81  CA       -41.9940   -7.5160   26.8540 C.3   407  ASP407      0.1674
     82  C        -42.1260   -8.0550   25.4340 C.2   407  ASP407      0.2266
     83  O        -41.3150   -7.7380   24.5630 O.2   407  ASP407     -0.2867
     84  CB       -41.0790   -8.4250   27.6750 C.3   407  ASP407      0.1410
     85  CG       -39.7140   -8.6060   27.0380 C.2   407  ASP407      0.3668
     86  OD1      -38.8150   -7.7810   27.3050 O.co2 407  ASP407     -0.2456
     87  OD2      -39.5420   -9.5750   26.2680 O.co2 407  ASP407     -0.2456
     88  N        -41.4790   -6.7720   17.9110 N.3   440  ASN440     -0.1240
     89  CA       -41.0300   -6.4260   16.5680 C.3   440  ASN440      0.1653
     90  C        -42.1030   -5.6700   15.7890 C.2   440  ASN440      0.2266
     91  O        -43.2860   -5.7490   16.1150 O.2   440  ASN440     -0.2867
     92  CB       -40.5860   -7.6770   15.8080 C.3   440  ASN440      0.1155
     93  CG       -39.3470   -8.3120   16.4100 C.2   440  ASN440      0.2627
     94  OD1      -38.4520   -7.6180   16.8910 O.2   440  ASN440     -0.2716
     95  ND2      -39.2920   -9.6390   16.3890 N.am  440  ASN440     -0.0877
     96  N        -27.7040   -2.3850   18.7810 N.3   486  PRO486     -0.2102
     97  CA       -27.9390   -2.3470   20.2300 C.3   486  PRO486      0.1504
     98  C        -27.1740   -1.2260   20.9270 C.2   486  PRO486      0.2576
     99  O        -25.9440   -1.2400   20.9690 O.2   486  PRO486     -0.2718
    100  CB       -27.4260   -3.7100   20.6930 C.3   486  PRO486      0.0282
    101  CG       -27.6910   -4.6020   19.5360 C.3   486  PRO486      0.0208
    102  CD       -27.4680   -3.7620   18.3050 C.3   486  PRO486      0.0893
    103  N        -27.9130   -0.2590   21.4630 N.am  487  GLY487     -0.1957
    104  CA       -27.3170    0.8960   22.1070 C.3   487  GLY487      0.1869
    105  C        -27.8710    2.1900   21.5450 C.2   487  GLY487      0.2309
    106  O        -27.6570    3.2640   22.1060 O.2   487  GLY487     -0.2863
    107  N        -29.3930    4.6790   23.7890 N.3   502  ILE502     -0.1231
    108  CA       -30.0480    3.9890   24.8920 C.3   502  ILE502      0.1678
    109  C        -29.0190    3.3400   25.8120 C.2   502  ILE502      0.2434
    110  O        -28.1650    2.5830   25.3530 O.2   502  ILE502     -0.2733
    111  CB       -31.0280    2.9220   24.3710 C.3   502  ILE502      0.0265
    112  CG1      -31.9650    3.5350   23.3270 C.3   502  ILE502      0.0019
    113  CG2      -31.8160    2.3110   25.5180 C.3   502  ILE502      0.0020
    114  CD1      -32.9290    2.5450   22.7110 C.3   502  ILE502      0.0001
    115  N        -29.0930    3.6430   27.1180 N.am  503  PRO503     -0.2718
    116  CA       -28.1530    3.0910   28.0990 C.3   503  PRO503      0.1535
    117  C        -28.3000    1.5810   28.2350 C.2   503  PRO503      0.2598
    118  O        -29.3920    1.0500   28.0310 O.2   503  PRO503     -0.2715
    119  CB       -28.5650    3.7790   29.4040 C.3   503  PRO503      0.0310
    120  CG       -29.9900    4.1620   29.1970 C.3   503  PRO503      0.0237
    121  CD       -30.0920    4.5230   27.7480 C.3   503  PRO503      0.0939
    122  N        -27.2090    0.9010   28.5720 N.am  504  LYS504     -0.1978
    123  CA       -27.2420   -0.5450   28.7570 C.3   504  LYS504      0.1596
    124  C        -27.4680   -0.9090   30.2180 C.2   504  LYS504      0.2287
    125  O        -26.6360   -0.6170   31.0770 O.2   504  LYS504     -0.2864
    126  CB       -25.9560   -1.1930   28.2380 C.3   504  LYS504      0.0298
    127  CG       -25.8570   -2.6860   28.5220 C.3   504  LYS504      0.0038
    128  CD       -24.9050   -3.3690   27.5520 C.3   504  LYS504      0.0206
    129  CE       -24.7500   -4.8490   27.8690 C.3   504  LYS504      0.1093
    130  NZ       -23.9740   -5.0710   29.1240 N.3   504  LYS504     -0.1314
@<TRIPOS>BOND
     1    34    33    1
     2    33    32    1
     3    25    23    1
     4    14    13    1
     5    13    10    1
     6     9    10    1
     7    23    24    1
     8    23    22    2
     9    32    31    1
    10    90    91    2
    11    90    89    1
    12    92    93    1
    13    92    89    1
    14    12    11    2
    15    10    11    1
    16    31    30    1
    17    22    21    1
    18    95    93   am
    19    93    94    2
    20    11    15   am
    21    89    88    1
    22    21    20    1
    23    30    27    1
    24    18    17    2
    25    15    16    1
    26    19    20    1
    27    19    16    1
    28   102    96    1
    29   102   101    1
    30    17    16    1
    31    17    26   am
    32    27    26    1
    33    27    28    1
    34    96    97    1
    35    47    46    1
    36   101   100    1
    37    28    29    2
    38    28    35   am
    39    45    46    1
    40    45    44    1
    41    97   100    1
    42    97    98    1
    43    44    43    1
    44    35    36    1
    45    98    99    2
    46    98   103   am
    47   103   104    1
    48   105   106    2
    49   105   104    1
    50    43    40    1
    51    36    37    1
    52    39    37   am
    53    39    40    1
    54   114   112    1
    55    37    38    2
    56    40    41    1
    57   112   111    1
    58    79    77   ar
    59    78    77   ar
    60   107   108    1
    61    77    76    1
    62    41    48   am
    63    41    42    2
    64   111   108    1
    65   111   113    1
    66    83    82    2
    67    48    49    1
    68   108   109    1
    69   110   109    2
    70    82    81    1
    71    76    73    1
    72    53    52    1
    73    72    73    1
    74   109   115   am
    75    49    52    1
    76    49    50    1
    77    87    85   ar
    78    73    74    1
    79    52    54    1
    80    55    50   am
    81    55    56    1
    82    59    56    1
    83    59    60    1
    84    62    60   am
    85    81    80    1
    86    81    84    1
    87    85    86   ar
    88    85    84    1
    89    50    51    2
    90     1     2    1
    91   115   121    1
    92   115   116    1
    93     5     2    1
    94     5     6    1
    95    56    57    1
    96     8     6    1
    97    60    61    2
    98    57    58    2
    99   128   129    1
   100   128   127    1
   101   121   120    1
   102    74    75    2
   103   129   130    1
   104     2     3    1
   105   118   117    2
   106   116   117    1
   107   116   119    1
   108     6     7    1
   109   117   122   am
   110   126   127    1
   111   126   123    1
   112     4     3    2
   113   122   123    1
   114   123   124    1
   115   120   119    1
   116    71    70    1
   117   124   125    2
   118    63    64    1
   119    70    69    1
   120    68    67    1
   121    68    69    1
   122    67    64    1
   123    64    65    1
   124    65    66    2
