@<TRIPOS>MOLECULE
tmp/4lyaA00.pdb
 162 158 0 0 0
SMALL
GASTEIGER

@<TRIPOS>ATOM
      1  N         20.0930   30.5360   10.8400 N.3     6  PRO6       -0.2102
      2  CA        19.1960   29.4180   10.5270 C.3     6  PRO6        0.1504
      3  C         18.2980   29.0010   11.6930 C.2     6  PRO6        0.2576
      4  O         17.2210   28.4530   11.4550 O.2     6  PRO6       -0.2718
      5  CB        20.1680   28.2880   10.1780 C.3     6  PRO6        0.0282
      6  CG        21.3770   28.5860   10.9890 C.3     6  PRO6        0.0208
      7  CD        21.4820   30.0870   11.0470 C.3     6  PRO6        0.0893
      8  N         18.7320   29.2460   12.9260 N.am    7  ARG7       -0.1966
      9  CA        17.9510   28.8480   14.0970 C.3     7  ARG7        0.1729
     10  C         17.8300   29.9620   15.1350 C.2     7  ARG7        0.2616
     11  O         18.8330   30.5060   15.5960 O.2     7  ARG7       -0.2715
     12  CB        18.5410   27.5880   14.7420 C.3     7  ARG7        0.0348
     13  CG        18.6990   26.4150   13.7850 C.3     7  ARG7        0.0492
     14  CD        19.1170   25.1420   14.5040 C.3     7  ARG7        0.2205
     15  NE        17.9740   24.3810   15.0010 N.pl3   7  ARG7       -0.0865
     16  CZ        17.6400   24.2780   16.2830 C.cat   7  ARG7        0.5346
     17  NH1       18.3700   24.8820   17.2110 N.pl3   7  ARG7        0.1354
     18  NH2       16.5810   23.5620   16.6370 N.pl3   7  ARG7        0.1354
     19  N         16.5930   30.2920   15.4970 N.am    8  LEU8       -0.1977
     20  CA        16.3220   31.3000   16.5170 C.3     8  LEU8        0.1596
     21  C         15.1300   30.8970   17.3800 C.2     8  LEU8        0.2287
     22  O         14.0710   30.5410   16.8630 O.2     8  LEU8       -0.2864
     23  CB        16.0520   32.6630   15.8760 C.3     8  LEU8        0.0297
     24  CG        17.2390   33.4270   15.2900 C.3     8  LEU8        0.0022
     25  CD1       16.7650   34.7410   14.6890 C.3     8  LEU8        0.0001
     26  CD2       18.3020   33.6730   16.3490 C.3     8  LEU8        0.0001
     27  N          6.9880   24.4210    0.8450 N.3    52  SER52      -0.1202
     28  CA         7.1800   23.0170    0.5030 C.3    52  SER52       0.2020
     29  C          7.4070   22.1790    1.7570 C.2    52  SER52       0.2619
     30  O          7.6010   22.7150    2.8480 O.2    52  SER52      -0.2717
     31  CB         8.3530   22.8540   -0.4640 C.3    52  SER52       0.2103
     32  OG         8.0610   23.4390   -1.7210 O.3    52  SER52      -0.2182
     33  N          7.3830   20.8610    1.5900 N.am   53  ALA53      -0.1965
     34  CA         7.5430   19.9350    2.7060 C.3    53  ALA53       0.1728
     35  C          8.9180   20.0520    3.3620 C.2    53  ALA53       0.2617
     36  O          9.9470   19.9920    2.6880 O.2    53  ALA53      -0.2715
     37  CB         7.3020   18.5100    2.2380 C.3    53  ALA53       0.0334
     38  N          8.9250   20.2260    4.6810 N.am   54  GLY54      -0.1940
     39  CA        10.1580   20.2400    5.4470 C.3    54  GLY54       0.2014
     40  C         10.7620   21.6170    5.6570 C.2    54  GLY54       0.2639
     41  O         11.8890   21.7380    6.1400 O.2    54  GLY54      -0.2714
     42  N         10.0180   22.6600    5.3040 N.am   55  TYR55      -0.1959
     43  CA        10.5370   24.0190    5.4280 C.3    55  TYR55       0.1771
     44  C          9.8620   24.8390    6.5300 C.2    55  TYR55       0.2620
     45  O         10.0210   26.0590    6.5920 O.2    55  TYR55      -0.2715
     46  CB        10.5050   24.7400    4.0770 C.3    55  TYR55       0.0574
     47  CG        11.5030   24.1750    3.0880 C.ar   55  TYR55      -0.0198
     48  CD1       12.8540   24.4850    3.1840 C.ar   55  TYR55      -0.0009
     49  CD2       11.0980   23.3220    2.0700 C.ar   55  TYR55      -0.0009
     50  CE1       13.7730   23.9670    2.2910 C.ar   55  TYR55       0.0417
     51  CE2       12.0110   22.7980    1.1700 C.ar   55  TYR55       0.0417
     52  CZ        13.3470   23.1240    1.2860 C.ar   55  TYR55       0.1957
     53  OH        14.2580   22.6050    0.3940 O.3    55  TYR55      -0.2866
     54  N          9.1130   24.1620    7.3960 N.am   56  GLY56      -0.1940
     55  CA         8.6810   24.7510    8.6520 C.3    56  GLY56       0.2014
     56  C          7.2470   25.2360    8.7830 C.2    56  GLY56       0.2639
     57  O          6.9700   26.1050    9.6100 O.2    56  GLY56      -0.2714
     58  N          6.3340   24.6780    7.9950 N.am   57  LYS57      -0.1963
     59  CA         4.9330   25.0930    8.0570 C.3    57  LYS57       0.1728
     60  C          4.2960   24.8120    9.4160 C.2    57  LYS57       0.2617
     61  O          3.7200   25.7060   10.0360 O.2    57  LYS57      -0.2715
     62  CB         4.1130   24.4320    6.9480 C.3    57  LYS57       0.0311
     63  CG         4.3550   25.0080    5.5650 C.3    57  LYS57       0.0038
     64  CD         3.3900   24.4160    4.5520 C.3    57  LYS57       0.0206
     65  CE         3.5390   22.9070    4.4660 C.3    57  LYS57       0.1093
     66  NZ         4.9260   22.5130    4.0960 N.3    57  LYS57      -0.1314
     67  N          4.4030   23.5700    9.8780 N.am   58  SER58      -0.1936
     68  CA         3.8070   23.1860   11.1530 C.3    58  SER58       0.2055
     69  C          4.5750   23.7830   12.3290 C.2    58  SER58       0.2644
     70  O          4.0000   24.0360   13.3860 O.2    58  SER58      -0.2714
     71  CB         3.7380   21.6630   11.2840 C.3    58  SER58       0.2130
     72  OG         5.0340   21.0940   11.3200 O.3    58  SER58      -0.2179
     73  N          5.8720   24.0070   12.1400 N.am   59  THR59      -0.1936
     74  CA         6.7110   24.5930   13.1810 C.3    59  THR59       0.2028
     75  C          6.2950   26.0320   13.4710 C.2    59  THR59       0.2642
     76  O          6.2810   26.4650   14.6240 O.2    59  THR59      -0.2714
     77  CB         8.2040   24.5540   12.7900 C.3    59  THR59       0.1808
     78  OG1        8.5930   23.2030   12.5110 O.3    59  THR59      -0.2208
     79  CG2        9.0710   25.1010   13.9140 C.3    59  THR59       0.0379
     80  N          5.9530   26.7660   12.4170 N.am   60  THR60      -0.1950
     81  CA         5.4850   28.1410   12.5550 C.3    60  THR60       0.1897
     82  C          4.1590   28.1770   13.3090 C.2    60  THR60       0.2313
     83  O          3.9420   29.0380   14.1640 O.2    60  THR60      -0.2863
     84  CB         5.3120   28.8180   11.1790 C.3    60  THR60       0.1794
     85  OG1        6.5710   28.8440   10.4950 O.3    60  THR60      -0.2208
     86  CG2        4.7970   30.2410   11.3350 C.3    60  THR60       0.0378
     87  N          0.9860   16.4490   13.3240 N.3    86  ALA86      -0.1245
     88  CA         1.9640   17.5010   13.5780 C.3    86  ALA86       0.1562
     89  C          1.5340   18.3980   14.7350 C.2    86  ALA86       0.2260
     90  O          2.3730   18.9400   15.4550 O.2    86  ALA86      -0.2867
     91  CB         2.1960   18.3270   12.3210 C.3    86  ALA86       0.0290
     92  N         -4.0640   22.2150   10.1250 N.3   150  ASP150     -0.1239
     93  CA        -2.8300   21.7850    9.4840 C.3   150  ASP150      0.1674
     94  C         -3.1530   21.0040    8.2160 C.2   150  ASP150      0.2266
     95  O         -4.0870   20.2000    8.1990 O.2   150  ASP150     -0.2867
     96  CB        -2.0020   20.9230   10.4380 C.3   150  ASP150      0.1410
     97  CG        -0.6190   20.6160    9.8960 C.2   150  ASP150      0.3668
     98  OD1       -0.0290   21.4960    9.2350 O.co2 150  ASP150     -0.2456
     99  OD2       -0.1240   19.4940   10.1320 O.co2 150  ASP150     -0.2456
    100  N          0.4330   23.2300    1.4220 N.3   183  THR183     -0.1218
    101  CA         1.5530   22.9560    0.5320 C.3   183  THR183      0.1862
    102  C          1.2230   23.4030   -0.8880 C.2   183  THR183      0.2287
    103  O          1.8130   24.3520   -1.4060 O.2   183  THR183     -0.2866
    104  CB         1.9000   21.4580    0.5170 C.3   183  THR183      0.1770
    105  OG1        2.0850   20.9940    1.8590 O.3   183  THR183     -0.2211
    106  CG2        3.1720   21.2130   -0.2820 C.3   183  THR183      0.0375
    107  N         14.8890   25.9860    6.3390 N.3   224  PRO224     -0.2102
    108  CA        13.6860   25.7880    7.1570 C.3   224  PRO224      0.1504
    109  C         13.4890   26.9170    8.1630 C.2   224  PRO224      0.2576
    110  O         14.3620   27.1560    8.9970 O.2   224  PRO224     -0.2718
    111  CB        13.9780   24.4780    7.8940 C.3   224  PRO224      0.0282
    112  CG        14.9490   23.7620    7.0200 C.3   224  PRO224      0.0208
    113  CD        15.8030   24.8320    6.4110 C.3   224  PRO224      0.0893
    114  N         12.3520   27.6010    8.0760 N.am  225  GLY225     -0.1957
    115  CA        12.0610   28.7150    8.9580 C.3   225  GLY225      0.1869
    116  C         12.1460   30.0520    8.2500 C.2   225  GLY225      0.2309
    117  O         11.5340   31.0310    8.6760 O.2   225  GLY225     -0.2863
    118  N         13.2570   35.2060    9.4900 N.3   238  GLN238     -0.1231
    119  CA        13.5200   33.8650    9.9900 C.3   238  GLN238      0.1698
    120  C         12.5880   33.5860   11.1630 C.2   238  GLN238      0.2592
    121  O         12.7480   34.1570   12.2430 O.2   238  GLN238     -0.2718
    122  CB        14.9770   33.7190   10.4290 C.3   238  GLN238      0.0381
    123  CG        15.3160   32.3470   10.9890 C.3   238  GLN238      0.0905
    124  CD        15.1930   31.2450    9.9530 C.2   238  GLN238      0.2608
    125  OE1       15.2960   31.4920    8.7510 O.2   238  GLN238     -0.2717
    126  NE2       14.9680   30.0200   10.4170 N.am  238  GLN238     -0.0878
    127  N         11.6070   32.7160   10.9380 N.am  239  ILE239     -0.1966
    128  CA        10.5990   32.4050   11.9460 C.3   239  ILE239      0.1727
    129  C         11.2230   31.7710   13.1870 C.2   239  ILE239      0.2616
    130  O         12.0930   30.9060   13.0850 O.2   239  ILE239     -0.2715
    131  CB         9.5070   31.4720   11.3790 C.3   239  ILE239      0.0290
    132  CG1        8.8500   32.1030   10.1500 C.3   239  ILE239      0.0022
    133  CG2        8.4530   31.1700   12.4320 C.3   239  ILE239      0.0023
    134  CD1        8.1490   33.4140   10.4340 C.3   239  ILE239      0.0001
    135  N         10.7770   32.2160   14.3580 N.am  240  TYR240     -0.1960
    136  CA        11.2850   31.7050   15.6250 C.3   240  TYR240      0.1771
    137  C         10.8530   30.2660   15.8840 C.2   240  TYR240      0.2619
    138  O          9.7860   29.8370   15.4450 O.2   240  TYR240     -0.2715
    139  CB        10.8280   32.5950   16.7820 C.3   240  TYR240      0.0574
    140  CG        11.5010   33.9470   16.8230 C.ar  240  TYR240     -0.0198
    141  CD1       12.8010   34.1110   16.3630 C.ar  240  TYR240     -0.0009
    142  CD2       10.8360   35.0600   17.3190 C.ar  240  TYR240     -0.0009
    143  CE1       13.4220   35.3430   16.3980 C.ar  240  TYR240      0.0417
    144  CE2       11.4500   36.3000   17.3590 C.ar  240  TYR240      0.0417
    145  CZ        12.7430   36.4340   16.8950 C.ar  240  TYR240      0.1957
    146  OH        13.3650   37.6600   16.9280 O.3   240  TYR240     -0.2866
    147  N         11.6960   29.5290   16.5990 N.am  241  LEU241     -0.1977
    148  CA        11.3730   28.1710   17.0150 C.3   241  LEU241      0.1596
    149  C         10.4490   28.2080   18.2310 C.2   241  LEU241      0.2287
    150  O         10.5210   29.1380   19.0320 O.2   241  LEU241     -0.2864
    151  CB        12.6560   27.3970   17.3300 C.3   241  LEU241      0.0297
    152  CG        13.4930   26.9860   16.1170 C.3   241  LEU241      0.0022
    153  CD1       14.8740   26.5210   16.5490 C.3   241  LEU241      0.0001
    154  CD2       12.7830   25.8950   15.3270 C.3   241  LEU241      0.0001
    155  N         15.8180   18.9800   17.2940 N.3   248  ASP248     -0.1239
    156  CA        14.3660   18.8070   17.2830 C.3   248  ASP248      0.1674
    157  C         13.8060   18.2270   18.5790 C.2   248  ASP248      0.2266
    158  O         12.8580   18.7680   19.1510 O.2   248  ASP248     -0.2867
    159  CB        13.9480   17.9280   16.1020 C.3   248  ASP248      0.1410
    160  CG        14.1030   18.6330   14.7690 C.2   248  ASP248      0.3668
    161  OD1       14.2570   19.8710   14.7670 O.co2 248  ASP248     -0.2456
    162  OD2       14.0740   17.9480   13.7240 O.co2 248  ASP248     -0.2456
@<TRIPOS>BOND
     1    32    31    1
     2   103   102    2
     3   102   101    1
     4    31    28    1
     5   106   104    1
     6    53    52    1
     7    28    27    1
     8    28    29    1
     9   104   101    1
    10   104   105    1
    11   101   100    1
    12    51    52   ar
    13    51    49   ar
    14    52    50   ar
    15    33    29   am
    16    33    34    1
    17    29    30    2
    18    49    47   ar
    19    37    34    1
    20    50    48   ar
    21    36    35    2
    22    34    35    1
    23    47    48   ar
    24    47    46    1
    25    35    38   am
    26    46    43    1
    27    66    65    1
    28    65    64    1
    29    64    63    1
    30    38    39    1
    31    42    43    1
    32    42    40   am
    33    43    44    1
    34    39    40    1
    35    63    62    1
    36    40    41    2
    37   107   113    1
    38   107   108    1
    39   113   112    1
    40    44    45    2
    41    44    54   am
    42    62    59    1
    43   112   111    1
    44   108   111    1
    45   108   109    1
    46    54    55    1
    47    58    59    1
    48    58    56   am
    49    59    60    1
    50   114   109   am
    51   114   115    1
    52   109   110    2
    53    95    94    2
    54    94    93    1
    55   116   117    2
    56   116   115    1
    57    55    56    1
    58   125   124    2
    59    56    57    2
    60    98    97   ar
    61    60    67   am
    62    60    61    2
    63    93    92    1
    64    93    96    1
    65   118   119    1
    66    67    68    1
    67    97    99   ar
    68    97    96    1
    69   124   126   am
    70   124   123    1
    71   119   122    1
    72   119   120    1
    73   132   134    1
    74   132   131    1
    75     5     2    1
    76     5     6    1
    77   122   123    1
    78    85    84    1
    79     2     1    1
    80     2     3    1
    81     1     7    1
    82   127   120   am
    83   127   128    1
    84     6     7    1
    85    68    71    1
    86    68    69    1
    87   120   121    2
    88    84    86    1
    89    84    81    1
    90    71    72    1
    91   131   128    1
    92   131   133    1
    93     4     3    2
    94     3     8   am
    95   128   129    1
    96    73    69   am
    97    73    74    1
    98    91    88    1
    99    69    70    2
   100    80    81    1
   101    80    75   am
   102    78    77    1
   103    81    82    1
   104    77    74    1
   105    77    79    1
   106     8     9    1
   107   130   129    2
   108    74    75    1
   109   129   135   am
   110    82    83    2
   111    87    88    1
   112    75    76    2
   113    88    89    1
   114   162   160   ar
   115    13    14    1
   116    13    12    1
   117     9    12    1
   118     9    10    1
   119   135   136    1
   120    14    15    1
   121    25    24    1
   122    89    90    2
   123   161   160   ar
   124   160   159    1
   125    15    16    2
   126    10    19   am
   127    10    11    2
   128    24    23    1
   129    24    26    1
   130   154   152    1
   131   138   137    2
   132    19    20    1
   133   136   137    1
   134   136   139    1
   135    23    20    1
   136   137   147   am
   137   159   156    1
   138   152   153    1
   139   152   151    1
   140    16    18    1
   141    16    17    1
   142   141   143   ar
   143   141   140   ar
   144   143   145   ar
   145    20    21    1
   146   147   148    1
   147   139   140    1
   148   140   142   ar
   149    22    21    2
   150   145   146    1
   151   145   144   ar
   152   148   151    1
   153   148   149    1
   154   156   155    1
   155   156   157    1
   156   142   144   ar
   157   149   150    2
   158   157   158    2
