@<TRIPOS>MOLECULE
tmp/4lyfB00.pdb
 131 124 0 0 0
SMALL
GASTEIGER

@<TRIPOS>ATOM
      1  N          8.2810   16.8860   15.2500 N.3     7  VAL7       -0.1231
      2  CA         8.1220   15.9360   16.3460 C.3     7  VAL7        0.1692
      3  C          9.3250   15.0010   16.4000 C.2     7  VAL7        0.2592
      4  O          9.7330   14.4420   15.3900 O.2     7  VAL7       -0.2718
      5  CB         6.8430   15.1010   16.2150 C.3     7  VAL7        0.0266
      6  CG1        6.6820   14.1760   17.4200 C.3     7  VAL7        0.0020
      7  CG2        5.6330   15.9980   16.0910 C.3     7  VAL7        0.0020
      8  N          9.9120   14.8720   17.5840 N.am    8  VAL8       -0.1966
      9  CA        11.0680   14.0300   17.8050 C.3     8  VAL8        0.1727
     10  C         10.5600   12.7430   18.4350 C.2     8  VAL8        0.2616
     11  O          9.9440   12.7670   19.4900 O.2     8  VAL8       -0.2715
     12  CB        12.1040   14.7500   18.7190 C.3     8  VAL8        0.0290
     13  CG1       13.3790   13.9100   18.8840 C.3     8  VAL8        0.0023
     14  CG2       12.4610   16.1240   18.1480 C.3     8  VAL8        0.0023
     15  N         10.7930   11.6090   17.7650 N.am    9  VAL9       -0.1963
     16  CA        10.3300   10.3130   18.2470 C.3     9  VAL9        0.1727
     17  C         11.5120    9.3650   18.4190 C.2     9  VAL9        0.2616
     18  O         12.5910    9.5770   17.8610 O.2     9  VAL9       -0.2715
     19  CB         9.2230    9.6710   17.3360 C.3     9  VAL9        0.0290
     20  CG1        8.1000   10.6450   17.0320 C.3     9  VAL9        0.0023
     21  CG2        9.7950    9.1480   16.0410 C.3     9  VAL9        0.0023
     22  N         11.2970    8.3210   19.1960 N.am   10  GLY10      -0.1955
     23  CA        12.3240    7.3560   19.4950 C.3    10  GLY10       0.1869
     24  C         12.1180    6.8040   20.8790 C.2    10  GLY10       0.2309
     25  O         11.3180    7.3250   21.6590 O.2    10  GLY10      -0.2863
     26  N         12.4730    5.6880   24.7680 N.3    12  CYS12      -0.1235
     27  CA        12.7820    6.4090   25.9830 C.3    12  CYS12       0.1677
     28  C         14.3040    6.4270   26.1960 C.2    12  CYS12       0.2270
     29  O         14.9740    5.4030   26.0750 O.2    12  CYS12      -0.2867
     30  CB        12.1070    5.7270   27.1660 C.3    12  CYS12       0.0956
     31  SG        11.6600    6.8300   28.5310 S.3    12  CYS12      -0.0801
     32  N         16.1480   12.5220   23.0370 N.3    16  LYS16      -0.1245
     33  CA        15.2850   13.4190   22.2840 C.3    16  LYS16       0.1561
     34  C         15.1860   14.7900   22.9370 C.2    16  LYS16       0.2260
     35  O         15.3500   15.8060   22.2660 O.2    16  LYS16      -0.2867
     36  CB        13.9050   12.7910   22.1340 C.3    16  LYS16       0.0271
     37  CG        13.9730   11.4200   21.4960 C.3    16  LYS16       0.0035
     38  CD        12.5930   10.8310   21.2240 C.3    16  LYS16       0.0206
     39  CE        11.7920   10.5520   22.4780 C.3    16  LYS16       0.1093
     40  NZ        12.4550    9.6300   23.4300 N.3    16  LYS16      -0.1314
     41  N          6.0070   16.9470   23.8670 N.3    49  THR49      -0.1218
     42  CA         5.1930   15.7540   24.0440 C.3    49  THR49       0.1862
     43  C          5.3870   15.1180   25.4200 C.2    49  THR49       0.2287
     44  O          4.7810   14.1000   25.7310 O.2    49  THR49      -0.2866
     45  CB         5.5190   14.7200   22.9460 C.3    49  THR49       0.1770
     46  OG1        6.8700   14.2550   23.0950 O.3    49  THR49      -0.2211
     47  CG2        5.3380   15.3440   21.5630 C.3    49  THR49       0.0375
     48  N          5.1810   13.8750   29.0930 N.3    51  GLY51      -0.1225
     49  CA         4.0370   13.6020   29.9400 C.3    51  GLY51       0.1811
     50  C          2.9040   12.9570   29.1680 C.2    51  GLY51       0.2280
     51  O          2.3410   11.9550   29.6060 O.2    51  GLY51      -0.2866
     52  N          3.0170   11.7600   25.9080 N.3    53  GLU53      -0.1231
     53  CA         3.4160   10.7840   24.8850 C.3    53  GLU53       0.1699
     54  C          3.2370    9.3300   25.3220 C.2    53  GLU53       0.2592
     55  O          3.3260    8.4070   24.5120 O.2    53  GLU53      -0.2718
     56  CB         4.8720   11.0090   24.4730 C.3    53  GLU53       0.0402
     57  CG         5.8670   10.8210   25.5990 C.3    53  GLU53       0.1161
     58  CD         7.2970   10.9740   25.1410 C.2    53  GLU53       0.3649
     59  OE1        8.1610   10.1960   25.6120 O.co2  53  GLU53      -0.2457
     60  OE2        7.5560   11.8740   24.3150 O.co2  53  GLU53      -0.2457
     61  N          2.9910    9.1130   26.6020 N.am   54  GLU54      -0.1979
     62  CA         2.8160    7.7570   27.0890 C.3    54  GLU54       0.1602
     63  C          1.4730    7.1930   26.6200 C.2    54  GLU54       0.2287
     64  O          1.2900    5.9770   26.5770 O.2    54  GLU54      -0.2864
     65  CB         2.8990    7.7370   28.6120 C.3    54  GLU54       0.0415
     66  CG         1.7970    8.5390   29.2880 C.3    54  GLU54       0.1163
     67  CD         2.0230    8.7020   30.7730 C.2    54  GLU54       0.3649
     68  OE1        1.3220    8.0240   31.5540 O.co2  54  GLU54      -0.2457
     69  OE2        2.8990    9.5110   31.1550 O.co2  54  GLU54      -0.2457
     70  N         -0.1660   10.3030   21.2520 N.3    59  ARG59      -0.1245
     71  CA         0.8530   10.0930   20.2300 C.3    59  ARG59       0.1563
     72  C          0.2270   10.2330   18.8470 C.2    59  ARG59       0.2260
     73  O          0.8000   10.8720   17.9730 O.2    59  ARG59      -0.2867
     74  CB         1.5570    8.7430   20.3810 C.3    59  ARG59       0.0307
     75  CG         2.4050    8.6310   21.6460 C.3    59  ARG59       0.0489
     76  CD         3.4030    7.4650   21.5800 C.3    59  ARG59       0.2205
     77  NE         2.7710    6.1460   21.4460 N.pl3  59  ARG59      -0.0865
     78  CZ         2.3440    5.3990   22.4640 C.cat  59  ARG59       0.5346
     79  NH1        2.4320    5.8400   23.7110 N.pl3  59  ARG59       0.1354
     80  NH2        1.8050    4.2080   22.2340 N.pl3  59  ARG59       0.1354
     81  N         -0.2780   13.9090   18.1580 N.3    62  TYR62      -0.1227
     82  CA         0.9700   14.5780   17.8180 C.3    62  TYR62       0.1736
     83  C          1.4540   14.2090   16.4280 C.2    62  TYR62       0.2595
     84  O          1.9600   15.0610   15.7060 O.2    62  TYR62      -0.2718
     85  CB         2.0680   14.2630   18.8270 C.3    62  TYR62       0.0548
     86  CG         1.8730   14.8900   20.1860 C.ar   62  TYR62      -0.0200
     87  CD1        1.8060   16.2690   20.3360 C.ar   62  TYR62      -0.0009
     88  CD2        1.7970   14.1010   21.3190 C.ar   62  TYR62      -0.0009
     89  CE1        1.6460   16.8450   21.5840 C.ar   62  TYR62       0.0417
     90  CE2        1.6400   14.6580   22.5680 C.ar   62  TYR62       0.0417
     91  CZ         1.5640   16.0260   22.6990 C.ar   62  TYR62       0.1957
     92  OH         1.4190   16.5620   23.9560 O.3    62  TYR62      -0.2866
     93  N          1.2860   12.9520   16.0480 N.am   63  MET63      -0.1979
     94  CA         1.6990   12.5070   14.7260 C.3    63  MET63       0.1605
     95  C          0.8460   13.1580   13.6430 C.2    63  MET63       0.2287
     96  O          1.3470   13.5040   12.5820 O.2    63  MET63      -0.2864
     97  CB         1.6510   10.9800   14.6160 C.3    63  MET63       0.0413
     98  CG         2.8130   10.3010   15.3410 C.3    63  MET63       0.0598
     99  SD         2.8610    8.5230   15.1180 S.3    63  MET63      -0.1393
    100  CE         1.6780    7.9720   16.3490 C.3    63  MET63       0.0692
    101  N          9.0900    0.2390   13.9510 N.3    86  HIS86      -0.1226
    102  CA         7.7700    0.3470   14.5680 C.3    86  HIS86       0.1752
    103  C          7.3070    1.8020   14.6130 C.2    86  HIS86       0.2596
    104  O          6.1830    2.1050   14.2360 O.2    86  HIS86      -0.2718
    105  CB         7.7700   -0.2240   15.9880 C.3    86  HIS86       0.0759
    106  CG         6.4130   -0.2510   16.6210 C.ar   86  HIS86       0.0818
    107  ND1        6.0240    0.6400   17.5990 N.ar   86  HIS86      -0.2268
    108  CD2        5.3510   -1.0610   16.4060 C.ar   86  HIS86       0.1154
    109  CE1        4.7790    0.3760   17.9600 C.ar   86  HIS86       0.1986
    110  NE2        4.3480   -0.6510   17.2510 N.ar   86  HIS86      -0.2212
    111  N          8.1900    2.7000   15.0360 N.am   87  TYR87      -0.1976
    112  CA         7.8110    4.1120   15.1680 C.3    87  TYR87       0.1639
    113  C          7.4440    4.7060   13.8090 C.2    87  TYR87       0.2290
    114  O          6.4560    5.4250   13.6810 O.2    87  TYR87      -0.2864
    115  CB         8.9230    4.9110   15.8330 C.3    87  TYR87       0.0560
    116  CG         9.2900    4.3890   17.2040 C.ar   87  TYR87      -0.0198
    117  CD1        8.3380    3.8200   18.0470 C.ar   87  TYR87      -0.0009
    118  CD2       10.5880    4.4660   17.6520 C.ar   87  TYR87      -0.0009
    119  CE1        8.7000    3.3300   19.3060 C.ar   87  TYR87       0.0417
    120  CE2       10.9450    4.0020   18.8870 C.ar   87  TYR87       0.0417
    121  CZ        10.0060    3.4560   19.7150 C.ar   87  TYR87       0.1957
    122  OH        10.4330    2.9950   20.9450 O.3    87  TYR87      -0.2866
    123  N          4.0000    3.4920   12.6620 N.3    90  GLN90      -0.1245
    124  CA         2.9030    4.1810   13.3270 C.3    90  GLN90       0.1566
    125  C          2.6640    5.5290   12.6830 C.2    90  GLN90       0.2260
    126  O          1.5170    5.9270   12.4970 O.2    90  GLN90      -0.2867
    127  CB         3.1890    4.4040   14.8130 C.3    90  GLN90       0.0367
    128  CG         3.4190    3.1410   15.6230 C.3    90  GLN90       0.0905
    129  CD         2.3560    2.1080   15.3970 C.2    90  GLN90       0.2608
    130  OE1        1.1690    2.3840   15.5580 O.2    90  GLN90      -0.2717
    131  NE2        2.7700    0.9060   15.0070 N.am   90  GLN90      -0.0878
@<TRIPOS>BOND
     1   126   125    2
     2    96    95    2
     3   123   124    1
     4   125   124    1
     5   124   127    1
     6    95    94    1
     7   114   113    2
     8   113   112    1
     9   101   102    1
    10   104   103    2
    11   102   103    1
    12   102   105    1
    13   103   111   am
    14    97    94    1
    15    97    98    1
    16    94    93    1
    17   127   128    1
    18   131   129   am
    19   111   112    1
    20    99    98    1
    21    99   100    1
    22   112   115    1
    23     1     2    1
    24     4     3    2
    25   129   130    2
    26   129   128    1
    27    84    83    2
    28   115   116    1
    29   105   106    1
    30    21    19    1
    31    93    83   am
    32     7     5    1
    33     5     2    1
    34     5     6    1
    35     2     3    1
    36     3     8   am
    37   108   106   ar
    38   108   110   ar
    39    83    82    1
    40   106   107   ar
    41    20    19    1
    42   116   118   ar
    43   116   117   ar
    44   110   109   ar
    45    19    16    1
    46     8     9    1
    47   107   109   ar
    48   118   120   ar
    49    15    16    1
    50    15    10   am
    51     9    10    1
    52     9    12    1
    53    82    81    1
    54    82    85    1
    55    18    17    2
    56    73    72    2
    57   117   119   ar
    58    14    12    1
    59    16    17    1
    60    17    22   am
    61    10    11    2
    62    12    13    1
    63    85    86    1
    64    72    71    1
    65   120   121   ar
    66    22    23    1
    67   119   121   ar
    68    23    24    1
    69   121   122    1
    70    86    87   ar
    71    86    88   ar
    72    71    74    1
    73    71    70    1
    74    87    89   ar
    75    74    75    1
    76    24    25    2
    77    38    37    1
    78    38    39    1
    79    88    90   ar
    80    77    76    1
    81    77    78    2
    82    37    36    1
    83    47    45    1
    84    76    75    1
    85    89    91   ar
    86    36    33    1
    87    80    78    1
    88    35    34    2
    89    33    34    1
    90    33    32    1
    91    78    79    1
    92    39    40    1
    93    90    91   ar
    94    91    92    1
    95    45    46    1
    96    45    42    1
    97    41    42    1
    98    42    43    1
    99    60    58   ar
   100    56    53    1
   101    56    57    1
   102    55    54    2
   103    26    27    1
   104    53    54    1
   105    53    52    1
   106    58    57    1
   107    58    59   ar
   108    54    61   am
   109    43    44    2
   110    27    28    1
   111    27    30    1
   112    29    28    2
   113    64    63    2
   114    61    62    1
   115    63    62    1
   116    62    65    1
   117    30    31    1
   118    65    66    1
   119    48    49    1
   120    50    51    2
   121    50    49    1
   122    66    67    1
   123    67    69   ar
   124    67    68   ar
