@<TRIPOS>MOLECULE
tmp/4lyhC00.pdb
 140 134 0 0 0
SMALL
GASTEIGER

@<TRIPOS>ATOM
      1  N         73.5860   35.0890  206.6890 N.3     7  VAL7       -0.1245
      2  CA        72.1480   35.0790  206.4310 C.3     7  VAL7        0.1561
      3  C         71.9620   34.5960  205.0160 C.2     7  VAL7        0.2260
      4  O         72.5570   35.1290  204.0680 O.2     7  VAL7       -0.2867
      5  CB        71.5910   36.4700  206.6720 C.3     7  VAL7        0.0252
      6  CG1       70.0850   36.4840  206.3930 C.3     7  VAL7        0.0019
      7  CG2       71.8590   36.9880  208.0510 C.3     7  VAL7        0.0019
      8  N         69.4200   34.3100  201.9570 N.3     9  VAL9       -0.1231
      9  CA        68.2390   34.9290  201.4160 C.3     9  VAL9        0.1692
     10  C         67.9650   34.4670  200.0010 C.2     9  VAL9        0.2593
     11  O         68.7870   33.9270  199.3280 O.2     9  VAL9       -0.2718
     12  CB        68.2830   36.4730  201.5000 C.3     9  VAL9        0.0266
     13  CG1       68.6310   36.9120  202.9670 C.3     9  VAL9        0.0020
     14  CG2       69.1940   37.0460  200.5150 C.3     9  VAL9        0.0020
     15  N         66.7140   34.6580  199.6220 N.am   10  GLY10      -0.1942
     16  CA        66.2490   34.2480  198.2900 C.3    10  GLY10       0.2014
     17  C         64.8220   33.8340  198.3390 C.2    10  GLY10       0.2639
     18  O         64.2120   33.5900  199.3390 O.2    10  GLY10      -0.2714
     19  N         64.2640   33.6930  197.1100 N.am   11  ALA11      -0.1963
     20  CA        62.8540   33.3480  196.9530 C.3    11  ALA11       0.1728
     21  C         62.5250   32.0200  197.5590 C.2    11  ALA11       0.2616
     22  O         63.3690   31.1260  197.6970 O.2    11  ALA11      -0.2715
     23  CB        62.5190   33.3570  195.4400 C.3    11  ALA11       0.0334
     24  N         61.2550   31.7650  197.7870 N.am   12  CYS12      -0.1968
     25  CA        60.7830   30.4710  198.2420 C.3    12  CYS12       0.1712
     26  C         61.1190   29.3880  197.2860 C.2    12  CYS12       0.2296
     27  O         60.9620   29.5060  196.0490 O.2    12  CYS12      -0.2864
     28  CB        59.2680   30.5530  198.3930 C.3    12  CYS12       0.0983
     29  SG        58.4720   29.0690  198.9720 S.3    12  CYS12      -0.0798
     30  N         67.3550   27.3240  199.9560 N.3    16  LYS16      -0.1245
     31  CA        68.0660   27.9400  201.0850 C.3    16  LYS16       0.1561
     32  C         68.1790   26.9370  202.2200 C.2    16  LYS16       0.2260
     33  O         69.2790   26.8220  202.7990 O.2    16  LYS16      -0.2867
     34  CB        67.3410   29.1700  201.6110 C.3    16  LYS16       0.0271
     35  CG        67.2240   30.2810  200.5810 C.3    16  LYS16       0.0035
     36  CD        66.4590   31.5010  201.1610 C.3    16  LYS16       0.0206
     37  CE        65.0810   31.2820  201.6360 C.3    16  LYS16       0.1093
     38  NZ        64.1480   30.8000  200.5440 N.3    16  LYS16      -0.1314
     39  N         71.5300   31.9230  209.5450 N.3    47  LEU47      -0.1245
     40  CA        70.0880   32.0990  209.5250 C.3    47  LEU47       0.1561
     41  C         69.5660   31.7780  208.1510 C.2    47  LEU47       0.2260
     42  O         69.8960   32.4300  207.1590 O.2    47  LEU47      -0.2867
     43  CB        69.7180   33.5340  209.9330 C.3    47  LEU47       0.0270
     44  CG        68.2440   33.8650  209.9620 C.3    47  LEU47       0.0019
     45  CD1       67.5430   33.0300  211.0930 C.3    47  LEU47       0.0001
     46  CD2       68.0210   35.3620  210.1680 C.3    47  LEU47       0.0001
     47  N         66.5220   32.1350  206.2550 N.3    49  THR49      -0.1203
     48  CA        65.2740   32.8760  206.2690 C.3    49  THR49       0.1994
     49  C         64.0950   32.1600  205.5850 C.2    49  THR49       0.2618
     50  O         63.0690   32.7930  205.3900 O.2    49  THR49      -0.2717
     51  CB        65.4350   34.2410  205.5650 C.3    49  THR49       0.1784
     52  OG1       65.8090   34.0000  204.1840 O.3    49  THR49      -0.2211
     53  CG2       66.4180   35.1430  206.3160 C.3    49  THR49       0.0376
     54  N         64.1850   30.8740  205.2300 N.am   50  ALA50      -0.1965
     55  CA        63.0710   30.1420  204.6180 C.3    50  ALA50       0.1728
     56  C         61.7590   30.3060  205.3780 C.2    50  ALA50       0.2616
     57  O         60.6950   30.1140  204.8080 O.2    50  ALA50      -0.2715
     58  CB        63.4140   28.6590  204.5270 C.3    50  ALA50       0.0334
     59  N         61.8250   30.6050  206.6690 N.am   51  GLY51      -0.1955
     60  CA        60.6150   30.7890  207.4500 C.3    51  GLY51       0.1869
     61  C         60.0980   32.1850  207.2060 C.2    51  GLY51       0.2309
     62  O         60.8230   33.0480  206.6920 O.2    51  GLY51      -0.2863
     63  N         61.6350   41.9950  212.0560 N.3    55  MET55      -0.1230
     64  CA        62.4700   40.8270  211.9230 C.3    55  MET55       0.1702
     65  C         63.5640   41.0520  210.8690 C.2    55  MET55       0.2592
     66  O         64.7600   40.8710  211.1280 O.2    55  MET55      -0.2718
     67  CB        61.5820   39.6500  211.5150 C.3    55  MET55       0.0401
     68  CG        60.5390   39.3050  212.5370 C.3    55  MET55       0.0596
     69  SD        61.2270   38.6330  214.1020 S.3    55  MET55      -0.1393
     70  CE        61.7170   37.0150  213.6120 C.3    55  MET55       0.0692
     71  N         63.1310   41.4340  209.6740 N.am   56  ARG56      -0.1980
     72  CA        64.0270   41.7490  208.5650 C.3    56  ARG56       0.1597
     73  C         65.1190   42.6830  209.0070 C.2    56  ARG56       0.2287
     74  O         66.3090   42.3910  208.8280 O.2    56  ARG56      -0.2864
     75  CB        63.2580   42.4560  207.4430 C.3    56  ARG56       0.0334
     76  CG        62.6900   41.5570  206.3730 C.3    56  ARG56       0.0492
     77  CD        62.4180   42.3500  205.0870 C.3    56  ARG56       0.2205
     78  NE        61.6270   43.5710  205.2920 N.pl3  56  ARG56      -0.0865
     79  CZ        60.4860   43.8650  204.6650 C.cat  56  ARG56       0.5346
     80  NH1       59.9540   43.0390  203.7620 N.pl3  56  ARG56       0.1354
     81  NH2       59.8730   45.0070  204.9370 N.pl3  56  ARG56       0.1354
     82  N         67.8920   41.1170  211.5520 N.3    59  TYR59      -0.1227
     83  CA        68.8250   40.1980  210.9840 C.3    59  TYR59       0.1736
     84  C         69.6390   40.8290  209.8520 C.2    59  TYR59       0.2595
     85  O         70.7780   40.4350  209.6230 O.2    59  TYR59      -0.2718
     86  CB        68.0830   38.9850  210.4940 C.3    59  TYR59       0.0548
     87  CG        67.4530   38.1420  211.5680 C.ar   59  TYR59      -0.0200
     88  CD1       68.1750   37.6880  212.6800 C.ar   59  TYR59      -0.0009
     89  CD2       66.1290   37.7580  211.4500 C.ar   59  TYR59      -0.0009
     90  CE1       67.5480   36.8580  213.6560 C.ar   59  TYR59       0.0417
     91  CE2       65.5040   36.9540  212.3990 C.ar   59  TYR59       0.0417
     92  CZ        66.2100   36.5020  213.4860 C.ar   59  TYR59       0.1957
     93  OH        65.5260   35.7130  214.3880 O.3    59  TYR59      -0.2866
     94  N         69.1080   41.7950  209.1020 N.am   60  MET60      -0.1979
     95  CA        69.9320   42.4360  208.0900 C.3    60  MET60       0.1605
     96  C         71.0260   43.3060  208.7350 C.2    60  MET60       0.2287
     97  O         72.1650   43.2760  208.2670 O.2    60  MET60      -0.2864
     98  CB        69.1050   43.2290  207.0870 C.3    60  MET60       0.0413
     99  CG        68.2810   42.2920  206.1660 C.3    60  MET60       0.0598
    100  SD        67.3790   43.1880  204.9190 S.3    60  MET60      -0.1393
    101  CE        65.8420   42.3220  204.8340 C.3    60  MET60       0.0692
    102  N         65.9560   42.7280  194.3190 N.3    83  HIS83      -0.1226
    103  CA        65.1050   43.0950  195.5120 C.3    83  HIS83       0.1752
    104  C         65.8840   42.8210  196.7980 C.2    83  HIS83       0.2596
    105  O         65.9860   43.7130  197.6830 O.2    83  HIS83      -0.2718
    106  CB        63.7710   42.2850  195.5180 C.3    83  HIS83       0.0759
    107  CG        63.0620   42.2240  196.8500 C.ar   83  HIS83       0.0818
    108  ND1       63.1900   41.1610  197.7240 N.ar   83  HIS83      -0.2268
    109  CD2       62.1580   43.0610  197.4190 C.ar   83  HIS83       0.1154
    110  CE1       62.4400   41.3680  198.7930 C.ar   83  HIS83       0.1986
    111  NE2       61.8070   42.5180  198.6350 N.ar   83  HIS83      -0.2212
    112  N         66.4500   41.6470  196.8930 N.am   84  TYR84      -0.1976
    113  CA        67.1490   41.2990  198.1080 C.3    84  TYR84       0.1639
    114  C         68.3870   42.1450  198.2920 C.2    84  TYR84       0.2290
    115  O         68.6280   42.6760  199.4020 O.2    84  TYR84      -0.2864
    116  CB        67.5390   39.8200  198.0770 C.3    84  TYR84       0.0560
    117  CG        66.3440   38.8920  198.2000 C.ar   84  TYR84      -0.0198
    118  CD1       65.6880   38.7310  199.4130 C.ar   84  TYR84      -0.0009
    119  CD2       65.9060   38.1360  197.1550 C.ar   84  TYR84      -0.0009
    120  CE1       64.6030   37.9490  199.5230 C.ar   84  TYR84       0.0417
    121  CE2       64.8240   37.3540  197.2650 C.ar   84  TYR84       0.0417
    122  CZ        64.1930   37.2290  198.4520 C.ar   84  TYR84       0.1957
    123  OH        63.0640   36.4470  198.6200 O.3    84  TYR84      -0.2866
    124  N         67.4810   45.7820  199.2900 N.3    87  GLN87      -0.1231
    125  CA        66.9260   45.8830  200.6250 C.3    87  GLN87       0.1698
    126  C         67.9840   45.7480  201.7090 C.2    87  GLN87       0.2592
    127  O         67.9680   46.4910  202.6720 O.2    87  GLN87      -0.2718
    128  CB        65.8640   44.8290  200.7950 C.3    87  GLN87       0.0381
    129  CG        65.0370   44.8910  202.0700 C.3    87  GLN87       0.0905
    130  CD        63.9210   43.8560  201.9710 C.2    87  GLN87       0.2608
    131  OE1       62.7530   44.1310  202.2400 O.2    87  GLN87      -0.2717
    132  NE2       64.2810   42.6740  201.5110 N.am   87  GLN87      -0.0878
    133  N         68.9250   44.8340  201.4770 N.am   88  ILE88      -0.1980
    134  CA        70.0060   44.6490  202.4660 C.3    88  ILE88       0.1595
    135  C         70.8350   45.9360  202.5090 C.2    88  ILE88       0.2287
    136  O         71.1180   46.4620  203.5650 O.2    88  ILE88      -0.2864
    137  CB        70.8110   43.4470  202.1390 C.3    88  ILE88       0.0276
    138  CG1       69.9900   42.1770  202.2570 C.3    88  ILE88       0.0022
    139  CG2       72.0570   43.3880  203.0920 C.3    88  ILE88       0.0022
    140  CD1       70.5920   41.0220  201.5170 C.3    88  ILE88       0.0001
@<TRIPOS>BOND
     1   102   103    1
     2    23    20    1
     3   103   106    1
     4   103   104    1
     5   106   107    1
     6    27    26    2
     7   104   112   am
     8   104   105    2
     9   107   109   ar
    10   107   108   ar
    11   112   113    1
    12    20    19    1
    13    20    21    1
    14    19    17   am
    15   119   121   ar
    16   119   117   ar
    17   121   122   ar
    18    26    25    1
    19   109   111   ar
    20    21    22    2
    21    21    24   am
    22   108   110   ar
    23    24    25    1
    24   116   113    1
    25   116   117    1
    26   113   114    1
    27   117   118   ar
    28    25    28    1
    29    16    17    1
    30    16    15    1
    31   114   115    2
    32    17    18    2
    33    28    29    1
    34   122   123    1
    35   122   120   ar
    36   111   110   ar
    37   124   125    1
    38    11    10    2
    39   118   120   ar
    40    15    10   am
    41    30    31    1
    42    10     9    1
    43    14    12    1
    44    38    37    1
    45    35    36    1
    46    35    34    1
    47   125   128    1
    48   125   126    1
    49   128   129    1
    50    31    34    1
    51    31    32    1
    52    36    37    1
    53     9    12    1
    54     9     8    1
    55   133   126   am
    56   133   134    1
    57    12    13    1
    58   132   130   am
    59   140   138    1
    60   126   127    2
    61   130   129    1
    62   130   131    2
    63   137   138    1
    64   137   134    1
    65   137   139    1
    66    32    33    2
    67   134   135    1
    68   135   136    2
    69    80    79    1
    70     4     3    2
    71    52    51    1
    72    58    55    1
    73    55    54    1
    74    55    56    1
    75    79    81    1
    76    79    78    2
    77    57    56    2
    78   101   100    1
    79   100    99    1
    80     3     2    1
    81    77    78    1
    82    77    76    1
    83    54    49   am
    84    56    59   am
    85    50    49    2
    86    51    48    1
    87    51    53    1
    88    49    48    1
    89    99    98    1
    90    47    48    1
    91    76    75    1
    92     6     5    1
    93     2     5    1
    94     2     1    1
    95    59    60    1
    96     5     7    1
    97    62    61    2
    98    98    95    1
    99    42    41    2
   100    61    60    1
   101    75    72    1
   102    95    96    1
   103    95    94    1
   104    41    40    1
   105    97    96    2
   106    72    73    1
   107    72    71    1
   108    74    73    2
   109    94    84   am
   110    40    39    1
   111    40    43    1
   112    85    84    2
   113    71    65   am
   114    84    83    1
   115    43    44    1
   116    44    46    1
   117    44    45    1
   118    86    83    1
   119    86    87    1
   120    65    66    2
   121    65    64    1
   122    83    82    1
   123    89    87   ar
   124    89    91   ar
   125    67    64    1
   126    67    68    1
   127    87    88   ar
   128    64    63    1
   129    91    92   ar
   130    68    69    1
   131    88    90   ar
   132    92    90   ar
   133    92    93    1
   134    70    69    1
