@<TRIPOS>MOLECULE
tmp/4lykD00.pdb
 97 89 0 0 0
SMALL
GASTEIGER

@<TRIPOS>ATOM
      1  N         45.8650  -21.2390   36.0790 N.3    24  VAL24      -0.1245
      2  CA        46.2320  -20.2230   35.0960 C.3    24  VAL24       0.1561
      3  C         47.1720  -19.2040   35.7280 C.2    24  VAL24       0.2260
      4  O         47.0330  -18.8580   36.9090 O.2    24  VAL24      -0.2867
      5  CB        44.9870  -19.4790   34.5940 C.3    24  VAL24       0.0252
      6  CG1       45.3440  -18.5250   33.4620 C.3    24  VAL24       0.0019
      7  CG2       43.9440  -20.4760   34.0940 C.3    24  VAL24       0.0019
      8  N         47.2540  -16.7460   38.9610 N.3    33  THR33      -0.1203
      9  CA        46.2440  -15.6960   38.8380 C.3    33  THR33       0.1994
     10  C         44.8090  -16.2330   38.8210 C.2    33  THR33       0.2618
     11  O         43.8610  -15.4700   38.9790 O.2    33  THR33      -0.2717
     12  CB        46.4450  -14.9030   37.5410 C.3    33  THR33       0.1784
     13  OG1       46.4380  -15.8010   36.4190 O.3    33  THR33      -0.2211
     14  CG2       47.7460  -14.1380   37.5930 C.3    33  THR33       0.0376
     15  N         44.6440  -17.5280   38.6060 N.am   34  GLY34      -0.1942
     16  CA        43.3160  -18.0890   38.4990 C.3    34  GLY34       0.2014
     17  C         43.3080  -19.5530   38.0980 C.2    34  GLY34       0.2639
     18  O         44.2930  -20.2670   38.2610 O.2    34  GLY34      -0.2714
     19  N         42.1590  -19.9990   37.6210 N.am   35  CYS35      -0.1967
     20  CA        41.9760  -21.3830   37.2510 C.3    35  CYS35       0.1712
     21  C         40.8350  -21.5040   36.2760 C.2    35  CYS35       0.2296
     22  O         40.0520  -20.5740   36.1280 O.2    35  CYS35      -0.2864
     23  CB        41.6430  -22.2360   38.4760 C.3    35  CYS35       0.0983
     24  SG        40.0250  -21.8490   39.2320 S.3    35  CYS35      -0.0798
     25  N         40.9320  -15.5080   39.3930 N.3    91  HIS91      -0.1241
     26  CA        39.9880  -15.7710   38.3200 C.3    91  HIS91       0.1621
     27  C         39.4880  -17.2060   38.3370 C.2    91  HIS91       0.2264
     28  O         40.2680  -18.1440   38.4910 O.2    91  HIS91      -0.2867
     29  CB        40.6170  -15.5320   36.9500 C.3    91  HIS91       0.0745
     30  CG        41.1730  -14.1600   36.7550 C.ar   91  HIS91       0.0817
     31  ND1       40.5670  -13.2190   35.9580 N.ar   91  HIS91      -0.2268
     32  CD2       42.2980  -13.5790   37.2250 C.ar   91  HIS91       0.1154
     33  CE1       41.2880  -12.1120   35.9520 C.ar   91  HIS91       0.1986
     34  NE2       42.3440  -12.3060   36.7120 N.ar   91  HIS91      -0.2212
     35  N         37.3710  -19.6480   35.9580 N.3    93  GLY93      -0.1225
     36  CA        36.8540  -19.8480   34.5960 C.3    93  GLY93       0.1811
     37  C         35.8920  -21.0190   34.5430 C.2    93  GLY93       0.2280
     38  O         36.2240  -22.1120   34.9630 O.2    93  GLY93      -0.2866
     39  N         34.7880  -15.7020   35.6170 N.3   125  VAL125     -0.1245
     40  CA        34.9410  -15.5430   34.1740 C.3   125  VAL125      0.1561
     41  C         34.1290  -16.6260   33.4520 C.2   125  VAL125      0.2260
     42  O         34.4710  -17.8190   33.5160 O.2   125  VAL125     -0.2867
     43  CB        36.3980  -15.6890   33.7280 C.3   125  VAL125      0.0252
     44  CG1       36.5320  -15.3550   32.2370 C.3   125  VAL125      0.0019
     45  CG2       37.2920  -14.7780   34.5850 C.3   125  VAL125      0.0019
     46  N         33.3670  -18.4790   30.4210 N.3   127  GLU127     -0.1245
     47  CA        34.0700  -18.8120   29.2080 C.3   127  GLU127      0.1567
     48  C         33.0700  -19.3010   28.1930 C.2   127  GLU127      0.2260
     49  O         32.6790  -20.4610   28.2270 O.2   127  GLU127     -0.2867
     50  CB        35.1540  -19.8660   29.4820 C.3   127  GLU127      0.0388
     51  CG        36.2140  -19.4050   30.5330 C.3   127  GLU127      0.1160
     52  CD        37.4660  -20.3100   30.5990 C.2   127  GLU127      0.3649
     53  OE1       37.5530  -21.2970   29.8590 O.co2 127  GLU127     -0.2457
     54  OE2       38.3820  -20.0080   31.3850 O.co2 127  GLU127     -0.2457
     55  N         34.6390  -14.3940   28.7010 N.3   155  ALA155     -0.1245
     56  CA        35.7240  -14.7340   27.8130 C.3   155  ALA155      0.1562
     57  C         35.1420  -15.3410   26.5610 C.2   155  ALA155      0.2260
     58  O         34.1250  -16.0030   26.6320 O.2   155  ALA155     -0.2867
     59  CB        36.6580  -15.7330   28.4560 C.3   155  ALA155      0.0290
     60  N         37.8400  -11.0290   28.1000 N.3   176  PHE176     -0.1241
     61  CA        38.9670  -11.8880   27.8210 C.3   176  PHE176      0.1605
     62  C         38.7870  -12.5980   26.4900 C.2   176  PHE176      0.2264
     63  O         37.6660  -12.8710   26.0730 O.2   176  PHE176     -0.2867
     64  CB        39.1030  -12.9590   28.9050 C.3   176  PHE176      0.0534
     65  CG        39.3140  -12.4160   30.3010 C.ar  176  PHE176     -0.0203
     66  CD1       40.5900  -12.1690   30.7670 C.ar  176  PHE176     -0.0042
     67  CD2       38.2450  -12.1820   31.1310 C.ar  176  PHE176     -0.0042
     68  CE1       40.7990  -11.6840   32.0470 C.ar  176  PHE176     -0.0003
     69  CE2       38.4410  -11.6960   32.4300 C.ar  176  PHE176     -0.0003
     70  CZ        39.7150  -11.4440   32.8880 C.ar  176  PHE176     -0.0000
     71  N         40.4790  -16.1470   24.9510 N.3   178  LYS178     -0.1245
     72  CA        41.3630  -17.3060   25.1320 C.3   178  LYS178      0.1561
     73  C         41.7140  -17.8310   23.7530 C.2   178  LYS178      0.2260
     74  O         40.8410  -18.1640   22.9660 O.2   178  LYS178     -0.2867
     75  CB        40.7090  -18.4120   25.9790 C.3   178  LYS178      0.0271
     76  CG        40.0850  -17.9110   27.3010 C.3   178  LYS178      0.0035
     77  CD        39.7390  -19.0260   28.2940 C.3   178  LYS178      0.0206
     78  CE        40.9550  -19.5640   29.0310 C.3   178  LYS178      0.1093
     79  NZ        40.6410  -20.8210   29.7970 N.3   178  LYS178     -0.1314
     80  N         44.4040  -14.9970   27.2110 N.3   212  VAL212     -0.1245
     81  CA        45.0560  -16.1860   27.7240 C.3   212  VAL212      0.1561
     82  C         45.3960  -17.1740   26.6150 C.2   212  VAL212      0.2260
     83  O         44.5990  -17.4260   25.7470 O.2   212  VAL212     -0.2867
     84  CB        44.3390  -16.8000   28.9640 C.3   212  VAL212      0.0252
     85  CG1       43.0060  -16.1480   29.2310 C.3   212  VAL212      0.0019
     86  CG2       44.2640  -18.2700   28.9110 C.3   212  VAL212      0.0019
     87  N         48.0110  -13.9850   30.0740 N.3   232  PHE232     -0.1241
     88  CA        47.8890  -15.1720   30.9410 C.3   232  PHE232      0.1605
     89  C         48.2610  -16.4200   30.1690 C.2   232  PHE232      0.2264
     90  O         48.1470  -16.4500   28.9340 O.2   232  PHE232     -0.2867
     91  CB        46.4630  -15.3150   31.4590 C.3   232  PHE232      0.0534
     92  CG        45.9960  -14.1570   32.2870 C.ar  232  PHE232     -0.0203
     93  CD1       46.3500  -14.0530   33.6300 C.ar  232  PHE232     -0.0042
     94  CD2       45.1870  -13.1810   31.7350 C.ar  232  PHE232     -0.0042
     95  CE1       45.9100  -12.9900   34.4020 C.ar  232  PHE232     -0.0003
     96  CE2       44.7340  -12.1080   32.5080 C.ar  232  PHE232     -0.0003
     97  CZ        45.0920  -12.0130   33.8290 C.ar  232  PHE232     -0.0000
@<TRIPOS>BOND
     1    74    73    2
     2    73    72    1
     3    71    72    1
     4    72    75    1
     5    83    82    2
     6    75    76    1
     7    63    62    2
     8    62    61    1
     9    57    58    2
    10    57    56    1
    11    82    81    1
    12    80    81    1
    13    76    77    1
    14    81    84    1
    15    56    59    1
    16    56    55    1
    17    61    60    1
    18    61    64    1
    19    48    49    2
    20    48    47    1
    21    77    78    1
    22    64    65    1
    23    86    84    1
    24    90    89    2
    25    84    85    1
    26    78    79    1
    27    47    50    1
    28    47    46    1
    29    50    51    1
    30    53    52   ar
    31    87    88    1
    32    89    88    1
    33    65    66   ar
    34    65    67   ar
    35    51    52    1
    36    52    54   ar
    37    66    68   ar
    38    88    91    1
    39    67    69   ar
    40    91    92    1
    41    94    92   ar
    42    94    96   ar
    43    68    70   ar
    44    44    43    1
    45    92    93   ar
    46    69    70   ar
    47    96    97   ar
    48    41    42    2
    49    41    40    1
    50     6     5    1
    51    93    95   ar
    52    43    40    1
    53    43    45    1
    54    97    95   ar
    55     7     5    1
    56    40    39    1
    57    37    36    1
    58    37    38    2
    59     5     2    1
    60    36    35    1
    61     2     3    1
    62     2     1    1
    63     3     4    2
    64    33    31   ar
    65    33    34   ar
    66    31    30   ar
    67    22    21    2
    68    21    20    1
    69    13    12    1
    70    34    32   ar
    71    30    29    1
    72    30    32   ar
    73    29    26    1
    74    20    19    1
    75    20    23    1
    76    12    14    1
    77    12     9    1
    78    19    17   am
    79    17    18    2
    80    17    16    1
    81    26    27    1
    82    26    25    1
    83    27    28    2
    84    23    24    1
    85    16    15    1
    86    15    10   am
    87    10     9    1
    88    10    11    2
    89     9     8    1
