@<TRIPOS>MOLECULE
tmp/4lynA00.pdb
 209 200 0 0 0
SMALL
GASTEIGER

@<TRIPOS>ATOM
      1  N         27.5600   24.8050   38.2740 N.3     8  GLU8       -0.1182
      2  CA        27.1690   23.6390   37.4720 C.3     8  GLU8        0.1915
      3  C         27.8010   23.6910   36.1150 C.2     8  GLU8        0.2634
      4  O         28.0550   24.7900   35.6070 O.2     8  GLU8       -0.2714
      5  CB        25.6240   23.4760   37.3520 C.2     8  GLU8        0.0085
      6  CG        24.8610   24.6790   36.8110 C.2     8  GLU8        0.0835
      7  CD        23.3520   24.5290   36.7400 C.2     8  GLU8        0.3877
      8  OE1       22.8670   23.7620   35.8780 O.co2   8  GLU8       -0.2406
      9  OE2       22.6510   25.2210   37.5140 O.co2   8  GLU8       -0.2406
     10  N         28.0460   22.5000   35.5090 N.am    9  LYS9       -0.1963
     11  CA        28.5630   22.3920   34.1490 C.3     9  LYS9        0.1728
     12  C         27.3970   22.7760   33.2480 C.2     9  LYS9        0.2616
     13  O         26.3360   22.1510   33.3160 O.2     9  LYS9       -0.2715
     14  CB        29.0190   20.9530   33.7960 C.3     9  LYS9        0.0311
     15  CG        29.8500   20.2190   34.8520 C.3     9  LYS9        0.0038
     16  CD        30.3920   18.8640   34.3460 C.3     9  LYS9        0.0206
     17  CE        29.3800   17.7290   34.3270 C.3     9  LYS9        0.1093
     18  NZ        28.9630   17.3070   35.6930 N.3     9  LYS9       -0.1314
     19  N         27.5630   23.8500   32.4720 N.am   10  ILE10      -0.1963
     20  CA        26.5710   24.3630   31.5230 C.3    10  ILE10       0.1727
     21  C         26.5780   23.4270   30.2930 C.2    10  ILE10       0.2617
     22  O         25.5520   23.2370   29.6370 O.2    10  ILE10      -0.2715
     23  CB        26.9230   25.8380   31.1670 C.3    10  ILE10       0.0290
     24  CG1       26.3150   26.8300   32.1750 C.3    10  ILE10       0.0022
     25  CG2       26.5720   26.2040   29.7140 C.3    10  ILE10       0.0023
     26  CD1       26.7140   28.3190   31.9510 C.3    10  ILE10       0.0001
     27  N         27.7560   22.8880   30.0010 N.am   11  GLY11      -0.1940
     28  CA        27.9990   21.9810   28.8880 C.3    11  GLY11       0.2014
     29  C         29.4380   21.9930   28.4200 C.2    11  GLY11       0.2639
     30  O         30.2090   22.8780   28.7910 O.2    11  GLY11      -0.2714
     31  N         29.8020   20.9980   27.6050 N.am   12  GLU12      -0.1963
     32  CA        31.1380   20.8550   27.0340 C.3    12  GLU12       0.1733
     33  C         31.0340   21.1440   25.5460 C.2    12  GLU12       0.2617
     34  O         30.7620   20.2380   24.7520 O.2    12  GLU12      -0.2715
     35  CB        31.7150   19.4520   27.3040 C.3    12  GLU12       0.0429
     36  CG        32.0310   19.1850   28.7670 C.3    12  GLU12       0.1163
     37  CD        32.3910   17.7570   29.1360 C.2    12  GLU12       0.3649
     38  OE1       33.0480   17.5760   30.1860 O.co2  12  GLU12      -0.2457
     39  OE2       32.0060   16.8210   28.3970 O.co2  12  GLU12      -0.2457
     40  N         31.1960   22.4180   25.1920 N.am   13  GLY13      -0.1940
     41  CA        31.1010   22.8950   23.8170 C.3    13  GLY13       0.2014
     42  C         32.3000   22.6030   22.9390 C.2    13  GLY13       0.2639
     43  O         32.9640   21.5700   23.0880 O.2    13  GLY13      -0.2714
     44  N         32.5710   23.5270   21.9970 N.am   14  THR14      -0.1950
     45  CA        33.6630   23.4270   21.0200 C.3    14  THR14       0.1897
     46  C         34.9910   23.9870   21.5590 C.2    14  THR14       0.2313
     47  O         36.0590   23.5050   21.1610 O.2    14  THR14      -0.2863
     48  CB        33.2520   24.0530   19.6560 C.3    14  THR14       0.1794
     49  OG1       34.3630   24.0320   18.7550 O.3    14  THR14      -0.2208
     50  CG2       32.7070   25.4780   19.7780 C.3    14  THR14       0.0378
     51  N         32.1160   24.7120   29.7290 N.3    18  VAL18      -0.1245
     52  CA        31.3960   25.9220   30.1710 C.3    18  VAL18       0.1561
     53  C         30.7330   25.6710   31.5140 C.2    18  VAL18       0.2260
     54  O         30.0740   24.6530   31.6910 O.2    18  VAL18      -0.2867
     55  CB        30.4020   26.4820   29.1150 C.3    18  VAL18       0.0252
     56  CG1       29.9270   27.8880   29.4940 C.3    18  VAL18       0.0019
     57  CG2       31.0280   26.5010   27.7260 C.3    18  VAL18       0.0019
     58  N         28.4750   27.5050   34.9200 N.3    20  LYS20      -0.1245
     59  CA        27.7190   28.5990   35.5120 C.3    20  LYS20       0.1561
     60  C         28.5660   28.8510   36.7540 C.2    20  LYS20       0.2260
     61  O         28.9690   27.8940   37.4260 O.2    20  LYS20      -0.2867
     62  CB        26.2830   28.1700   35.8950 C.3    20  LYS20       0.0271
     63  CG        25.4450   29.3200   36.5000 C.3    20  LYS20       0.0035
     64  CD        24.0320   28.8650   36.8210 C.3    20  LYS20       0.0206
     65  CE        23.1210   30.0030   37.2050 C.3    20  LYS20       0.1093
     66  NZ        21.7610   29.5040   37.5500 N.3    20  LYS20      -0.1314
     67  N         28.9660   32.9850   33.1040 N.3    31  ALA31      -0.1245
     68  CA        29.2750   31.7520   32.3960 C.3    31  ALA31       0.1562
     69  C         30.7770   31.7800   32.2550 C.2    31  ALA31       0.2260
     70  O         31.3390   32.7930   31.8320 O.2    31  ALA31      -0.2867
     71  CB        28.6420   31.7720   31.0350 C.3    31  ALA31       0.0290
     72  N         34.1450   30.0150   30.6300 N.3    33  LYS33      -0.1245
     73  CA        34.6120   29.0530   29.6330 C.3    33  LYS33       0.1561
     74  C         36.1150   28.7970   29.7790 C.2    33  LYS33       0.2260
     75  O         36.9010   29.7380   29.6870 O.2    33  LYS33      -0.2867
     76  CB        34.2890   29.5280   28.2140 C.3    33  LYS33       0.0271
     77  CG        34.2760   28.3840   27.2020 C.3    33  LYS33       0.0035
     78  CD        34.3120   28.8410   25.7680 C.3    33  LYS33       0.0206
     79  CE        33.3510   29.9520   25.4630 C.3    33  LYS33       0.1093
     80  NZ        33.0430   30.0120   24.0270 N.3    33  LYS33      -0.1314
     81  N         26.1760   38.0050   23.2240 N.3    64  VAL64      -0.1245
     82  CA        26.4780   37.6120   24.6080 C.3    64  VAL64       0.1561
     83  C         27.7480   38.3740   25.0200 C.2    64  VAL64       0.2260
     84  O         28.8020   38.2160   24.3920 O.2    64  VAL64      -0.2867
     85  CB        26.6220   36.0750   24.7750 C.3    64  VAL64       0.0252
     86  CG1       27.1150   35.7030   26.1670 C.3    64  VAL64       0.0019
     87  CG2       25.2970   35.3900   24.4820 C.3    64  VAL64       0.0019
     88  N         31.6460   35.2830   30.5800 N.3    80  PHE80      -0.1227
     89  CA        30.5460   35.7950   29.7720 C.3    80  PHE80       0.1736
     90  C         29.3570   36.1400   30.6180 C.2    80  PHE80       0.2598
     91  O         29.1910   35.5690   31.7060 O.2    80  PHE80      -0.2717
     92  CB        30.1270   34.7360   28.7270 C.3    80  PHE80       0.0547
     93  CG        31.0790   34.5890   27.5600 C.ar   80  PHE80      -0.0202
     94  CD1       31.0570   35.4920   26.5090 C.ar   80  PHE80      -0.0042
     95  CD2       32.0100   33.5550   27.5270 C.ar   80  PHE80      -0.0042
     96  CE1       31.9500   35.3690   25.4420 C.ar   80  PHE80      -0.0003
     97  CE2       32.8950   33.4270   26.4540 C.ar   80  PHE80      -0.0003
     98  CZ        32.8700   34.3410   25.4210 C.ar   80  PHE80      -0.0000
     99  N         28.4900   37.0430   30.1150 N.am   81  GLU81      -0.1920
    100  CA        27.2080   37.2770   30.7980 C.3    81  GLU81       0.1949
    101  C         26.4360   35.9500   30.6960 C.2    81  GLU81       0.2659
    102  O         26.5960   35.2060   29.7180 O.2    81  GLU81      -0.2711
    103  CB        26.3990   38.4340   30.1740 C.2    81  GLU81       0.0111
    104  CG        25.8090   38.1490   28.8140 C.2    81  GLU81       0.0838
    105  CD        24.8140   39.1440   28.2520 C.2    81  GLU81       0.3877
    106  OE1       23.6930   39.2480   28.7870 O.co2  81  GLU81      -0.2406
    107  OE2       25.1010   39.7000   27.1740 O.co2  81  GLU81      -0.2406
    108  N         25.6590   35.6310   31.7090 N.am   82  PHE82      -0.1957
    109  CA        24.9240   34.3810   31.7460 C.3    82  PHE82       0.1771
    110  C         23.4900   34.5520   31.2460 C.2    82  PHE82       0.2619
    111  O         22.8240   35.5060   31.6450 O.2    82  PHE82      -0.2715
    112  CB        24.9100   33.8480   33.1900 C.3    82  PHE82       0.0574
    113  CG        24.1050   32.5950   33.3910 C.ar   82  PHE82      -0.0200
    114  CD1       24.6510   31.3490   33.1160 C.ar   82  PHE82      -0.0042
    115  CD2       22.7980   32.6570   33.8670 C.ar   82  PHE82      -0.0042
    116  CE1       23.9020   30.1880   33.2980 C.ar   82  PHE82      -0.0003
    117  CE2       22.0480   31.4960   34.0290 C.ar   82  PHE82      -0.0003
    118  CZ        22.6060   30.2720   33.7440 C.ar   82  PHE82      -0.0000
    119  N         23.0090   33.5900   30.4230 N.am   83  LEU83      -0.1963
    120  CA        21.6150   33.5240   29.9570 C.3    83  LEU83       0.1728
    121  C         21.1030   32.1360   30.3100 C.2    83  LEU83       0.2616
    122  O         21.8650   31.1850   30.2670 O.2    83  LEU83      -0.2715
    123  CB        21.4320   33.8830   28.4650 C.3    83  LEU83       0.0311
    124  CG        21.3570   35.4230   28.1540 C.3    83  LEU83       0.0022
    125  CD1       22.7510   36.0270   28.0460 C.3    83  LEU83       0.0001
    126  CD2       20.6250   35.7040   26.8320 C.3    83  LEU83       0.0001
    127  N         19.8590   32.0260   30.7370 N.am   84  HIS84      -0.1959
    128  CA        19.3060   30.7740   31.2530 C.3    84  HIS84       0.1787
    129  C         18.9290   29.7120   30.2370 C.2    84  HIS84       0.2620
    130  O         18.8790   28.5340   30.5930 O.2    84  HIS84      -0.2715
    131  CB        18.0880   31.0820   32.1260 C.3    84  HIS84       0.0785
    132  CG        18.4470   31.7840   33.3970 C.ar   84  HIS84       0.0821
    133  ND1       18.7720   33.1370   33.4110 N.ar   84  HIS84      -0.2267
    134  CD2       18.5130   31.3000   34.6590 C.ar   84  HIS84       0.1154
    135  CE1       19.0270   33.4280   34.6740 C.ar   84  HIS84       0.1986
    136  NE2       18.8770   32.3560   35.4620 N.ar   84  HIS84      -0.2212
    137  N         18.6560   30.0890   28.9930 N.am   85  GLN85      -0.1963
    138  CA        18.2180   29.0720   28.0350 C.3    85  GLN85       0.1733
    139  C         18.7800   29.3010   26.6480 C.2    85  GLN85       0.2616
    140  O         19.1760   30.4250   26.3150 O.2    85  GLN85      -0.2715
    141  CB        16.6720   29.0390   28.0120 C.3    85  GLN85       0.0408
    142  CG        16.0870   27.7370   27.4290 C.3    85  GLN85       0.0908
    143  CD        14.6190   27.5720   27.6850 C.2    85  GLN85       0.2608
    144  OE1       13.8510   27.2720   26.7690 O.2    85  GLN85      -0.2717
    145  NE2       14.1990   27.7170   28.9430 N.am   85  GLN85      -0.0878
    146  N         18.8270   28.2440   25.8390 N.am   86  ASP86      -0.1971
    147  CA        19.2680   28.3690   24.4590 C.3    86  ASP86       0.1709
    148  C         18.1200   28.0440   23.5230 C.2    86  ASP86       0.2293
    149  O         17.1780   27.3700   23.9530 O.2    86  ASP86      -0.2864
    150  CB        20.5070   27.5240   24.1670 C.3    86  ASP86       0.1436
    151  CG        20.3330   26.0230   24.3340 C.2    86  ASP86       0.3671
    152  OD1       19.4660   25.4470   23.6580 O.co2  86  ASP86      -0.2456
    153  OD2       21.1020   25.4280   25.0870 O.co2  86  ASP86      -0.2456
    154  N         16.8970   24.1300   23.1750 N.3    89  LYS89      -0.1245
    155  CA        16.0040   23.6850   24.2640 C.3    89  LYS89       0.1561
    156  C         14.6300   24.3140   24.1190 C.2    89  LYS89       0.2260
    157  O         13.6290   23.6600   24.4020 O.2    89  LYS89      -0.2867
    158  CB        16.5780   24.0460   25.6410 C.3    89  LYS89       0.0271
    159  CG        17.9330   23.4140   25.9520 C.3    89  LYS89       0.0035
    160  CD        18.3790   23.6720   27.4090 C.3    89  LYS89       0.0206
    161  CE        18.8480   25.0930   27.6560 C.3    89  LYS89       0.1093
    162  NZ        19.0090   25.3830   29.1060 N.3    89  LYS89      -0.1314
    163  N         24.5190   28.0520   15.3420 N.3   129  LYS129     -0.1245
    164  CA        23.6230   26.9100   15.5350 C.3   129  LYS129      0.1561
    165  C         22.6580   27.1940   16.6730 C.2   129  LYS129      0.2260
    166  O         22.9410   28.0870   17.4820 O.2   129  LYS129     -0.2867
    167  CB        24.4000   25.5850   15.7190 C.3   129  LYS129      0.0271
    168  CG        25.3920   25.5300   16.8620 C.3   129  LYS129      0.0035
    169  CD        26.4010   24.4200   16.6200 C.3   129  LYS129      0.0206
    170  CE        27.3910   24.2380   17.7380 C.3   129  LYS129      0.1093
    171  NZ        28.3150   25.3960   17.8510 N.3   129  LYS129     -0.1314
    172  N         22.1150   25.8750   19.4930 N.3   131  GLN131     -0.1231
    173  CA        22.8440   25.7430   20.7780 C.3   131  GLN131      0.1698
    174  C         23.6380   27.0000   21.1410 C.2   131  GLN131      0.2592
    175  O         23.8540   27.2530   22.3190 O.2   131  GLN131     -0.2718
    176  CB        23.7960   24.5360   20.7530 C.3   131  GLN131      0.0381
    177  CG        23.1030   23.1560   20.6520 C.3   131  GLN131      0.0905
    178  CD        22.7380   22.6740   19.2520 C.2   131  GLN131      0.2608
    179  OE1       22.6520   23.4330   18.2570 O.2   131  GLN131     -0.2717
    180  NE2       22.4620   21.3820   19.1620 N.am  131  GLN131     -0.0878
    181  N         24.0360   27.8000   20.1390 N.am  132  ASN132     -0.1974
    182  CA        24.8030   29.0590   20.3210 C.3   132  ASN132      0.1688
    183  C         23.9480   30.2920   20.4710 C.2   132  ASN132      0.2292
    184  O         24.4970   31.3940   20.4760 O.2   132  ASN132     -0.2864
    185  CB        25.6570   29.3050   19.0580 C.3   132  ASN132      0.1181
    186  CG        26.8310   28.4220   18.9880 C.2   132  ASN132      0.2629
    187  OD1       27.2100   27.9750   17.9240 O.2   132  ASN132     -0.2716
    188  ND2       27.4120   28.1250   20.1290 N.am  132  ASN132     -0.0877
    189  N         21.2920   32.3310   22.6120 N.3   134  LEU134     -0.1245
    190  CA        20.8100   32.4050   23.9730 C.3   134  LEU134      0.1561
    191  C         19.6780   33.3720   24.1460 C.2   134  LEU134      0.2260
    192  O         19.6810   34.4620   23.5610 O.2   134  LEU134     -0.2867
    193  CB        21.9760   32.6980   24.9280 C.3   134  LEU134      0.0270
    194  CG        23.2210   31.7760   24.7920 C.3   134  LEU134      0.0019
    195  CD1       24.2760   32.1620   25.8000 C.3   134  LEU134      0.0001
    196  CD2       22.8440   30.3070   24.9680 C.3   134  LEU134      0.0001
    197  N         26.2340   33.8280   20.7620 N.3   144  ALA144     -0.1231
    198  CA        27.2630   33.3960   21.7140 C.3   144  ALA144      0.1694
    199  C         28.3440   32.6740   20.9390 C.2   144  ALA144      0.2592
    200  O         28.0450   32.0950   19.8990 O.2   144  ALA144     -0.2718
    201  CB        26.6620   32.4690   22.7550 C.3   144  ALA144      0.0304
    202  N         29.6010   32.7150   21.4230 N.am  145  ASP145     -0.1974
    203  CA        30.7890   32.1330   20.7460 C.3   145  ASP145      0.1709
    204  C         31.2300   32.9640   19.5300 C.2   145  ASP145      0.2293
    205  O         31.9800   32.4570   18.6940 O.2   145  ASP145     -0.2864
    206  CB        30.5850   30.6590   20.3350 C.3   145  ASP145      0.1436
    207  CG        30.6300   29.6730   21.4700 C.2   145  ASP145      0.3671
    208  OD1       30.6820   30.1160   22.6270 O.co2 145  ASP145     -0.2456
    209  OD2       30.6530   28.4480   21.1930 O.co2 145  ASP145     -0.2456
@<TRIPOS>BOND
     1   163   164    1
     2   164   167    1
     3   164   165    1
     4   167   168    1
     5   169   168    1
     6   169   170    1
     7   165   166    2
     8   170   171    1
     9   187   186    2
    10   179   178    2
    11   205   204    2
    12    49    48    1
    13   186   185    1
    14   186   188   am
    15   185   182    1
    16   180   178   am
    17   178   177    1
    18   172   173    1
    19   204   203    1
    20    48    50    1
    21    48    45    1
    22   200   199    2
    23   181   182    1
    24   181   174   am
    25   182   183    1
    26   206   203    1
    27   206   207    1
    28   183   184    2
    29   177   176    1
    30   203   202    1
    31   176   173    1
    32   197   198    1
    33   173   174    1
    34   199   202   am
    35   199   198    1
    36    45    46    1
    37    45    44    1
    38   174   175    2
    39    47    46    2
    40   209   207   ar
    41   207   208   ar
    42   198   201    1
    43    44    42   am
    44   189   190    1
    45    42    43    2
    46    42    41    1
    47   154   155    1
    48    81    82    1
    49   148   149    2
    50   148   147    1
    51   192   191    2
    52   152   151   ar
    53    41    40    1
    54   190   191    1
    55   190   193    1
    56    80    79    1
    57   156   155    1
    58   156   157    2
    59   150   151    1
    60   150   147    1
    61   155   158    1
    62   151   153   ar
    63    84    83    2
    64   147   146    1
    65    87    85    1
    66    82    85    1
    67    82    83    1
    68    34    33    2
    69    85    86    1
    70   194   193    1
    71   194   196    1
    72   194   195    1
    73    40    33   am
    74    98    96   ar
    75    98    97   ar
    76    96    94   ar
    77    79    78    1
    78    33    32    1
    79   158   159    1
    80    78    77    1
    81   146   139   am
    82   159   160    1
    83   140   139    2
    84    97    95   ar
    85    94    93   ar
    86   139   138    1
    87   144   143    2
    88   126   124    1
    89    32    35    1
    90    32    31    1
    91   107   105   ar
    92    77    76    1
    93    35    36    1
    94   160   161    1
    95   142   143    1
    96   142   141    1
    97    95    93   ar
    98    93    92    1
    99    31    29   am
   100   161   162    1
   101   143   145   am
   102    57    55    1
   103   141   138    1
   104   138   137    1
   105   125   124    1
   106   124   123    1
   107    76    73    1
   108   105   106   ar
   109   105   104    1
   110    39    37   ar
   111    29    30    2
   112    29    28    1
   113   123   120    1
   114    92    89    1
   115    36    37    1
   116   104   103    2
   117    28    27    1
   118   137   129   am
   119    55    56    1
   120    55    52    1
   121    37    38   ar
   122    73    74    1
   123    73    72    1
   124    22    21    2
   125    75    74    2
   126    25    23    1
   127   102   101    2
   128    51    52    1
   129    89    88    1
   130    89    90    1
   131   120   121    1
   132   120   119    1
   133    27    21   am
   134    99    90   am
   135    99   100    1
   136    52    53    1
   137   103   100    1
   138   129   130    2
   139   129   128    1
   140   122   121    2
   141    21    20    1
   142   121   127   am
   143   119   110   am
   144    90    91    2
   145   101   100    1
   146   101   108   am
   147   127   128    1
   148    71    68    1
   149    23    20    1
   150    23    24    1
   151   110   111    2
   152   110   109    1
   153   128   131    1
   154    53    54    2
   155    20    19    1
   156   108   109    1
   157   109   112    1
   158    70    69    2
   159    26    24    1
   160   131   132    1
   161    69    68    1
   162    68    67    1
   163    19    12   am
   164   114   116   ar
   165   114   113   ar
   166   112   113    1
   167    12    13    2
   168    12    11    1
   169   116   118   ar
   170   113   115   ar
   171   132   133   ar
   172   132   134   ar
   173   133   135   ar
   174   118   117   ar
   175    14    11    1
   176    14    15    1
   177   115   117   ar
   178    11    10    1
   179    17    16    1
   180    17    18    1
   181    16    15    1
   182   134   136   ar
   183   135   136   ar
   184    58    59    1
   185    10     3   am
   186    59    62    1
   187    59    60    1
   188     4     3    2
   189     8     7   ar
   190    62    63    1
   191     3     2    1
   192    63    64    1
   193     7     6    1
   194     7     9   ar
   195    60    61    2
   196     6     5    2
   197    64    65    1
   198    65    66    1
   199     5     2    1
   200     2     1    1
