@<TRIPOS>MOLECULE
tmp/4lypA00.pdb
 128 129 0 0 0
SMALL
GASTEIGER

@<TRIPOS>ATOM
      1  N         41.8520   81.4760   44.5800 N.3   120  TRP120     -0.1241
      2  CA        42.2280   82.6290   43.7980 C.3   120  TRP120      0.1605
      3  C         41.1090   83.6270   43.6430 C.2   120  TRP120      0.2264
      4  O         39.9270   83.4280   44.0160 O.2   120  TRP120     -0.2867
      5  CB        42.8060   82.1850   42.4410 C.3   120  TRP120      0.0550
      6  CG        43.9700   81.2850   42.6330 C.ar  120  TRP120      0.0003
      7  CD1       44.0160   79.9350   42.3640 C.ar  120  TRP120      0.0946
      8  CD2       45.2580   81.6040   43.1930 C.ar  120  TRP120      0.0152
      9  NE1       45.2420   79.3990   42.7500 N.ar  120  TRP120     -0.2442
     10  CE2       46.0180   80.4150   43.2500 C.ar  120  TRP120      0.0810
     11  CE3       45.8280   82.8130   43.6920 C.ar  120  TRP120      0.0012
     12  CZ2       47.3080   80.3780   43.7740 C.ar  120  TRP120      0.0191
     13  CZ3       47.1010   82.7480   44.2430 C.ar  120  TRP120      0.0001
     14  CH2       47.8490   81.5510   44.2820 C.ar  120  TRP120      0.0015
     15  N         39.6030   85.1650   40.9930 N.3   122  TRP122     -0.1241
     16  CA        38.7540   85.3250   39.7840 C.3   122  TRP122      0.1605
     17  C         37.3350   84.9820   39.9820 C.2   122  TRP122      0.2264
     18  O         36.4900   85.2560   39.1280 O.2   122  TRP122     -0.2867
     19  CB        39.3970   84.6250   38.6190 C.3   122  TRP122      0.0550
     20  CG        39.7180   83.1610   38.7840 C.ar  122  TRP122      0.0003
     21  CD1       40.9580   82.6010   39.0970 C.ar  122  TRP122      0.0946
     22  CD2       38.7850   82.0390   38.5320 C.ar  122  TRP122      0.0152
     23  NE1       40.8550   81.2370   39.0700 N.ar  122  TRP122     -0.2442
     24  CE2       39.5690   80.8470   38.7070 C.ar  122  TRP122      0.0810
     25  CE3       37.4450   81.9190   38.2100 C.ar  122  TRP122      0.0012
     26  CZ2       39.0370   79.5730   38.5440 C.ar  122  TRP122      0.0191
     27  CZ3       36.9320   80.6670   38.0260 C.ar  122  TRP122      0.0001
     28  CH2       37.7190   79.4790   38.1950 C.ar  122  TRP122      0.0015
     29  N         39.0670   75.3500   44.4680 N.3   204  ASN204     -0.1225
     30  CA        40.1390   75.3480   43.4730 C.3   204  ASN204      0.1785
     31  C         41.4700   75.7560   44.1750 C.2   204  ASN204      0.2597
     32  O         41.6130   76.8890   44.6530 O.2   204  ASN204     -0.2718
     33  CB        39.7990   76.3550   42.3800 C.3   204  ASN204      0.1169
     34  CG        40.8530   76.4040   41.3440 C.2   204  ASN204      0.2627
     35  OD1       41.2660   75.3370   40.8060 O.2   204  ASN204     -0.2716
     36  ND2       41.3370   77.5840   41.0270 N.am  204  ASN204     -0.0877
     37  N         42.4300   74.8170   44.1740 N.am  205  GLU205     -0.1979
     38  CA        43.8500   75.0890   44.5090 C.3   205  GLU205      0.1602
     39  C         44.0710   75.6810   45.9070 C.2   205  GLU205      0.2287
     40  O         44.7470   76.6900   46.0310 O.2   205  GLU205     -0.2864
     41  CB        44.5000   75.9420   43.4500 C.3   205  GLU205      0.0415
     42  CG        44.4060   75.3380   42.0450 C.3   205  GLU205      0.1163
     43  CD        45.2760   76.0140   41.0450 C.2   205  GLU205      0.3649
     44  OE1       45.9460   77.0470   41.3750 O.co2 205  GLU205     -0.2457
     45  OE2       45.3860   75.4870   39.8890 O.co2 205  GLU205     -0.2457
     46  N         50.8620   73.1440   35.0900 N.3   260  TRP260     -0.1241
     47  CA        50.9410   74.4810   34.4650 C.3   260  TRP260      0.1605
     48  C         52.3310   74.9080   34.1380 C.2   260  TRP260      0.2264
     49  O         52.9600   75.6670   34.8660 O.2   260  TRP260     -0.2867
     50  CB        50.2080   75.4930   35.3440 C.3   260  TRP260      0.0550
     51  CG        48.7220   75.2860   35.3280 C.ar  260  TRP260      0.0003
     52  CD1       47.8820   74.8860   36.3140 C.ar  260  TRP260      0.0946
     53  CD2       47.9270   75.4710   34.1420 C.ar  260  TRP260      0.0152
     54  NE1       46.5650   74.7670   35.8170 N.ar  260  TRP260     -0.2442
     55  CE2       46.6180   75.1370   34.4900 C.ar  260  TRP260      0.0810
     56  CE3       48.2180   75.8840   32.8220 C.ar  260  TRP260      0.0012
     57  CZ2       45.5730   75.2640   33.5700 C.ar  260  TRP260      0.0191
     58  CZ3       47.2090   75.9750   31.9080 C.ar  260  TRP260      0.0001
     59  CH2       45.8970   75.6260   32.2780 C.ar  260  TRP260      0.0015
     60  N         53.0560   78.8320   33.8360 N.3   263  ASN263     -0.1240
     61  CA        52.9030   79.5380   35.0860 C.3   263  ASN263      0.1653
     62  C         54.0410   79.2310   36.0180 C.2   263  ASN263      0.2266
     63  O         54.4520   80.0920   36.8060 O.2   263  ASN263     -0.2867
     64  CB        51.6140   79.0650   35.7970 C.3   263  ASN263      0.1155
     65  CG        50.3530   79.2170   34.9400 C.2   263  ASN263      0.2627
     66  OD1       50.3410   78.7610   33.8050 O.2   263  ASN263     -0.2716
     67  ND2       49.3270   79.7940   35.4970 N.am  263  ASN263     -0.0877
     68  N         43.2950   69.8130   35.5710 N.3   304  GLU304     -0.1245
     69  CA        43.6590   71.0250   34.8030 C.3   304  GLU304      0.1567
     70  C         44.9750   70.7580   34.1400 C.2   304  GLU304      0.2260
     71  O         45.9280   70.2550   34.7780 O.2   304  GLU304     -0.2867
     72  CB        43.8950   72.2660   35.6670 C.3   304  GLU304      0.0388
     73  CG        42.6620   72.7510   36.4330 C.3   304  GLU304      0.1160
     74  CD        42.8790   74.1420   37.0160 C.2   304  GLU304      0.3649
     75  OE1       43.9050   74.7900   36.7440 O.co2 304  GLU304     -0.2457
     76  OE2       41.9850   74.6130   37.7880 O.co2 304  GLU304     -0.2457
     77  N         42.2100   72.5730   30.4600 N.3   357  TRP357     -0.1241
     78  CA        41.8080   73.9320   30.8840 C.3   357  TRP357      0.1605
     79  C         42.1160   74.8680   29.7180 C.2   357  TRP357      0.2264
     80  O         43.2690   75.0910   29.4210 O.2   357  TRP357     -0.2867
     81  CB        42.5930   74.3390   32.1090 C.3   357  TRP357      0.0550
     82  CG        42.2210   75.7410   32.5180 C.ar  357  TRP357      0.0003
     83  CD1       42.5730   76.9500   31.8930 C.ar  357  TRP357      0.0946
     84  CD2       41.3060   76.0910   33.5750 C.ar  357  TRP357      0.0152
     85  NE1       41.9400   77.9920   32.5050 N.ar  357  TRP357     -0.2442
     86  CE2       41.1250   77.5200   33.5270 C.ar  357  TRP357      0.0810
     87  CE3       40.6030   75.3490   34.5620 C.ar  357  TRP357      0.0012
     88  CZ2       40.3210   78.2110   34.4590 C.ar  357  TRP357      0.0191
     89  CZ3       39.7790   76.0360   35.4590 C.ar  357  TRP357      0.0001
     90  CH2       39.6500   77.4580   35.4050 C.ar  357  TRP357      0.0015
     91  N         39.6800   82.9520   32.9160 N.3   380  PRO380     -0.2116
     92  CA        38.9890   83.8570   33.8600 C.3   380  PRO380      0.1372
     93  C         39.5640   85.2670   33.7970 C.2   380  PRO380      0.2244
     94  O         40.6310   85.5030   33.2390 O.2   380  PRO380     -0.2868
     95  CB        39.2290   83.1620   35.2410 C.3   380  PRO380      0.0268
     96  CG        39.6600   81.7490   34.9370 C.3   380  PRO380      0.0207
     97  CD        40.4050   81.8650   33.6160 C.3   380  PRO380      0.0892
     98  N         41.0470   87.3280   35.6480 N.3   382  HIS382     -0.1226
     99  CA        42.3230   87.7120   36.2350 C.3   382  HIS382      0.1752
    100  C         43.4930   87.4360   35.2520 C.2   382  HIS382      0.2595
    101  O         44.6470   87.7480   35.6090 O.2   382  HIS382     -0.2718
    102  CB        42.5860   87.0310   37.5620 C.3   382  HIS382      0.0759
    103  CG        42.8840   85.5720   37.4080 C.ar  382  HIS382      0.0818
    104  ND1       42.1640   84.7680   36.5400 N.ar  382  HIS382     -0.2268
    105  CD2       43.8630   84.7980   37.9960 C.ar  382  HIS382      0.1154
    106  CE1       42.6850   83.5430   36.6020 C.ar  382  HIS382      0.1986
    107  NE2       43.6990   83.5370   37.4740 N.ar  382  HIS382     -0.2212
    108  N         43.1940   86.8860   34.0720 N.am  383  GLU383     -0.1979
    109  CA        44.1950   86.5190   33.0880 C.3   383  GLU383      0.1602
    110  C         43.8240   87.0890   31.7670 C.2   383  GLU383      0.2287
    111  O         42.6620   87.3850   31.4890 O.2   383  GLU383     -0.2864
    112  CB        44.1850   84.9620   32.9660 C.3   383  GLU383      0.0415
    113  CG        44.9360   84.3360   34.1380 C.3   383  GLU383      0.1163
    114  CD        44.7730   82.8440   34.2760 C.2   383  GLU383      0.3649
    115  OE1       43.9640   82.1990   33.5780 O.co2 383  GLU383     -0.2457
    116  OE2       45.5520   82.2710   35.0800 O.co2 383  GLU383     -0.2457
    117  N         44.6030   80.4670   27.2490 N.3   388  TYR388     -0.1241
    118  CA        44.6060   79.0030   27.2390 C.3   388  TYR388      0.1605
    119  C         43.3380   78.4470   26.5700 C.2   388  TYR388      0.2264
    120  O         43.2840   77.2270   26.3160 O.2   388  TYR388     -0.2867
    121  CB        44.6760   78.4870   28.6940 C.3   388  TYR388      0.0534
    122  CG        46.0330   78.6880   29.3570 C.ar  388  TYR388     -0.0201
    123  CD1       47.1810   78.3690   28.6640 C.ar  388  TYR388     -0.0009
    124  CD2       46.1280   79.1250   30.6570 C.ar  388  TYR388     -0.0009
    125  CE1       48.4410   78.4330   29.3040 C.ar  388  TYR388      0.0417
    126  CE2       47.3430   79.1650   31.3060 C.ar  388  TYR388      0.0417
    127  CZ        48.4860   78.7890   30.6220 C.ar  388  TYR388      0.1957
    128  OH        49.7570   78.7440   31.2230 O.3   388  TYR388     -0.2866
@<TRIPOS>BOND
     1   120   119    2
     2   119   118    1
     3   118   117    1
     4   118   121    1
     5   123   125   ar
     6   123   122   ar
     7   121   122    1
     8   125   127   ar
     9   122   124   ar
    10    80    79    2
    11    79    78    1
    12    77    78    1
    13   127   128    1
    14   127   126   ar
    15   124   126   ar
    16    78    81    1
    17   111   110    2
    18   110   109    1
    19    83    85   ar
    20    83    82   ar
    21    58    59   ar
    22    58    56   ar
    23    81    82    1
    24    59    57   ar
    25    85    86   ar
    26    82    84   ar
    27    56    53   ar
    28    91    97    1
    29    91    92    1
    30   112   109    1
    31   112   113    1
    32   109   108    1
    33    94    93    2
    34    86    84   ar
    35    86    88   ar
    36    57    55   ar
    37    84    87   ar
    38   115   114   ar
    39    97    96    1
    40    93    92    1
    41    66    65    2
    42    60    61    1
    43    92    95    1
    44   108   100   am
    45   113   114    1
    46    48    47    1
    47    48    49    2
    48    70    71    2
    49    70    69    1
    50    53    55   ar
    51    53    51   ar
    52   114   116   ar
    53    88    90   ar
    54    47    46    1
    55    47    50    1
    56    55    54   ar
    57    87    89   ar
    58    69    68    1
    59    69    72    1
    60    96    95    1
    61    65    67   am
    62    65    64    1
    63    61    64    1
    64    61    62    1
    65   100   101    2
    66   100    99    1
    67    51    50    1
    68    51    52   ar
    69    90    89   ar
    70    98    99    1
    71    72    73    1
    72    54    52   ar
    73    62    63    2
    74    99   102    1
    75    73    74    1
    76   104   106   ar
    77   104   103   ar
    78   106   107   ar
    79    75    74   ar
    80    74    76   ar
    81   103   102    1
    82   103   105   ar
    83   107   105   ar
    84    27    28   ar
    85    27    25   ar
    86    28    26   ar
    87    25    22   ar
    88    22    24   ar
    89    22    20   ar
    90    26    24   ar
    91    19    20    1
    92    19    16    1
    93    24    23   ar
    94    20    21   ar
    95    23    21   ar
    96    18    17    2
    97    16    17    1
    98    16    15    1
    99    45    43   ar
   100    35    34    2
   101    36    34   am
   102    43    44   ar
   103    43    42    1
   104    34    33    1
   105    42    41    1
   106     7     6   ar
   107     7     9   ar
   108    33    30    1
   109     5     6    1
   110     5     2    1
   111     6     8   ar
   112     9    10   ar
   113     8    10   ar
   114     8    11   ar
   115    10    12   ar
   116    41    38    1
   117    30    31    1
   118    30    29    1
   119     3     2    1
   120     3     4    2
   121    11    13   ar
   122    12    14   ar
   123     2     1    1
   124    37    31   am
   125    37    38    1
   126    31    32    2
   127    13    14   ar
   128    38    39    1
   129    39    40    2
