@<TRIPOS>MOLECULE
tmp/4lypB00.pdb
 142 145 0 0 0
SMALL
GASTEIGER

@<TRIPOS>ATOM
      1  N         36.4100  113.8930   31.8030 N.3   121  TRP121     -0.1241
      2  CA        36.8820  112.9300   32.8040 C.3   121  TRP121      0.1605
      3  C         36.4640  111.5350   32.5450 C.2   121  TRP121      0.2264
      4  O         35.6590  111.2090   31.6680 O.2   121  TRP121     -0.2867
      5  CB        36.4990  113.4170   34.2310 C.3   121  TRP121      0.0550
      6  CG        37.0110  114.8010   34.4970 C.ar  121  TRP121      0.0003
      7  CD1       36.2460  115.9420   34.6260 C.ar  121  TRP121      0.0946
      8  CD2       38.4020  115.2150   34.5950 C.ar  121  TRP121      0.0152
      9  NE1       37.0890  117.0320   34.8250 N.ar  121  TRP121     -0.2442
     10  CE2       38.3970  116.6520   34.8080 C.ar  121  TRP121      0.0810
     11  CE3       39.6030  114.5560   34.5080 C.ar  121  TRP121      0.0012
     12  CZ2       39.5450  117.3810   34.9420 C.ar  121  TRP121      0.0191
     13  CZ3       40.7570  115.3380   34.5940 C.ar  121  TRP121      0.0001
     14  CH2       40.7190  116.6990   34.8240 C.ar  121  TRP121      0.0015
     15  N         34.8870  109.1850   34.4000 N.3   123  TRP123     -0.1241
     16  CA        33.8180  108.4770   35.0900 C.3   123  TRP123      0.1605
     17  C         32.5950  108.1550   34.2390 C.2   123  TRP123      0.2264
     18  O         31.7230  107.4330   34.6720 O.2   123  TRP123     -0.2867
     19  CB        33.3850  109.2640   36.3230 C.3   123  TRP123      0.0550
     20  CG        32.9890  110.7180   36.1390 C.ar  123  TRP123      0.0003
     21  CD1       33.8110  111.7980   36.3820 C.ar  123  TRP123      0.0946
     22  CD2       31.6790  111.2300   35.8130 C.ar  123  TRP123      0.0152
     23  NE1       33.0780  112.9590   36.2040 N.ar  123  TRP123     -0.2442
     24  CE2       31.7770  112.6590   35.9010 C.ar  123  TRP123      0.0810
     25  CE3       30.4410  110.6440   35.4920 C.ar  123  TRP123      0.0012
     26  CZ2       30.6850  113.4850   35.6430 C.ar  123  TRP123      0.0191
     27  CZ3       29.3760  111.5040   35.2600 C.ar  123  TRP123      0.0001
     28  CH2       29.5110  112.8940   35.3060 C.ar  123  TRP123      0.0015
     29  N         31.3770  117.9030   29.8630 N.3   205  ASN205     -0.1225
     30  CA        31.7530  118.2880   31.2420 C.3   205  ASN205      0.1785
     31  C         33.2270  118.6370   31.2910 C.2   205  ASN205      0.2597
     32  O         34.1000  117.7950   31.0850 O.2   205  ASN205     -0.2718
     33  CB        31.4480  117.1270   32.1570 C.3   205  ASN205      0.1169
     34  CG        31.7640  117.4480   33.5940 C.2   205  ASN205      0.2627
     35  OD1       31.3230  118.4680   34.1090 O.2   205  ASN205     -0.2716
     36  ND2       32.5230  116.5740   34.2220 N.am  205  ASN205     -0.0877
     37  N         33.5180  119.9060   31.6310 N.am  206  GLU206     -0.1979
     38  CA        34.8510  120.3760   32.0320 C.3   206  GLU206      0.1602
     39  C         35.9740  120.1500   30.9820 C.2   206  GLU206      0.2287
     40  O         37.0160  119.5930   31.3400 O.2   206  GLU206     -0.2864
     41  CB        35.2430  119.7990   33.3940 C.3   206  GLU206      0.0415
     42  CG        34.2270  120.1440   34.4770 C.3   206  GLU206      0.1163
     43  CD        34.6760  119.8080   35.8890 C.2   206  GLU206      0.3649
     44  OE1       35.7060  119.1130   36.0380 O.co2 206  GLU206     -0.2457
     45  OE2       33.9830  120.2300   36.8580 O.co2 206  GLU206     -0.2457
     46  N         34.9700  124.3280   43.1890 N.3   261  TRP261     -0.1241
     47  CA        35.3860  123.1550   43.9440 C.3   261  TRP261      0.1605
     48  C         36.4980  123.4450   44.9410 C.2   261  TRP261      0.2264
     49  O         37.6560  123.1460   44.6850 O.2   261  TRP261     -0.2867
     50  CB        35.7500  122.0100   42.9470 C.3   261  TRP261      0.0550
     51  CG        34.4910  121.5050   42.3060 C.ar  261  TRP261      0.0003
     52  CD1       34.0650  121.5950   40.9960 C.ar  261  TRP261      0.0946
     53  CD2       33.4410  120.8310   43.0210 C.ar  261  TRP261      0.0152
     54  NE1       32.8530  121.0270   40.8380 N.ar  261  TRP261     -0.2442
     55  CE2       32.4160  120.5420   42.0680 C.ar  261  TRP261      0.0810
     56  CE3       33.2730  120.4270   44.3550 C.ar  261  TRP261      0.0012
     57  CZ2       31.2820  119.8660   42.3880 C.ar  261  TRP261      0.0191
     58  CZ3       32.1070  119.7760   44.6910 C.ar  261  TRP261      0.0001
     59  CH2       31.1040  119.4830   43.7450 C.ar  261  TRP261      0.0015
     60  N         38.7520  120.2930   46.0450 N.3   264  ASN264     -0.1240
     61  CA        39.5470  119.7800   44.9480 C.3   264  ASN264      0.1653
     62  C         40.7220  120.6940   44.6380 C.2   264  ASN264      0.2266
     63  O         41.7850  120.2150   44.2440 O.2   264  ASN264     -0.2867
     64  CB        38.6880  119.6270   43.6430 C.3   264  ASN264      0.1155
     65  CG        37.4280  118.7950   43.8360 C.2   264  ASN264      0.2627
     66  OD1       36.6670  119.0190   44.7800 O.2   264  ASN264     -0.2716
     67  ND2       37.2210  117.8530   42.9520 N.am  264  ASN264     -0.0877
     68  N         27.9210  123.7410   38.9210 N.3   305  GLU305     -0.1245
     69  CA        28.4060  122.7670   39.9140 C.3   305  GLU305      0.1567
     70  C         29.0030  123.5330   41.0360 C.2   305  GLU305      0.2260
     71  O         29.7340  124.4900   40.8610 O.2   305  GLU305     -0.2867
     72  CB        29.5000  121.8760   39.4200 C.3   305  GLU305      0.0388
     73  CG        29.2190  120.9510   38.2690 C.3   305  GLU305      0.1160
     74  CD        30.2900  119.9420   38.0320 C.2   305  GLU305      0.3649
     75  OE1       31.2660  119.8410   38.8400 O.co2 305  GLU305     -0.2457
     76  OE2       30.1720  119.2150   36.9980 O.co2 305  GLU305     -0.2457
     77  N         26.0880  120.1880   43.2700 N.3   358  TRP358     -0.1241
     78  CA        26.6100  118.8950   42.8840 C.3   358  TRP358      0.1605
     79  C         26.7420  118.0530   44.1560 C.2   358  TRP358      0.2264
     80  O         27.5940  118.3810   44.9750 O.2   358  TRP358     -0.2867
     81  CB        27.9650  119.0160   42.2020 C.3   358  TRP358      0.0550
     82  CG        28.5180  117.6960   41.8250 C.ar  358  TRP358      0.0003
     83  CD1       29.0930  116.7490   42.6980 C.ar  358  TRP358      0.0946
     84  CD2       28.4560  117.0490   40.5500 C.ar  358  TRP358      0.0152
     85  NE1       29.3830  115.6200   42.0080 N.ar  358  TRP358     -0.2442
     86  CE2       29.0390  115.7660   40.6960 C.ar  358  TRP358      0.0810
     87  CE3       28.0180  117.4700   39.2700 C.ar  358  TRP358      0.0012
     88  CZ2       29.1650  114.8820   39.5860 C.ar  358  TRP358      0.0191
     89  CZ3       28.1470  116.6300   38.2100 C.ar  358  TRP358      0.0001
     90  CH2       28.7120  115.3550   38.3560 C.ar  358  TRP358      0.0015
     91  N         30.1750  110.2400   41.2730 N.3   381  PRO381     -0.2116
     92  CA        30.5500  109.2460   40.2450 C.3   381  PRO381      0.1372
     93  C         31.5880  108.2580   40.7440 C.2   381  PRO381      0.2244
     94  O         32.3030  108.5010   41.7440 O.2   381  PRO381     -0.2868
     95  CB        31.0340  110.1090   39.0660 C.3   381  PRO381      0.0268
     96  CG        30.4890  111.4830   39.3540 C.3   381  PRO381      0.0207
     97  CD        30.5740  111.6000   40.8780 C.3   381  PRO381      0.0892
     98  N         34.5530  107.4030   40.0130 N.3   383  HIS383     -0.1226
     99  CA        35.9740  107.7250   40.1730 C.3   383  HIS383      0.1752
    100  C         36.2510  108.4090   41.4880 C.2   383  HIS383      0.2595
    101  O         37.4300  108.7290   41.7820 O.2   383  HIS383     -0.2718
    102  CB        36.4640  108.6130   39.0160 C.3   383  HIS383      0.0759
    103  CG        35.8960  110.0050   39.0910 C.ar  383  HIS383      0.0818
    104  ND1       34.5620  110.2540   39.4180 N.ar  383  HIS383     -0.2268
    105  CD2       36.5310  111.2410   38.9540 C.ar  383  HIS383      0.1154
    106  CE1       34.3870  111.5890   39.4490 C.ar  383  HIS383      0.1986
    107  NE2       35.5740  112.1970   39.1750 N.ar  383  HIS383     -0.2212
    108  N         35.2610  108.6420   42.3380 N.am  384  GLU384     -0.1979
    109  CA        35.3720  109.3200   43.6070 C.3   384  GLU384      0.1602
    110  C         34.7300  108.4670   44.6960 C.2   384  GLU384      0.2287
    111  O         33.8920  107.6250   44.4110 O.2   384  GLU384     -0.2864
    112  CB        34.5440  110.6660   43.5360 C.3   384  GLU384      0.0415
    113  CG        35.4070  111.6700   42.7860 C.3   384  GLU384      0.1163
    114  CD        34.6220  112.9440   42.3840 C.2   384  GLU384      0.3649
    115  OE1       33.3820  112.9990   42.5390 O.co2 384  GLU384     -0.2457
    116  OE2       35.3480  113.8590   41.9440 O.co2 384  GLU384     -0.2457
    117  N         30.9720  111.3810   48.9900 N.3   388  TRP388     -0.1227
    118  CA        31.7660  112.5690   49.2370 C.3   388  TRP388      0.1737
    119  C         30.9170  113.8310   49.2490 C.2   388  TRP388      0.2595
    120  O         30.9180  114.5990   50.2370 O.2   388  TRP388     -0.2718
    121  CB        32.8550  112.6680   48.1440 C.3   388  TRP388      0.0564
    122  CG        33.8720  113.7400   48.3300 C.ar  388  TRP388      0.0003
    123  CD1       34.1290  114.5390   49.4280 C.ar  388  TRP388      0.0946
    124  CD2       34.8360  114.1470   47.3310 C.ar  388  TRP388      0.0152
    125  NE1       35.2190  115.3380   49.1880 N.ar  388  TRP388     -0.2442
    126  CE2       35.6630  115.1770   47.9210 C.ar  388  TRP388      0.0810
    127  CE3       35.0750  113.7770   45.9900 C.ar  388  TRP388      0.0012
    128  CZ2       36.6710  115.8140   47.2280 C.ar  388  TRP388      0.0191
    129  CZ3       36.0780  114.4320   45.3020 C.ar  388  TRP388      0.0001
    130  CH2       36.8760  115.3940   45.9040 C.ar  388  TRP388      0.0015
    131  N         30.1630  114.0870   48.2010 N.am  389  TYR389     -0.1976
    132  CA        29.4420  115.3560   48.0010 C.3   389  TYR389      0.1639
    133  C         27.9400  115.1800   47.9510 C.2   389  TYR389      0.2290
    134  O         27.1880  116.1810   47.9740 O.2   389  TYR389     -0.2864
    135  CB        29.9300  116.0140   46.6970 C.3   389  TYR389      0.0560
    136  CG        31.3040  116.5410   46.7790 C.ar  389  TYR389     -0.0198
    137  CD1       31.7250  117.3170   47.8620 C.ar  389  TYR389     -0.0009
    138  CD2       32.2270  116.3510   45.7190 C.ar  389  TYR389     -0.0009
    139  CE1       32.9670  117.9050   47.8700 C.ar  389  TYR389      0.0417
    140  CE2       33.4440  116.9930   45.7210 C.ar  389  TYR389      0.0417
    141  CZ        33.8290  117.7840   46.7780 C.ar  389  TYR389      0.1957
    142  OH        35.0020  118.4880   46.8100 O.3   389  TYR389     -0.2866
@<TRIPOS>BOND
     1    29    30    1
     2    39    40    2
     3    39    38    1
     4    32    31    2
     5    30    31    1
     6    30    33    1
     7    31    37   am
     8    37    38    1
     9     4     3    2
    10     1     2    1
    11    38    41    1
    12    33    34    1
    13     3     2    1
    14     2     5    1
    15    41    42    1
    16    34    35    2
    17    34    36   am
    18     5     6    1
    19    17    18    2
    20    17    16    1
    21    15    16    1
    22    42    43    1
    23     6     8   ar
    24     6     7   ar
    25    11    13   ar
    26    11     8   ar
    27    13    14   ar
    28     8    10   ar
    29     7     9   ar
    30    10     9   ar
    31    10    12   ar
    32    14    12   ar
    33    16    19    1
    34    27    28   ar
    35    27    25   ar
    36    28    26   ar
    37    25    22   ar
    38    26    24   ar
    39    22    24   ar
    40    22    20   ar
    41    43    44   ar
    42    43    45   ar
    43    24    23   ar
    44    20    19    1
    45    20    21   ar
    46    23    21   ar
    47    76    74   ar
    48    74    73    1
    49    74    75   ar
    50    89    90   ar
    51    89    87   ar
    52    73    72    1
    53    90    88   ar
    54    68    69    1
    55   105   103   ar
    56   105   107   ar
    57   102   103    1
    58   102    99    1
    59    95    96    1
    60    95    92    1
    61   103   104   ar
    62   107   106   ar
    63    87    84   ar
    64    96    97    1
    65   104   106   ar
    66    72    69    1
    67    88    86   ar
    68    69    70    1
    69    98    99    1
    70    99   100    1
    71    92    93    1
    72    92    91    1
    73    84    86   ar
    74    84    82   ar
    75    86    85   ar
    76    93    94    2
    77    54    52   ar
    78    54    55   ar
    79    71    70    2
    80    97    91    1
    81    52    51   ar
    82   100   101    2
    83   100   108   am
    84    82    81    1
    85    82    83   ar
    86   116   114   ar
    87    85    83   ar
    88    55    57   ar
    89    55    53   ar
    90    81    78    1
    91    51    50    1
    92    51    53   ar
    93   108   109    1
    94   114   115   ar
    95   114   113    1
    96    57    59   ar
    97   113   112    1
    98    78    77    1
    99    78    79    1
   100    50    47    1
   101    67    65   am
   102    53    56   ar
   103    46    47    1
   104   112   109    1
   105   109   110    1
   106    64    65    1
   107    64    61    1
   108    59    58   ar
   109    65    66    2
   110    47    48    1
   111    79    80    2
   112    63    62    2
   113    56    58   ar
   114   111   110    2
   115    62    61    1
   116    49    48    2
   117    61    60    1
   118   129   130   ar
   119   129   127   ar
   120   138   140   ar
   121   138   136   ar
   122   140   141   ar
   123   130   128   ar
   124   127   124   ar
   125   135   136    1
   126   135   132    1
   127   141   142    1
   128   141   139   ar
   129   136   137   ar
   130   128   126   ar
   131   124   126   ar
   132   124   122   ar
   133   137   139   ar
   134   126   125   ar
   135   133   134    2
   136   133   132    1
   137   132   131    1
   138   121   122    1
   139   121   118    1
   140   131   119   am
   141   122   123   ar
   142   117   118    1
   143   125   123   ar
   144   118   119    1
   145   119   120    2
