@<TRIPOS>MOLECULE
tmp/4lyqA00.pdb
 199 201 0 0 0
SMALL
GASTEIGER

@<TRIPOS>ATOM
      1  N        146.4450  -69.2470   73.7720 N.3   118  TRP118     -0.1241
      2  CA       147.8010  -69.7140   73.3560 C.3   118  TRP118      0.1605
      3  C        148.9030  -68.9090   74.0500 C.2   118  TRP118      0.2264
      4  O        148.6430  -67.8540   74.7010 O.2   118  TRP118     -0.2867
      5  CB       147.9210  -69.6720   71.8120 C.3   118  TRP118      0.0550
      6  CG       146.8510  -70.5890   71.1710 C.ar  118  TRP118      0.0003
      7  CD1      145.7310  -70.2300   70.3920 C.ar  118  TRP118      0.0946
      8  CD2      146.7620  -72.0380   71.3330 C.ar  118  TRP118      0.0152
      9  NE1      144.9880  -71.3620   70.0560 N.ar  118  TRP118     -0.2442
     10  CE2      145.5420  -72.4760   70.6140 C.ar  118  TRP118      0.0810
     11  CE3      147.4990  -72.9660   72.0210 C.ar  118  TRP118      0.0012
     12  CZ2      145.1400  -73.7940   70.6000 C.ar  118  TRP118      0.0191
     13  CZ3      147.0820  -74.2950   72.0140 C.ar  118  TRP118      0.0001
     14  CH2      145.9340  -74.7070   71.2930 C.ar  118  TRP118      0.0015
     15  N        151.5630  -67.2550   72.9620 N.3   120  TRP120     -0.1241
     16  CA       152.3550  -66.2050   72.3300 C.3   120  TRP120      0.1605
     17  C        152.1820  -64.7880   72.8360 C.2   120  TRP120      0.2264
     18  O        152.9440  -63.8710   72.4450 O.2   120  TRP120     -0.2867
     19  CB       152.2440  -66.2900   70.8030 C.3   120  TRP120      0.0550
     20  CG       150.8550  -66.2050   70.2240 C.ar  120  TRP120      0.0003
     21  CD1      150.0370  -67.2540   69.8320 C.ar  120  TRP120      0.0946
     22  CD2      150.1300  -64.9970   69.9220 C.ar  120  TRP120      0.0152
     23  NE1      148.8940  -66.8230   69.3300 N.ar  120  TRP120     -0.2442
     24  CE2      148.8380  -65.4380   69.3760 C.ar  120  TRP120      0.0810
     25  CE3      150.3710  -63.6350   70.1270 C.ar  120  TRP120      0.0012
     26  CZ2      147.8470  -64.5240   68.9220 C.ar  120  TRP120      0.0191
     27  CZ3      149.3780  -62.7180   69.7010 C.ar  120  TRP120      0.0001
     28  CH2      148.1500  -63.1440   69.0810 C.ar  120  TRP120      0.0015
     29  N        151.1100  -80.5920   72.3780 N.3   146  TYR146     -0.1241
     30  CA       150.0250  -79.5810   72.4430 C.3   146  TYR146      0.1605
     31  C        148.8830  -79.9980   73.4180 C.2   146  TYR146      0.2264
     32  O        148.3220  -79.1230   74.1330 O.2   146  TYR146     -0.2867
     33  CB       149.5160  -79.0760   71.0280 C.3   146  TYR146      0.0534
     34  CG       150.1860  -77.7220   70.5880 C.ar  146  TYR146     -0.0201
     35  CD1      149.7300  -76.5000   71.0860 C.ar  146  TYR146     -0.0009
     36  CD2      151.2670  -77.6790   69.6880 C.ar  146  TYR146     -0.0009
     37  CE1      150.3480  -75.2550   70.7200 C.ar  146  TYR146      0.0417
     38  CE2      151.8840  -76.4590   69.3120 C.ar  146  TYR146      0.0417
     39  CZ       151.4360  -75.2450   69.8310 C.ar  146  TYR146      0.1957
     40  OH       152.0630  -74.0180   69.5170 O.3   146  TYR146     -0.2866
     41  N        147.6840  -77.7000   76.3820 N.3   150  THR150     -0.1218
     42  CA       146.2430  -77.3770   76.3880 C.3   150  THR150      0.1862
     43  C        145.5520  -77.7300   77.7370 C.2   150  THR150      0.2287
     44  O        144.7340  -76.9260   78.2600 O.2   150  THR150     -0.2866
     45  CB       145.5640  -78.0840   75.1830 C.3   150  THR150      0.1770
     46  OG1      146.0920  -77.5120   73.9550 O.3   150  THR150     -0.2211
     47  CG2      144.0150  -77.8320   75.1920 C.3   150  THR150      0.0375
     48  N        141.5160  -64.9620   72.3460 N.3   202  ASN202     -0.1225
     49  CA       141.7990  -65.7390   71.1380 C.3   202  ASN202      0.1785
     50  C        141.6120  -67.2390   71.4050 C.2   202  ASN202      0.2597
     51  O        142.3980  -67.8520   72.1730 O.2   202  ASN202     -0.2718
     52  CB       143.2390  -65.5010   70.7000 C.3   202  ASN202      0.1169
     53  CG       143.6240  -66.4130   69.4870 C.2   202  ASN202      0.2627
     54  OD1      142.8330  -66.5830   68.5660 O.2   202  ASN202     -0.2716
     55  ND2      144.8060  -66.9280   69.5080 N.am  202  ASN202     -0.0877
     56  N        140.6140  -67.8350   70.7360 N.am  203  ALA203     -0.1979
     57  CA       140.5250  -69.3430   70.6620 C.3   203  ALA203      0.1597
     58  C        140.4540  -70.1540   71.9920 C.2   203  ALA203      0.2287
     59  O        141.2390  -71.0770   72.1990 O.2   203  ALA203     -0.2864
     60  CB       141.6680  -69.8810   69.8190 C.3   203  ALA203      0.0319
     61  N        137.3140  -70.5160   67.4190 N.3   233  GLU233     -0.1245
     62  CA       137.7040  -71.0050   66.0880 C.3   233  GLU233      0.1567
     63  C        136.5330  -71.5840   65.3220 C.2   233  GLU233      0.2260
     64  O        136.5600  -71.5840   64.0620 O.2   233  GLU233     -0.2867
     65  CB       138.7550  -72.1400   66.2460 C.3   233  GLU233      0.0388
     66  CG       140.0610  -71.6300   66.8520 C.3   233  GLU233      0.1160
     67  CD       140.7820  -72.7510   67.5730 C.2   233  GLU233      0.3649
     68  OE1      141.8940  -73.0390   67.1750 O.co2 233  GLU233     -0.2457
     69  OE2      140.2640  -73.3500   68.5360 O.co2 233  GLU233     -0.2457
     70  N        136.1650  -74.7250   65.2390 N.3   235  LYS235     -0.1245
     71  CA       136.7680  -75.8350   64.5480 C.3   235  LYS235      0.1561
     72  C        136.1510  -77.2140   64.8460 C.2   235  LYS235      0.2260
     73  O        136.6850  -78.2440   64.3020 O.2   235  LYS235     -0.2867
     74  CB       138.2600  -75.8740   64.8240 C.3   235  LYS235      0.0271
     75  CG       138.7180  -76.3430   66.2080 C.3   235  LYS235      0.0035
     76  CD       140.2630  -76.4560   66.3060 C.3   235  LYS235      0.0206
     77  CE       140.7520  -76.4800   67.7720 C.3   235  LYS235      0.1093
     78  NZ       142.1890  -75.8890   68.1050 N.3   235  LYS235     -0.1314
     79  N        137.7540  -69.5190   62.7030 N.3   256  HIS256     -0.1241
     80  CA       139.1840  -69.4060   62.3480 C.3   256  HIS256      0.1621
     81  C        139.4440  -70.6510   61.5230 C.2   256  HIS256      0.2264
     82  O        139.1620  -71.7330   62.0220 O.2   256  HIS256     -0.2867
     83  CB       140.1230  -69.4600   63.5720 C.3   256  HIS256      0.0745
     84  CG       139.9020  -68.3360   64.5820 C.ar  256  HIS256      0.0817
     85  ND1      140.6200  -68.2510   65.7350 N.ar  256  HIS256     -0.2268
     86  CD2      138.9660  -67.2870   64.6050 C.ar  256  HIS256      0.1154
     87  CE1      140.2340  -67.1790   66.4430 C.ar  256  HIS256      0.1986
     88  NE2      139.1870  -66.5820   65.7800 N.ar  256  HIS256     -0.2212
     89  N        142.2360  -73.1870   59.7610 N.3   258  TRP258     -0.1241
     90  CA       143.6860  -73.4180   59.7200 C.3   258  TRP258      0.1605
     91  C        144.0090  -74.7740   59.1520 C.2   258  TRP258      0.2264
     92  O        144.1850  -75.6960   59.9220 O.2   258  TRP258     -0.2867
     93  CB       144.2310  -73.3310   61.1390 C.3   258  TRP258      0.0550
     94  CG       144.3430  -71.8610   61.4530 C.ar  258  TRP258      0.0003
     95  CD1      143.5720  -71.0850   62.3600 C.ar  258  TRP258      0.0946
     96  CD2      145.1870  -70.8790   60.7360 C.ar  258  TRP258      0.0152
     97  NE1      143.9480  -69.7290   62.2850 N.ar  258  TRP258     -0.2442
     98  CE2      144.8970  -69.5510   61.3320 C.ar  258  TRP258      0.0810
     99  CE3      146.1040  -70.9650   59.6980 C.ar  258  TRP258      0.0012
    100  CZ2      145.5380  -68.3980   60.8980 C.ar  258  TRP258      0.0191
    101  CZ3      146.7580  -69.8130   59.2700 C.ar  258  TRP258      0.0001
    102  CH2      146.5140  -68.5570   59.8950 C.ar  258  TRP258      0.0015
    103  N        147.5300  -76.4520   60.1980 N.3   261  ASN261     -0.1225
    104  CA       147.6930  -76.7210   61.6420 C.3   261  ASN261      0.1785
    105  C        146.7990  -77.9030   61.9770 C.2   261  ASN261      0.2597
    106  O        147.0730  -78.6030   62.9130 O.2   261  ASN261     -0.2718
    107  CB       147.1530  -75.5380   62.5090 C.3   261  ASN261      0.1169
    108  CG       147.7800  -74.1790   62.1380 C.2   261  ASN261      0.2627
    109  OD1      147.8390  -73.7810   60.9860 O.2   261  ASN261     -0.2716
    110  ND2      148.2840  -73.4690   63.1820 N.am  261  ASN261     -0.0877
    111  N        145.6680  -78.0370   61.2720 N.am  262  TRP262     -0.1976
    112  CA       144.7100  -79.1460   61.5820 C.3   262  TRP262      0.1640
    113  C        144.9680  -80.4420   60.8120 C.2   262  TRP262      0.2290
    114  O        144.2020  -81.3720   60.9180 O.2   262  TRP262     -0.2864
    115  CB       143.2740  -78.6990   61.3150 C.3   262  TRP262      0.0576
    116  CG       142.8770  -77.4640   62.1450 C.ar  262  TRP262      0.0006
    117  CD1      143.5180  -76.9400   63.2410 C.ar  262  TRP262      0.0946
    118  CD2      141.7010  -76.6200   61.9170 C.ar  262  TRP262      0.0152
    119  NE1      142.8660  -75.7810   63.6780 N.ar  262  TRP262     -0.2442
    120  CE2      141.7440  -75.5660   62.8950 C.ar  262  TRP262      0.0810
    121  CE3      140.6680  -76.6230   60.9610 C.ar  262  TRP262      0.0012
    122  CZ2      140.7740  -74.5520   62.9450 C.ar  262  TRP262      0.0191
    123  CZ3      139.6740  -75.6010   61.0460 C.ar  262  TRP262      0.0001
    124  CH2      139.7630  -74.5900   62.0250 C.ar  262  TRP262      0.0015
    125  N        140.0570  -65.2990   61.2370 N.3   302  GLU302     -0.1245
    126  CA       141.4710  -65.7510   60.9720 C.3   302  GLU302      0.1567
    127  C        141.4610  -66.8100   59.9040 C.2   302  GLU302      0.2260
    128  O        140.5780  -67.7130   59.9610 O.2   302  GLU302     -0.2867
    129  CB       142.1030  -66.5320   62.1290 C.3   302  GLU302      0.0388
    130  CG       142.3870  -65.7150   63.3580 C.3   302  GLU302      0.1160
    131  CD       143.1580  -66.5270   64.4460 C.2   302  GLU302      0.3649
    132  OE1      143.4710  -67.7420   64.2510 O.co2 302  GLU302     -0.2457
    133  OE2      143.4380  -65.8760   65.4580 O.co2 302  GLU302     -0.2457
    134  N        144.9770  -63.8240   58.2480 N.3   355  TRP355     -0.1241
    135  CA       146.0260  -63.9340   59.2870 C.3   355  TRP355      0.1605
    136  C        147.3530  -64.1740   58.5560 C.2   355  TRP355      0.2264
    137  O        147.5200  -65.2760   58.0120 O.2   355  TRP355     -0.2867
    138  CB       145.7510  -65.1390   60.2220 C.3   355  TRP355      0.0550
    139  CG       146.8150  -65.2500   61.2540 C.ar  355  TRP355      0.0003
    140  CD1      148.1200  -65.7860   61.0820 C.ar  355  TRP355      0.0946
    141  CD2      146.7640  -64.6930   62.5990 C.ar  355  TRP355      0.0152
    142  NE1      148.8480  -65.6170   62.2310 N.ar  355  TRP355     -0.2442
    143  CE2      148.0960  -64.9380   63.1950 C.ar  355  TRP355      0.0810
    144  CE3      145.7610  -64.0300   63.3730 C.ar  355  TRP355      0.0012
    145  CZ2      148.3880  -64.5980   64.5440 C.ar  355  TRP355      0.0191
    146  CZ3      146.0720  -63.6590   64.7090 C.ar  355  TRP355      0.0001
    147  CH2      147.3490  -63.9520   65.2880 C.ar  355  TRP355      0.0015
    148  N        153.4050  -64.8300   65.1500 N.3   378  PRO378     -0.2116
    149  CA       153.8670  -64.6130   66.5470 C.3   378  PRO378      0.1372
    150  C        155.0230  -65.4920   66.9020 C.2   378  PRO378      0.2244
    151  O        155.3050  -66.4570   66.1870 O.2   378  PRO378     -0.2868
    152  CB       152.6270  -64.9920   67.4540 C.3   378  PRO378      0.0268
    153  CG       151.4370  -64.9370   66.4600 C.3   378  PRO378      0.0207
    154  CD       152.0140  -65.3690   65.1080 C.3   378  PRO378      0.0892
    155  N        155.7810  -67.8530   68.8410 N.3   380  HIS380     -0.1226
    156  CA       155.7390  -69.3360   69.1210 C.3   380  HIS380      0.1752
    157  C        155.7940  -70.0540   67.8000 C.2   380  HIS380      0.2595
    158  O        155.8990  -71.2580   67.7770 O.2   380  HIS380     -0.2718
    159  CB       154.4550  -69.7280   69.8650 C.3   380  HIS380      0.0759
    160  CG       153.2140  -69.5610   69.0330 C.ar  380  HIS380      0.0818
    161  ND1      153.0000  -68.4600   68.2000 N.ar  380  HIS380     -0.2268
    162  CD2      152.1230  -70.4250   68.8320 C.ar  380  HIS380      0.1154
    163  CE1      151.8120  -68.5880   67.5740 C.ar  380  HIS380      0.1986
    164  NE2      151.2670  -69.7920   67.9670 N.ar  380  HIS380     -0.2212
    165  N        155.8510  -69.3020   66.6930 N.am  381  GLU381     -0.1979
    166  CA       155.8440  -69.9730   65.3650 C.3   381  GLU381      0.1602
    167  C        157.0360  -69.4840   64.5390 C.2   381  GLU381      0.2287
    168  O        157.5310  -68.4130   64.7780 O.2   381  GLU381     -0.2864
    169  CB       154.5310  -69.6490   64.6090 C.3   381  GLU381      0.0415
    170  CG       153.3850  -70.5480   65.0670 C.3   381  GLU381      0.1163
    171  CD       151.9830  -70.0470   64.6830 C.2   381  GLU381      0.3649
    172  OE1      151.8330  -68.9730   64.0770 O.co2 381  GLU381     -0.2457
    173  OE2      151.0390  -70.7230   65.0400 O.co2 381  GLU381     -0.2457
    174  N        155.9340  -67.7740   58.3950 N.3   385  TRP385     -0.1227
    175  CA       155.0800  -68.9140   58.0090 C.3   385  TRP385      0.1737
    176  C        153.8170  -68.4800   57.2080 C.2   385  TRP385      0.2595
    177  O        153.6030  -68.8940   56.0480 O.2   385  TRP385     -0.2718
    178  CB       154.6090  -69.6290   59.2780 C.3   385  TRP385      0.0564
    179  CG       153.8310  -70.8770   59.0380 C.ar  385  TRP385      0.0003
    180  CD1      153.6890  -71.6220   57.8630 C.ar  385  TRP385      0.0946
    181  CD2      153.1560  -71.6490   60.0790 C.ar  385  TRP385      0.0152
    182  NE1      152.9900  -72.7910   58.1490 N.ar  385  TRP385     -0.2442
    183  CE2      152.6140  -72.8050   59.4670 C.ar  385  TRP385      0.0810
    184  CE3      152.9490  -71.4500   61.4660 C.ar  385  TRP385      0.0012
    185  CZ2      151.9170  -73.7850   60.2030 C.ar  385  TRP385      0.0191
    186  CZ3      152.2160  -72.4170   62.1840 C.ar  385  TRP385      0.0001
    187  CH2      151.6910  -73.5530   61.5290 C.ar  385  TRP385      0.0015
    188  N        153.0750  -67.5510   57.7920 N.am  386  TYR386     -0.1976
    189  CA       151.8370  -67.0370   57.2060 C.3   386  TYR386      0.1639
    190  C        151.8040  -65.6070   56.8030 C.2   386  TYR386      0.2290
    191  O        150.8320  -65.1930   56.1630 O.2   386  TYR386     -0.2864
    192  CB       150.7170  -67.2670   58.2130 C.3   386  TYR386      0.0560
    193  CG       150.3810  -68.7390   58.4080 C.ar  386  TYR386     -0.0198
    194  CD1      150.2270  -69.5950   57.3110 C.ar  386  TYR386     -0.0009
    195  CD2      150.1410  -69.2560   59.7070 C.ar  386  TYR386     -0.0009
    196  CE1      149.8210  -70.9390   57.5100 C.ar  386  TYR386      0.0417
    197  CE2      149.7440  -70.6270   59.9270 C.ar  386  TYR386      0.0417
    198  CZ       149.5740  -71.4460   58.8160 C.ar  386  TYR386      0.1957
    199  OH       149.1060  -72.7660   58.9520 O.3   386  TYR386     -0.2866
@<TRIPOS>BOND
     1   177   176    2
     2   191   190    2
     3   190   189    1
     4   189   188    1
     5   189   192    1
     6   176   188   am
     7   176   175    1
     8   194   196   ar
     9   194   193   ar
    10   196   198   ar
    11   180   182   ar
    12   180   179   ar
    13   175   174    1
    14   175   178    1
    15   137   136    2
    16   182   183   ar
    17   192   193    1
    18   134   135    1
    19   193   195   ar
    20   136   135    1
    21   198   199    1
    22   198   197   ar
    23   179   178    1
    24   179   181   ar
    25    91    90    1
    26    91    92    2
    27   101    99   ar
    28   101   102   ar
    29   135   138    1
    30   183   181   ar
    31   183   185   ar
    32    99    96   ar
    33   195   197   ar
    34    90    89    1
    35    90    93    1
    36   102   100   ar
    37   127   128    2
    38   127   126    1
    39   181   184   ar
    40   103   104    1
    41   185   187   ar
    42   138   139    1
    43    96    98   ar
    44    96    94   ar
    45   113   114    2
    46   113   112    1
    47   100    98   ar
    48   121   123   ar
    49   121   118   ar
    50   126   125    1
    51   126   129    1
    52   109   108    2
    53   123   124   ar
    54   140   139   ar
    55   140   142   ar
    56    93    94    1
    57   139   141   ar
    58   111   112    1
    59   111   105   am
    60   115   112    1
    61   115   116    1
    62    98    97   ar
    63    94    95   ar
    64   184   186   ar
    65    81    82    2
    66    81    80    1
    67   187   186   ar
    68   104   105    1
    69   104   107    1
    70   118   116   ar
    71   118   120   ar
    72   105   106    2
    73   124   122   ar
    74   129   130    1
    75   108   107    1
    76   108   110   am
    77   116   117   ar
    78   142   143   ar
    79    97    95   ar
    80    80    79    1
    81    80    83    1
    82   141   143   ar
    83   141   144   ar
    84   120   122   ar
    85   120   119   ar
    86   143   145   ar
    87   117   119   ar
    88   130   131    1
    89   144   146   ar
    90    83    84    1
    91    64    63    2
    92   172   171   ar
    93   132   131   ar
    94    73    72    2
    95   131   133   ar
    96   167   168    2
    97   167   166    1
    98   145   147   ar
    99    71    74    1
   100    71    72    1
   101    71    70    1
   102    84    86   ar
   103    84    85   ar
   104    86    88   ar
   105   169   170    1
   106   169   166    1
   107   171   173   ar
   108   171   170    1
   109   146   147   ar
   110    74    75    1
   111   154   148    1
   112   154   153    1
   113   148   149    1
   114    63    62    1
   115   166   165    1
   116    85    87   ar
   117    88    87   ar
   118    62    65    1
   119    62    61    1
   120   151   150    2
   121    75    76    1
   122    65    66    1
   123    76    77    1
   124   153   152    1
   125   149   150    1
   126   149   152    1
   127   165   157   am
   128    66    67    1
   129    68    67   ar
   130    67    69   ar
   131   163   164   ar
   132   163   161   ar
   133    77    78    1
   134   158   157    2
   135   157   156    1
   136   164   162   ar
   137   161   160   ar
   138    54    53    2
   139   162   160   ar
   140   155   156    1
   141    26    28   ar
   142    26    24   ar
   143   160   159    1
   144    28    27   ar
   145   156   159    1
   146    38    36   ar
   147    38    39   ar
   148    23    24   ar
   149    23    21   ar
   150    24    22   ar
   151    53    55   am
   152    53    52    1
   153    40    39    1
   154    36    34   ar
   155    27    25   ar
   156    60    57    1
   157    39    37   ar
   158    21    20   ar
   159    22    25   ar
   160    22    20   ar
   161     9     7   ar
   162     9    10   ar
   163    20    19    1
   164     7     6   ar
   165    34    33    1
   166    34    35   ar
   167    12    10   ar
   168    12    14   ar
   169    10     8   ar
   170    57    56    1
   171    57    58    1
   172    52    49    1
   173    37    35   ar
   174    56    50   am
   175    19    16    1
   176    33    30    1
   177    49    50    1
   178    49    48    1
   179     6     8   ar
   180     6     5    1
   181    14    13   ar
   182     8    11   ar
   183    50    51    2
   184     5     2    1
   185    58    59    2
   186    13    11   ar
   187    16    17    1
   188    16    15    1
   189    29    30    1
   190    30    31    1
   191    18    17    2
   192     2     1    1
   193     2     3    1
   194    31    32    2
   195    46    45    1
   196     3     4    2
   197    45    47    1
   198    45    42    1
   199    41    42    1
   200    42    43    1
   201    43    44    2
