@<TRIPOS>MOLECULE
tmp/4lz5B01.pdb
 90 87 0 0 0
SMALL
GASTEIGER

@<TRIPOS>ATOM
      1  N         59.9360   73.7690   57.7080 N.3    88  ILE88      -0.1231
      2  CA        59.0000   74.0230   58.7720 C.3    88  ILE88       0.1692
      3  C         57.7630   73.1510   58.5860 C.2    88  ILE88       0.2592
      4  O         57.1160   73.2060   57.5440 O.2    88  ILE88      -0.2718
      5  CB        58.5970   75.5220   58.7980 C.3    88  ILE88       0.0266
      6  CG1       59.8110   76.3860   58.9670 C.3    88  ILE88       0.0019
      7  CG2       57.5840   75.7310   59.9010 C.3    88  ILE88       0.0020
      8  CD1       59.5530   77.8880   58.7400 C.3    88  ILE88       0.0001
      9  N         57.4970   72.2770   59.5190 N.am   89  THR89      -0.1953
     10  CA        56.3240   71.4020   59.4880 C.3    89  THR89       0.1897
     11  C         55.6960   71.4010   60.8630 C.2    89  THR89       0.2313
     12  O         56.2880   71.6290   61.8970 O.2    89  THR89      -0.2863
     13  CB        56.7000   69.9570   59.1080 C.3    89  THR89       0.1794
     14  OG1       57.3200   69.3180   60.2320 O.3    89  THR89      -0.2208
     15  CG2       57.5490   69.8780   57.8260 C.3    89  THR89       0.0378
     16  N         60.5730   81.7690   58.1980 N.3   101  PRO101     -0.2102
     17  CA        61.4030   81.1600   57.1280 C.3   101  PRO101      0.1504
     18  C         62.3620   82.1240   56.5000 C.2   101  PRO101      0.2576
     19  O         62.1340   83.3110   56.3170 O.2   101  PRO101     -0.2718
     20  CB        60.3740   80.7020   56.1650 C.3   101  PRO101      0.0282
     21  CG        59.0580   81.4040   56.5140 C.3   101  PRO101      0.0208
     22  CD        59.1140   81.7690   57.8600 C.3   101  PRO101      0.0893
     23  N         63.5360   81.5620   56.2090 N.am  102  PHE102     -0.1963
     24  CA        64.5620   82.2830   55.4890 C.3   102  PHE102      0.1771
     25  C         64.5930   82.0930   53.9670 C.2   102  PHE102      0.2623
     26  O         65.3300   82.7740   53.2680 O.2   102  PHE102     -0.2715
     27  CB        65.9800   82.0460   56.1300 C.3   102  PHE102      0.0574
     28  CG        66.4860   80.6650   56.0450 C.ar  102  PHE102     -0.0200
     29  CD1       67.0680   80.1350   54.8920 C.ar  102  PHE102     -0.0042
     30  CD2       66.3590   79.8110   57.1340 C.ar  102  PHE102     -0.0042
     31  CE1       67.4980   78.8580   54.8790 C.ar  102  PHE102     -0.0003
     32  CE2       66.8170   78.4980   57.0630 C.ar  102  PHE102     -0.0003
     33  CZ        67.3540   78.0390   55.9370 C.ar  102  PHE102     -0.0000
     34  N         63.8710   81.0620   53.5280 N.am  103  MET103     -0.1917
     35  CA        63.8070   80.7570   52.1060 C.3   103  MET103      0.1952
     36  C         62.5040   80.0410   51.8190 C.2   103  MET103      0.2659
     37  O         62.0630   79.2210   52.6090 O.2   103  MET103     -0.2711
     38  CB        64.9720   79.8280   51.7840 C.2   103  MET103      0.0110
     39  CG        65.2300   79.5590   50.2610 C.2   103  MET103      0.0285
     40  SD        66.7060   78.6110   49.8700 S.3   103  MET103     -0.1125
     41  CE        67.9250   79.7660   50.2180 C.3   103  MET103      0.0742
     42  N         61.9420   80.3350   50.6580 N.am  104  SER104     -0.1947
     43  CA        60.7500   79.6860   50.2060 C.3   104  SER104      0.1924
     44  C         61.0880   78.5200   49.2890 C.2   104  SER104      0.2314
     45  O         62.1110   78.4740   48.5910 O.2   104  SER104     -0.2863
     46  CB        59.8180   80.6290   49.4070 C.3   104  SER104      0.2116
     47  OG        60.5200   81.1620   48.4110 O.3   104  SER104     -0.2180
     48  N         53.8230   74.9170   48.8960 N.3   213  SER213     -0.1202
     49  CA        54.5230   76.1980   49.1060 C.3   213  SER213      0.2020
     50  C         54.8060   76.2420   50.6210 C.2   213  SER213      0.2619
     51  O         53.8520   76.2320   51.4830 O.2   213  SER213     -0.2717
     52  CB        53.6210   77.3590   48.8200 C.3   213  SER213      0.2103
     53  OG        54.3420   78.5780   48.9150 O.3   213  SER213     -0.2182
     54  N         56.0570   76.3300   50.9960 N.am  214  LYS214     -0.1965
     55  CA        56.4870   76.2860   52.3670 C.3   214  LYS214      0.1728
     56  C         57.8800   76.9470   52.4480 C.2   214  LYS214      0.2616
     57  O         58.2950   77.6980   51.6230 O.2   214  LYS214     -0.2715
     58  CB        56.3990   74.9760   52.9220 C.3   214  LYS214      0.0311
     59  CG        57.2120   74.0000   52.2680 C.3   214  LYS214      0.0038
     60  CD        56.7080   72.6140   52.3980 C.3   214  LYS214      0.0206
     61  CE        57.5180   71.5740   51.5620 C.3   214  LYS214      0.1093
     62  NZ        56.8970   70.2850   51.7010 N.3   214  LYS214     -0.1314
     63  N         58.5050   76.7420   53.6120 N.am  215  GLY215     -0.1955
     64  CA        59.7290   77.4810   53.9510 C.3   215  GLY215      0.1869
     65  C         60.6360   76.6390   54.7800 C.2   215  GLY215      0.2309
     66  O         60.2360   75.7500   55.4910 O.2   215  GLY215     -0.2863
     67  N         66.6310   89.3930   56.0620 N.3   238  ASN238     -0.1240
     68  CA        65.7170   89.5380   54.9280 C.3   238  ASN238      0.1653
     69  C         65.5300   90.9840   54.4680 C.2   238  ASN238      0.2266
     70  O         65.7010   91.2620   53.2460 O.2   238  ASN238     -0.2867
     71  CB        64.3510   88.9260   55.1880 C.3   238  ASN238      0.1155
     72  CG        63.5870   88.6600   53.8650 C.2   238  ASN238      0.2627
     73  OD1       64.2240   88.6140   52.7540 O.2   238  ASN238     -0.2716
     74  ND2       62.3730   88.8190   53.8680 N.am  238  ASN238     -0.0877
     75  N         69.5750   87.8630   52.4920 N.3   243  LEU243     -0.1231
     76  CA        69.1510   86.5550   52.0360 C.3   243  LEU243      0.1693
     77  C         69.0580   86.4040   50.5000 C.2   243  LEU243      0.2592
     78  O         69.4420   85.3900   49.9390 O.2   243  LEU243     -0.2718
     79  CB        67.8310   86.1540   52.7480 C.3   243  LEU243      0.0284
     80  CG        67.8480   86.0650   54.2610 C.3   243  LEU243      0.0019
     81  CD1       66.4860   85.7710   54.7810 C.3   243  LEU243      0.0001
     82  CD2       68.9590   85.1820   54.8590 C.3   243  LEU243      0.0001
     83  N         68.6270   87.5050   49.8660 N.am  244  ASP244     -0.1974
     84  CA        68.6170   87.5690   48.3800 C.3   244  ASP244      0.1709
     85  C         70.0470   87.5550   47.7580 C.2   244  ASP244      0.2293
     86  O         70.2200   86.8020   46.8540 O.2   244  ASP244     -0.2864
     87  CB        67.8240   88.7970   47.9120 C.3   244  ASP244      0.1436
     88  CG        66.2870   88.7150   48.1380 C.2   244  ASP244      0.3671
     89  OD1       65.7640   87.5130   48.1370 O.co2 244  ASP244     -0.2456
     90  OD2       65.6840   89.8580   48.2900 O.co2 244  ASP244     -0.2456
@<TRIPOS>BOND
     1    86    85    2
     2    85    84    1
     3    87    88    1
     4    87    84    1
     5    89    88   ar
     6    88    90   ar
     7    84    83    1
     8    47    46    1
     9    45    44    2
    10    52    53    1
    11    52    49    1
    12    48    49    1
    13    49    50    1
    14    44    43    1
    15    46    43    1
    16    83    77   am
    17    40    41    1
    18    40    39    1
    19    78    77    2
    20    43    42    1
    21    39    38    2
    22    77    76    1
    23    50    54   am
    24    50    51    2
    25    42    36   am
    26    54    55    1
    27    61    62    1
    28    61    60    1
    29    57    56    2
    30    38    35    1
    31    36    35    1
    32    36    37    2
    33    76    75    1
    34    76    79    1
    35    35    34    1
    36    59    60    1
    37    59    58    1
    38    55    56    1
    39    55    58    1
    40    56    63   am
    41    79    80    1
    42    73    72    2
    43    70    69    2
    44    26    25    2
    45    34    25   am
    46    63    64    1
    47    72    74   am
    48    72    71    1
    49    64    65    1
    50    25    24    1
    51    80    81    1
    52    80    82    1
    53    69    68    1
    54    65    66    2
    55    31    29   ar
    56    31    33   ar
    57    29    28   ar
    58    68    71    1
    59    68    67    1
    60    24    27    1
    61    24    23    1
    62    33    32   ar
    63    28    27    1
    64    28    30   ar
    65    20    21    1
    66    20    17    1
    67    23    18   am
    68    19    18    2
    69    18    17    1
    70    21    22    1
    71    32    30   ar
    72    17    16    1
    73     4     3    2
    74     1     2    1
    75    15    13    1
    76    22    16    1
    77     3     2    1
    78     3     9   am
    79     8     6    1
    80     2     5    1
    81     5     6    1
    82     5     7    1
    83    13    10    1
    84    13    14    1
    85    10     9    1
    86    10    11    1
    87    11    12    2
