@<TRIPOS>MOLECULE
tmp/4lz7A01.pdb
 83 80 0 0 0
SMALL
GASTEIGER

@<TRIPOS>ATOM
      1  N         70.2320   25.3720   47.4020 N.3    89  ILE89      -0.1245
      2  CA        69.5650   24.6100   48.4660 C.3    89  ILE89       0.1561
      3  C         69.7670   23.0950   48.2370 C.2    89  ILE89       0.2260
      4  O         69.2920   22.5500   47.2400 O.2    89  ILE89      -0.2867
      5  CB        68.0380   24.8920   48.5210 C.3    89  ILE89       0.0252
      6  CG1       67.7180   26.3620   48.7210 C.3    89  ILE89       0.0019
      7  CG2       67.4020   24.1370   49.6600 C.3    89  ILE89       0.0019
      8  CD1       66.3200   26.6870   48.2880 C.3    89  ILE89       0.0001
      9  N         63.1910   29.4220   47.8720 N.2   102  PRO102     -0.2571
     10  CA        64.1650   29.8490   46.8460 C.3   102  PRO102      0.2026
     11  C         63.8330   31.1660   46.1850 C.2   102  PRO102      0.2683
     12  O         62.6540   31.4510   46.0120 O.2   102  PRO102     -0.2709
     13  CB        64.0840   28.7540   45.7960 C.2   102  PRO102      0.0085
     14  CG        63.0730   27.8390   46.1990 C.2   102  PRO102      0.0180
     15  CD        62.4340   28.2330   47.4680 C.2   102  PRO102      0.0938
     16  N         64.8440   31.9690   45.8410 N.am  103  PHE103     -0.1955
     17  CA        64.5730   33.2430   45.1540 C.3   103  PHE103      0.1771
     18  C         64.8250   33.1710   43.6350 C.2   103  PHE103      0.2619
     19  O         64.5440   34.1020   42.9240 O.2   103  PHE103     -0.2715
     20  CB        65.3710   34.4080   45.8060 C.3   103  PHE103      0.0574
     21  CG        66.8580   34.2650   45.7000 C.ar  103  PHE103     -0.0200
     22  CD1       67.5210   34.6390   44.5500 C.ar  103  PHE103     -0.0042
     23  CD2       67.5840   33.6810   46.7370 C.ar  103  PHE103     -0.0042
     24  CE1       68.8870   34.4770   44.4560 C.ar  103  PHE103     -0.0003
     25  CE2       68.9240   33.5330   46.6470 C.ar  103  PHE103     -0.0003
     26  CZ        69.5850   33.9020   45.4940 C.ar  103  PHE103     -0.0000
     27  N         65.4100   32.0680   43.1690 N.am  104  MET104     -0.1963
     28  CA        65.7230   31.8630   41.7690 C.3   104  MET104      0.1736
     29  C         65.8450   30.3840   41.4870 C.2   104  MET104      0.2617
     30  O         66.3510   29.6550   42.3030 O.2   104  MET104     -0.2715
     31  CB        67.0300   32.5270   41.4240 C.3   104  MET104      0.0427
     32  CG        67.2370   32.6430   39.9380 C.3   104  MET104      0.0599
     33  SD        68.7380   33.5790   39.5440 S.3   104  MET104     -0.1393
     34  CE        68.5860   35.1160   40.3850 C.3   104  MET104      0.0692
     35  N         65.3370   29.9500   40.3540 N.am  105  SER105     -0.1950
     36  CA        65.4270   28.5670   39.9320 C.3   105  SER105      0.1924
     37  C         66.5970   28.3750   38.9720 C.2   105  SER105      0.2314
     38  O         67.0520   29.3210   38.2930 O.2   105  SER105     -0.2863
     39  CB        64.1300   28.0450   39.3030 C.3   105  SER105      0.2116
     40  OG        63.7990   28.7690   38.1510 O.3   105  SER105     -0.2180
     41  N         66.6340   20.1660   38.5920 N.3   214  SER214     -0.1202
     42  CA        65.9110   21.4280   38.9450 C.3   214  SER214      0.2020
     43  C         66.0750   21.6990   40.3850 C.2   214  SER214      0.2619
     44  O         65.7590   20.8530   41.2260 O.2   214  SER214     -0.2717
     45  CB        64.3990   21.3210   38.7200 C.3   214  SER214      0.2103
     46  OG        64.1870   20.7110   37.4680 O.3   214  SER214     -0.2182
     47  N         66.5080   22.9110   40.6990 N.am  215  LYS215     -0.1965
     48  CA        66.6600   23.3200   42.0650 C.3   215  LYS215      0.1728
     49  C         66.5710   24.8250   42.1910 C.2   215  LYS215      0.2616
     50  O         66.1440   25.4920   41.2710 O.2   215  LYS215     -0.2715
     51  CB        67.9630   22.7470   42.6070 C.3   215  LYS215      0.0311
     52  CG        69.0980   22.8500   41.7210 C.3   215  LYS215      0.0038
     53  CD        70.2210   21.8560   42.1340 C.3   215  LYS215      0.0206
     54  CE        71.4410   21.9900   41.1490 C.3   215  LYS215      0.1093
     55  NZ        72.3650   20.8040   41.1790 N.3   215  LYS215     -0.1314
     56  N         66.9180   25.3220   43.3690 N.am  216  GLY216     -0.1955
     57  CA        66.7920   26.7000   43.7250 C.3   216  GLY216      0.1869
     58  C         67.9620   27.1730   44.5530 C.2   216  GLY216      0.2309
     59  O         68.6570   26.3850   45.2100 O.2   216  GLY216     -0.2863
     60  N         59.2040   38.1730   45.6360 N.3   239  ASN239     -0.1240
     61  CA        58.6990   37.4200   44.4700 C.3   239  ASN239      0.1653
     62  C         57.2930   37.8400   44.0490 C.2   239  ASN239      0.2266
     63  O         57.0500   38.0880   42.8690 O.2   239  ASN239     -0.2867
     64  CB        58.6900   35.9170   44.7110 C.3   239  ASN239      0.1155
     65  CG        58.4350   35.1310   43.4470 C.2   239  ASN239      0.2627
     66  OD1       58.8860   35.5090   42.3610 O.2   239  ASN239     -0.2716
     67  ND2       57.6390   34.0580   43.5670 N.am  239  ASN239     -0.0877
     68  N         61.8540   40.0590   41.9940 N.3   244  LEU244     -0.1231
     69  CA        62.8410   39.0710   41.5740 C.3   244  LEU244      0.1693
     70  C         62.9080   38.9330   40.0390 C.2   244  LEU244      0.2592
     71  O         64.0200   38.8370   39.4410 O.2   244  LEU244     -0.2718
     72  CB        62.6000   37.7050   42.2540 C.3   244  LEU244      0.0284
     73  CG        62.4890   37.6710   43.7890 C.3   244  LEU244      0.0019
     74  CD1       62.2590   36.2450   44.2940 C.3   244  LEU244      0.0001
     75  CD2       63.7360   38.3170   44.4670 C.3   244  LEU244      0.0001
     76  N         61.7370   38.9320   39.4050 N.am  245  ASP245     -0.1974
     77  CA        61.6620   38.8780   37.9400 C.3   245  ASP245      0.1709
     78  C         62.2350   40.1320   37.2970 C.2   245  ASP245      0.2293
     79  O         62.9860   40.0050   36.3510 O.2   245  ASP245     -0.2864
     80  CB        60.2450   38.6530   37.4540 C.3   245  ASP245      0.1436
     81  CG        59.6770   37.3260   37.9450 C.2   245  ASP245      0.3671
     82  OD1       60.4430   36.3480   38.0750 O.co2 245  ASP245     -0.2456
     83  OD2       58.4820   37.2800   38.2390 O.co2 245  ASP245     -0.2456
@<TRIPOS>BOND
     1    79    78    2
     2    78    77    1
     3    80    77    1
     4    80    81    1
     5    46    45    1
     6    77    76    1
     7    81    82   ar
     8    81    83   ar
     9    40    39    1
    10    38    37    2
    11    41    42    1
    12    45    42    1
    13    42    43    1
    14    37    36    1
    15    39    36    1
    16    76    70   am
    17    71    70    2
    18    33    32    1
    19    33    34    1
    20    36    35    1
    21    32    31    1
    22    70    69    1
    23    35    29   am
    24    43    47   am
    25    43    44    2
    26    47    48    1
    27    54    55    1
    28    54    53    1
    29    50    49    2
    30    31    28    1
    31    29    28    1
    32    29    30    2
    33    69    68    1
    34    69    72    1
    35    52    53    1
    36    52    51    1
    37    28    27    1
    38    48    49    1
    39    48    51    1
    40    49    56   am
    41    72    73    1
    42    66    65    2
    43    63    62    2
    44    19    18    2
    45    27    18   am
    46    56    57    1
    47    65    67   am
    48    65    64    1
    49    18    17    1
    50    57    58    1
    51    73    74    1
    52    73    75    1
    53    62    61    1
    54    24    22   ar
    55    24    26   ar
    56    61    64    1
    57    61    60    1
    58    22    21   ar
    59    58    59    2
    60    17    20    1
    61    17    16    1
    62    26    25   ar
    63    21    20    1
    64    21    23   ar
    65    13    14    2
    66    13    10    1
    67    16    11   am
    68    12    11    2
    69    11    10    1
    70    14    15    1
    71    25    23   ar
    72    10     9    1
    73     4     3    2
    74     1     2    1
    75    15     9    2
    76     3     2    1
    77     8     6    1
    78     2     5    1
    79     5     6    1
    80     5     7    1
