@<TRIPOS>MOLECULE
tmp/4lz8C00.pdb
 99 95 0 0 0
SMALL
GASTEIGER

@<TRIPOS>ATOM
      1  N         52.5680   27.9630   47.7210 N.3    88  ILE88      -0.1245
      2  CA        53.1600   28.7620   48.8190 C.3    88  ILE88       0.1561
      3  C         52.8710   30.2590   48.5940 C.2    88  ILE88       0.2260
      4  O         53.3080   30.8260   47.5910 O.2    88  ILE88      -0.2867
      5  CB        54.6870   28.5200   48.8700 C.3    88  ILE88       0.0252
      6  CG1       54.9900   27.0520   49.0100 C.3    88  ILE88       0.0019
      7  CG2       55.2830   29.3510   49.9710 C.3    88  ILE88       0.0019
      8  CD1       56.4450   26.6610   48.9370 C.3    88  ILE88       0.0001
      9  N         60.0650   23.5320   51.7330 N.3   100  LYS100     -0.1231
     10  CA        60.6390   23.9480   50.4620 C.3   100  LYS100      0.1678
     11  C         59.7590   23.3380   49.3690 C.2   100  LYS100      0.2434
     12  O         59.1960   22.2430   49.5180 O.2   100  LYS100     -0.2733
     13  CB        62.0760   23.4660   50.3030 C.3   100  LYS100      0.0284
     14  CG        63.1190   24.0230   51.2640 C.3   100  LYS100      0.0035
     15  CD        63.0930   25.4880   51.4210 C.3   100  LYS100      0.0206
     16  CE        64.2640   25.9120   52.2740 C.3   100  LYS100      0.1093
     17  NZ        64.0770   25.7170   53.7370 N.3   100  LYS100     -0.1314
     18  N         59.6810   24.0150   48.2420 N.am  101  PRO101     -0.2718
     19  CA        58.7780   23.5570   47.2000 C.3   101  PRO101      0.1535
     20  C         59.1770   22.2460   46.5080 C.2   101  PRO101      0.2599
     21  O         60.3290   21.9590   46.3000 O.2   101  PRO101     -0.2715
     22  CB        58.7470   24.7450   46.2380 C.3   101  PRO101      0.0310
     23  CG        60.0520   25.4670   46.4560 C.3   101  PRO101      0.0237
     24  CD        60.3380   25.2780   47.8920 C.3   101  PRO101      0.0939
     25  N         58.1950   21.4360   46.2090 N.am  102  PHE102     -0.1960
     26  CA        58.4420   20.1900   45.5180 C.3   102  PHE102      0.1771
     27  C         58.2570   20.3230   44.0130 C.2   102  PHE102      0.2619
     28  O         58.7010   19.4640   43.2610 O.2   102  PHE102     -0.2715
     29  CB        57.6290   19.0220   46.1300 C.3   102  PHE102      0.0574
     30  CG        56.1630   19.1710   46.0450 C.ar  102  PHE102     -0.0200
     31  CD1       55.4870   18.8510   44.8720 C.ar  102  PHE102     -0.0042
     32  CD2       55.4050   19.5820   47.1640 C.ar  102  PHE102     -0.0042
     33  CE1       54.1030   19.0270   44.8040 C.ar  102  PHE102     -0.0003
     34  CE2       54.0310   19.7260   47.0710 C.ar  102  PHE102     -0.0003
     35  CZ        53.3940   19.4100   45.9160 C.ar  102  PHE102     -0.0000
     36  N         57.6590   21.4250   43.5620 N.am  103  MET103     -0.1963
     37  CA        57.4550   21.6520   42.1380 C.3   103  MET103      0.1736
     38  C         57.3050   23.1240   41.8850 C.2   103  MET103      0.2617
     39  O         56.7140   23.8450   42.6690 O.2   103  MET103     -0.2715
     40  CB        56.1420   20.9720   41.6660 C.3   103  MET103      0.0427
     41  CG        55.9960   20.8440   40.1510 C.3   103  MET103      0.0599
     42  SD        54.4920   19.8340   39.8520 S.3   103  MET103     -0.1393
     43  CE        55.1250   18.2420   40.2830 C.3   103  MET103      0.0692
     44  N         57.8010   23.5300   40.7340 N.am  104  SER104     -0.1950
     45  CA        57.6530   24.9370   40.2700 C.3   104  SER104      0.1924
     46  C         56.4390   25.1070   39.2890 C.2   104  SER104      0.2314
     47  O         56.0150   24.1680   38.6310 O.2   104  SER104     -0.2863
     48  CB        58.9240   25.4030   39.6020 C.3   104  SER104      0.2116
     49  OG        59.0780   24.6970   38.3860 O.3   104  SER104     -0.2180
     50  N         56.0900   33.2720   38.9640 N.3   213  SER213     -0.1202
     51  CA        56.9280   32.1240   39.3220 C.3   213  SER213      0.2020
     52  C         56.7290   31.7630   40.7790 C.2   213  SER213      0.2619
     53  O         56.9170   32.6120   41.6780 O.2   213  SER213     -0.2717
     54  CB        58.3750   32.4150   39.0000 C.3   213  SER213      0.2103
     55  OG        59.2330   31.3190   39.4380 O.3   213  SER213     -0.2182
     56  N         56.2930   30.5260   41.0390 N.am  214  LYS214     -0.1965
     57  CA        56.0630   30.0600   42.4100 C.3   214  LYS214      0.1728
     58  C         56.2000   28.6080   42.5140 C.2   214  LYS214      0.2616
     59  O         56.7100   27.9720   41.5710 O.2   214  LYS214     -0.2715
     60  CB        54.8330   30.5730   43.0120 C.3   214  LYS214      0.0311
     61  CG        53.6250   30.1870   42.3030 C.3   214  LYS214      0.0038
     62  CD        52.7630   31.4490   42.4120 C.3   214  LYS214      0.0206
     63  CE        51.6690   31.2740   41.4180 C.3   214  LYS214      0.1093
     64  NZ        50.6020   32.2430   41.4410 N.3   214  LYS214     -0.1314
     65  N         55.8500   28.0770   43.6730 N.am  215  GLY215     -0.1955
     66  CA        56.0330   26.6430   43.9430 C.3   215  GLY215      0.1869
     67  C         54.9190   26.0810   44.8110 C.2   215  GLY215      0.2309
     68  O         54.2440   26.8720   45.5150 O.2   215  GLY215     -0.2863
     69  N         61.4520   16.1570   51.4640 N.3   234  VAL234     -0.1231
     70  CA        61.3330   16.8160   50.1650 C.3   234  VAL234      0.1692
     71  C         62.6980   17.0720   49.5130 C.2   234  VAL234      0.2591
     72  O         62.8900   16.8120   48.3230 O.2   234  VAL234     -0.2718
     73  CB        60.5450   18.1630   50.2960 C.3   234  VAL234      0.0266
     74  CG1       60.6670   19.0410   49.0230 C.3   234  VAL234      0.0020
     75  CG2       59.1060   17.8890   50.5670 C.3   234  VAL234      0.0020
     76  N         63.6300   17.6380   50.2570 N.am  235  LEU235     -0.1980
     77  CA        64.9550   17.9200   49.6950 C.3   235  LEU235      0.1596
     78  C         65.6900   16.6490   49.1900 C.2   235  LEU235      0.2287
     79  O         66.2720   16.6170   48.0920 O.2   235  LEU235     -0.2864
     80  CB        65.7950   18.6120   50.7500 C.3   235  LEU235      0.0297
     81  CG        65.4110   20.0370   51.1200 C.3   235  LEU235      0.0022
     82  CD1       65.9210   20.3740   52.4970 C.3   235  LEU235      0.0001
     83  CD2       66.1030   20.9100   50.1400 C.3   235  LEU235      0.0001
     84  N         64.1770   15.3470   46.0140 N.3   238  ASN238     -0.1240
     85  CA        64.5900   16.1080   44.8090 C.3   238  ASN238      0.1653
     86  C         65.9520   15.6790   44.3980 C.2   238  ASN238      0.2266
     87  O         66.1710   15.4920   43.2050 O.2   238  ASN238     -0.2867
     88  CB        64.5770   17.5900   44.9960 C.3   238  ASN238      0.1155
     89  CG        64.6940   18.3880   43.6660 C.2   238  ASN238      0.2627
     90  OD1       63.9380   18.2010   42.6930 O.2   238  ASN238     -0.2716
     91  ND2       65.6010   19.3420   43.6660 N.am  238  ASN238     -0.0877
     92  N         61.6540   13.4180   42.4250 N.3   243  LEU243     -0.1245
     93  CA        60.6330   14.3700   42.0670 C.3   243  LEU243      0.1561
     94  C         60.6100   14.4900   40.5610 C.2   243  LEU243      0.2260
     95  O         59.5470   14.5190   39.9820 O.2   243  LEU243     -0.2867
     96  CB        60.7950   15.7230   42.7630 C.3   243  LEU243      0.0270
     97  CG        60.8290   15.7900   44.2970 C.3   243  LEU243      0.0019
     98  CD1       60.9920   17.1720   44.9080 C.3   243  LEU243      0.0001
     99  CD2       59.5870   15.0980   44.8700 C.3   243  LEU243      0.0001
@<TRIPOS>BOND
     1    49    48    1
     2    47    46    2
     3    50    51    1
     4    54    51    1
     5    54    55    1
     6    46    45    1
     7    51    52    1
     8    48    45    1
     9    42    41    1
    10    42    43    1
    11    95    94    2
    12    41    40    1
    13    45    44    1
    14    94    93    1
    15    44    38   am
    16    52    56   am
    17    52    53    2
    18    56    57    1
    19    63    64    1
    20    63    62    1
    21    59    58    2
    22    40    37    1
    23    38    37    1
    24    38    39    2
    25    93    92    1
    26    93    96    1
    27    37    36    1
    28    61    62    1
    29    61    60    1
    30    57    58    1
    31    57    60    1
    32    58    65   am
    33    90    89    2
    34    96    97    1
    35    87    86    2
    36    28    27    2
    37    36    27   am
    38    89    91   am
    39    89    88    1
    40    65    66    1
    41    66    67    1
    42    27    26    1
    43    97    99    1
    44    97    98    1
    45    86    85    1
    46    33    31   ar
    47    33    35   ar
    48    85    88    1
    49    85    84    1
    50    67    68    2
    51    31    30   ar
    52    26    29    1
    53    26    25    1
    54    35    34   ar
    55    30    29    1
    56    30    32   ar
    57    25    20   am
    58    22    23    1
    59    22    19    1
    60    21    20    2
    61    23    24    1
    62    20    19    1
    63    34    32   ar
    64    19    18    1
    65     4     3    2
    66     1     2    1
    67    24    18    1
    68    79    78    2
    69    18    11   am
    70    72    71    2
    71     3     2    1
    72     2     5    1
    73     5     6    1
    74     5     7    1
    75     8     6    1
    76    74    73    1
    77    78    77    1
    78    11    12    2
    79    11    10    1
    80    71    70    1
    81    71    76   am
    82    77    76    1
    83    77    80    1
    84    83    81    1
    85    70    73    1
    86    70    69    1
    87    73    75    1
    88    13    10    1
    89    13    14    1
    90    10     9    1
    91    80    81    1
    92    81    82    1
    93    14    15    1
    94    15    16    1
    95    16    17    1
