@<TRIPOS>MOLECULE
tmp/4lzjB00.pdb
 125 119 0 0 0
SMALL
GASTEIGER

@<TRIPOS>ATOM
      1  N        -41.8300   38.6240  174.3200 N.3    74  ALA74      -0.1231
      2  CA       -43.1550   39.2140  174.1220 C.3    74  ALA74       0.1694
      3  C        -43.3000   39.6490  172.6700 C.2    74  ALA74       0.2593
      4  O        -42.3050   39.7430  171.9450 O.2    74  ALA74      -0.2718
      5  CB       -43.3650   40.4050  175.0640 C.3    74  ALA74       0.0304
      6  N        -44.5330   39.9070  172.2490 N.am   75  GLY75      -0.1942
      7  CA       -44.7930   40.3760  170.9010 C.3    75  GLY75       0.2014
      8  C        -44.1900   39.4800  169.8390 C.2    75  GLY75       0.2640
      9  O        -44.2570   38.2500  169.9530 O.2    75  GLY75      -0.2714
     10  N        -43.5840   40.0850  168.8180 N.am   76  THR76      -0.1936
     11  CA       -42.9660   39.3210  167.7330 C.3    76  THR76       0.2028
     12  C        -41.8480   38.3860  168.2260 C.2    76  THR76       0.2642
     13  O        -41.7330   37.2440  167.7640 O.2    76  THR76      -0.2714
     14  CB       -42.4720   40.2380  166.5920 C.3    76  THR76       0.1808
     15  OG1      -43.5970   40.6530  165.8040 O.3    76  THR76      -0.2208
     16  CG2      -41.4850   39.5010  165.6820 C.3    76  THR76       0.0379
     17  N        -41.0540   38.8580  169.1830 N.am   77  SER77      -0.1949
     18  CA       -39.9840   38.0370  169.7500 C.3    77  SER77       0.1924
     19  C        -40.5370   36.7390  170.3010 C.2    77  SER77       0.2314
     20  O        -40.0710   35.6630  169.9580 O.2    77  SER77      -0.2863
     21  CB       -39.2560   38.7870  170.8710 C.3    77  SER77       0.2116
     22  OG       -38.5180   39.8770  170.3550 O.3    77  SER77      -0.2180
     23  N        -43.4390   35.3720  169.6910 N.3    79  ARG79      -0.1245
     24  CA       -44.0330   34.5840  168.6290 C.3    79  ARG79       0.1563
     25  C        -42.9600   33.8530  167.8190 C.2    79  ARG79       0.2260
     26  O        -43.1940   32.7490  167.3320 O.2    79  ARG79      -0.2867
     27  CB       -44.9370   35.4420  167.7280 C.3    79  ARG79       0.0307
     28  CG       -46.0850   36.1030  168.4890 C.3    79  ARG79       0.0489
     29  CD       -47.1260   36.8040  167.5990 C.3    79  ARG79       0.2205
     30  NE       -48.0450   37.5740  168.4380 N.pl3  79  ARG79      -0.0865
     31  CZ       -47.9490   38.8830  168.6590 C.cat  79  ARG79       0.5346
     32  NH1      -47.0050   39.6030  168.0650 N.pl3  79  ARG79       0.1354
     33  NH2      -48.8200   39.4760  169.4570 N.pl3  79  ARG79       0.1354
     34  N        -51.5940   41.2690  170.1970 N.3   113  PRO113     -0.2102
     35  CA       -50.9670   41.7110  171.4460 C.3   113  PRO113      0.1504
     36  C        -51.9310   41.6450  172.6170 C.2   113  PRO113      0.2575
     37  O        -53.1450   41.6670  172.4280 O.2   113  PRO113     -0.2718
     38  CB       -50.5770   43.1710  171.1590 C.3   113  PRO113      0.0282
     39  CG       -51.3270   43.5510  169.9300 C.3   113  PRO113      0.0208
     40  CD       -51.5030   42.2870  169.1400 C.3   113  PRO113      0.0893
     41  N        -51.3670   41.5570  173.8140 N.am  114  VAL114     -0.1980
     42  CA       -52.1110   41.6060  175.0590 C.3   114  VAL114      0.1595
     43  C        -51.5380   42.7630  175.8680 C.2   114  VAL114      0.2287
     44  O        -50.3460   42.7700  176.2060 O.2   114  VAL114     -0.2864
     45  CB       -51.9440   40.3100  175.8780 C.3   114  VAL114      0.0276
     46  CG1      -52.3770   40.5310  177.3310 C.3   114  VAL114      0.0022
     47  CG2      -52.6970   39.1460  175.2320 C.3   114  VAL114      0.0022
     48  N        -45.8600   42.5530  178.3190 N.3   118  GLU118     -0.1245
     49  CA       -44.4010   42.6350  178.3900 C.3   118  GLU118      0.1567
     50  C        -43.8970   43.4450  179.5770 C.2   118  GLU118      0.2260
     51  O        -42.7000   43.4560  179.8680 O.2   118  GLU118     -0.2867
     52  CB       -43.8070   43.1830  177.0930 C.3   118  GLU118      0.0388
     53  CG       -44.1240   44.6200  176.7610 C.3   118  GLU118      0.1160
     54  CD       -43.2990   45.1030  175.5850 C.2   118  GLU118      0.3649
     55  OE1      -42.5210   46.0730  175.7440 O.co2 118  GLU118     -0.2457
     56  OE2      -43.4120   44.4960  174.4990 O.co2 118  GLU118     -0.2457
     57  N        -35.5360   36.5000  174.4440 N.3   142  ILE142     -0.1231
     58  CA       -35.5180   37.1610  173.1470 C.3   142  ILE142      0.1692
     59  C        -36.2320   38.4990  173.2360 C.2   142  ILE142      0.2592
     60  O        -37.4280   38.5390  173.5150 O.2   142  ILE142     -0.2718
     61  CB       -36.2370   36.3310  172.0840 C.3   142  ILE142      0.0266
     62  CG1      -35.8480   34.8490  172.1910 C.3   142  ILE142      0.0019
     63  CG2      -35.9600   36.8650  170.7080 C.3   142  ILE142      0.0020
     64  CD1      -36.9360   33.9070  171.6850 C.3   142  ILE142      0.0001
     65  N        -35.5030   39.5850  172.9860 N.am  143  ALA143     -0.1966
     66  CA       -36.0630   40.9420  173.0070 C.3   143  ALA143      0.1728
     67  C        -35.1500   41.8940  172.2430 C.2   143  ALA143      0.2616
     68  O        -34.0160   42.1400  172.6610 O.2   143  ALA143     -0.2715
     69  CB       -36.2520   41.4410  174.4540 C.3   143  ALA143      0.0334
     70  N        -35.6390   42.4210  171.1230 N.am  144  ALA144     -0.1963
     71  CA       -34.8540   43.3410  170.3160 C.3   144  ALA144      0.1728
     72  C        -34.3020   44.4760  171.1780 C.2   144  ALA144      0.2616
     73  O        -33.1260   44.8040  171.0610 O.2   144  ALA144     -0.2715
     74  CB       -35.6750   43.8870  169.1640 C.3   144  ALA144      0.0334
     75  N        -35.1400   45.0270  172.0660 N.am  145  SER145     -0.1950
     76  CA       -34.7800   46.1960  172.8910 C.3   145  SER145      0.1924
     77  C        -33.7060   45.8730  173.9180 C.2   145  SER145      0.2314
     78  O        -32.9690   46.7490  174.3580 O.2   145  SER145     -0.2863
     79  CB       -36.0100   46.7480  173.6350 C.3   145  SER145      0.2116
     80  OG       -36.3690   45.9000  174.7350 O.3   145  SER145     -0.2180
     81  N        -34.3130   45.2610  176.9080 N.3   147  ARG147     -0.1231
     82  CA       -34.7820   45.7380  178.2200 C.3   147  ARG147      0.1694
     83  C        -36.2690   45.4570  178.5280 C.2   147  ARG147      0.2592
     84  O        -36.8620   46.0930  179.3990 O.2   147  ARG147     -0.2718
     85  CB       -34.4590   47.2340  178.4390 C.3   147  ARG147      0.0321
     86  CG       -34.7980   48.1890  177.2820 C.3   147  ARG147      0.0489
     87  CD       -36.2600   48.1050  176.7820 C.3   147  ARG147      0.2205
     88  NE       -37.2760   48.6340  177.6970 N.pl3 147  ARG147     -0.0865
     89  CZ       -38.5850   48.4160  177.5530 C.cat 147  ARG147      0.5346
     90  NH1      -39.0160   47.6700  176.5380 N.pl3 147  ARG147      0.1354
     91  NH2      -39.4620   48.9260  178.4190 N.pl3 147  ARG147      0.1354
     92  N        -36.8640   44.5260  177.7970 N.am  148  THR148     -0.1953
     93  CA       -38.2370   44.1150  178.0430 C.3   148  THR148      0.1897
     94  C        -38.3550   43.4730  179.4330 C.2   148  THR148      0.2313
     95  O        -37.7710   42.4040  179.6830 O.2   148  THR148     -0.2863
     96  CB       -38.6910   43.1620  176.9280 C.3   148  THR148      0.1794
     97  OG1      -38.4690   43.8030  175.6680 O.3   148  THR148     -0.2208
     98  CG2      -40.1560   42.7910  177.0590 C.3   148  THR148      0.0378
     99  N        -38.5310   51.9040  165.1420 N.3   195  GLY195     -0.1210
    100  CA       -38.9990   51.0320  166.2050 C.3   195  GLY195      0.1956
    101  C        -39.8320   49.8460  165.7600 C.2   195  GLY195      0.2613
    102  O        -40.4430   49.1900  166.5890 O.2   195  GLY195     -0.2717
    103  N        -39.8700   49.5620  164.4640 N.am  196  SER196     -0.1938
    104  CA       -40.5910   48.3880  163.9700 C.3   196  SER196      0.2055
    105  C        -39.6330   47.1950  164.0240 C.2   196  SER196      0.2644
    106  O        -39.0520   46.8000  163.0160 O.2   196  SER196     -0.2714
    107  CB       -41.1100   48.6270  162.5390 C.3   196  SER196      0.2130
    108  OG       -42.1590   47.7270  162.2020 O.3   196  SER196     -0.2179
    109  N        -39.4470   46.6490  165.2200 N.am  197  SER197     -0.1935
    110  CA       -38.4180   45.6280  165.4450 C.3   197  SER197      0.2055
    111  C        -38.8060   44.2770  164.8700 C.2   197  SER197      0.2642
    112  O        -37.9820   43.3790  164.7790 O.2   197  SER197     -0.2714
    113  CB       -38.0400   45.5050  166.9290 C.3   197  SER197      0.2130
    114  OG       -39.1680   45.5940  167.7790 O.3   197  SER197     -0.2179
    115  N        -40.0560   44.1680  164.4480 N.am  198  ARG198     -0.1977
    116  CA       -40.5610   42.9840  163.7880 C.3   198  ARG198      0.1597
    117  C        -39.8650   42.7420  162.4560 C.2   198  ARG198      0.2287
    118  O        -39.9640   41.6570  161.9020 O.2   198  ARG198     -0.2864
    119  CB       -42.0720   43.1270  163.5480 C.3   198  ARG198      0.0334
    120  CG       -42.4270   44.0710  162.3920 C.3   198  ARG198      0.0492
    121  CD       -43.9420   44.2580  162.2460 C.3   198  ARG198      0.2205
    122  NE       -44.3130   44.6820  160.8990 N.pl3 198  ARG198     -0.0865
    123  CZ       -44.8520   43.8830  159.9780 C.cat 198  ARG198      0.5346
    124  NH1      -45.1070   42.6080  160.2700 N.pl3 198  ARG198      0.1354
    125  NH2      -45.1520   44.3600  158.7690 N.pl3 198  ARG198      0.1354
@<TRIPOS>BOND
     1   125   123    1
     2   123   124    1
     3   123   122    2
     4   122   121    1
     5   118   117    2
     6   108   107    1
     7   121   120    1
     8   120   119    1
     9   117   116    1
    10   107   104    1
    11   106   105    2
    12   119   116    1
    13   116   115    1
    14   104   105    1
    15   104   103    1
    16   105   109   am
    17   115   111   am
    18   103   101   am
    19   112   111    2
    20   111   110    1
    21    99   100    1
    22   109   110    1
    23   110   113    1
    24    16    14    1
    25   101   100    1
    26   101   102    2
    27    15    14    1
    28    14    11    1
    29   113   114    1
    30    26    25    2
    31    29    30    1
    32    29    28    1
    33    27    28    1
    34    27    24    1
    35    11    12    1
    36    11    10    1
    37    13    12    2
    38    25    24    1
    39    32    31    1
    40    12    17   am
    41    30    31    2
    42    24    23    1
    43    31    33    1
    44    10     8   am
    45    40    39    1
    46    40    34    1
    47    74    71    1
    48    17    18    1
    49    18    19    1
    50    18    21    1
    51     8     9    2
    52     8     7    1
    53    39    38    1
    54    20    19    2
    55    34    35    1
    56    71    70    1
    57    71    72    1
    58    22    21    1
    59    63    61    1
    60     7     6    1
    61    73    72    2
    62    70    67   am
    63    38    35    1
    64    72    75   am
    65    35    36    1
    66    64    62    1
    67     4     3    2
    68    75    76    1
    69    61    62    1
    70    61    58    1
    71    67    68    2
    72    67    66    1
    73     6     3   am
    74    37    36    2
    75    36    41   am
    76     3     2    1
    77    76    79    1
    78    76    77    1
    79    65    66    1
    80    65    59   am
    81    66    69    1
    82    58    59    1
    83    58    57    1
    84    59    60    2
    85    79    80    1
    86    41    42    1
    87    77    78    2
    88     2     1    1
    89     2     5    1
    90    56    54   ar
    91    42    43    1
    92    42    45    1
    93    47    45    1
    94    54    55   ar
    95    54    53    1
    96    97    96    1
    97    43    44    2
    98    45    46    1
    99    90    89    1
   100    53    52    1
   101    87    86    1
   102    87    88    1
   103    81    82    1
   104    96    98    1
   105    96    93    1
   106    52    49    1
   107    86    85    1
   108    89    88    2
   109    89    91    1
   110    92    93    1
   111    92    83   am
   112    93    94    1
   113    82    85    1
   114    82    83    1
   115    48    49    1
   116    49    50    1
   117    83    84    2
   118    94    95    2
   119    50    51    2
