@<TRIPOS>MOLECULE
tmp/4lzjA00.pdb
 86 80 0 0 0
SMALL
GASTEIGER

@<TRIPOS>ATOM
      1  N          6.8470   22.3770  169.9410 N.3    78  SER78      -0.1202
      2  CA         7.9580   21.5310  169.5090 C.3    78  SER78       0.2020
      3  C          7.4570   20.1690  169.0220 C.2    78  SER78       0.2618
      4  O          7.9870   19.5980  168.0640 O.2    78  SER78      -0.2717
      5  CB         8.9920   21.3560  170.6410 C.3    78  SER78       0.2103
      6  OG         8.5820   20.4110  171.6390 O.3    78  SER78      -0.2182
      7  N          6.4120   19.6800  169.6810 N.am   79  GLU79      -0.1979
      8  CA         5.9270   18.3270  169.4860 C.3    79  GLU79       0.1602
      9  C          4.9590   18.1560  168.3140 C.2    79  GLU79       0.2287
     10  O          4.6000   17.0340  167.9800 O.2    79  GLU79      -0.2864
     11  CB         5.2900   17.8100  170.7760 C.3    79  GLU79       0.0415
     12  CG         6.2880   17.3220  171.8210 C.3    79  GLU79       0.1163
     13  CD         7.0330   16.0560  171.3790 C.2    79  GLU79       0.3649
     14  OE1        6.6420   15.4310  170.3620 O.co2  79  GLU79      -0.2457
     15  OE2        8.0250   15.6890  172.0470 O.co2  79  GLU79      -0.2457
     16  N          6.6210   16.1650  164.8580 N.3    82  PRO82      -0.2102
     17  CA         6.7620   14.7100  164.9980 C.3    82  PRO82       0.1504
     18  C          5.4740   13.9470  165.3420 C.2    82  PRO82       0.2576
     19  O          5.3800   12.7570  165.0160 O.2    82  PRO82      -0.2718
     20  CB         7.7540   14.5640  166.1550 C.3    82  PRO82       0.0282
     21  CG         7.6730   15.8510  166.8900 C.3    82  PRO82       0.0208
     22  CD         7.4210   16.8900  165.8630 C.3    82  PRO82       0.0893
     23  N          4.5110   14.5880  165.9970 N.am   83  THR83      -0.1953
     24  CA         3.2840   13.8830  166.3690 C.3    83  THR83       0.1897
     25  C          2.2410   13.9040  165.2370 C.2    83  THR83       0.2313
     26  O          1.5980   12.8830  164.9370 O.2    83  THR83      -0.2863
     27  CB         2.6670   14.4740  167.6570 C.3    83  THR83       0.1794
     28  OG1        3.6470   14.4550  168.6900 O.3    83  THR83      -0.2208
     29  CG2        1.4320   13.6800  168.1030 C.3    83  THR83       0.0378
     30  N         -1.8140    7.4510  166.2520 N.3   220  MET220     -0.1245
     31  CA        -0.9920    8.5780  165.8340 C.3   220  MET220      0.1570
     32  C         -0.5020    8.4030  164.3840 C.2   220  MET220      0.2261
     33  O          0.6960    8.3590  164.1420 O.2   220  MET220     -0.2867
     34  CB         0.1850    8.6910  166.8030 C.3   220  MET220      0.0387
     35  CG         0.9210   10.0070  166.7990 C.3   220  MET220      0.0595
     36  SD         2.3350    9.8130  167.9070 S.3   220  MET220     -0.1393
     37  CE         1.5530   10.0200  169.5160 C.3   220  MET220      0.0692
     38  N          2.6260   10.1920  162.7770 N.3   223  VAL223     -0.1245
     39  CA         3.8780   10.2250  163.5060 C.3   223  VAL223      0.1561
     40  C          5.1030   10.1640  162.5710 C.2   223  VAL223      0.2260
     41  O          5.1150    9.4270  161.5880 O.2   223  VAL223     -0.2867
     42  CB         3.9520    9.1040  164.5570 C.3   223  VAL223      0.0252
     43  CG1        4.0230    7.7330  163.8860 C.3   223  VAL223      0.0019
     44  CG2        5.1550    9.3180  165.4600 C.3   223  VAL223      0.0019
     45  N         11.4230    8.9520  164.1000 N.3   226  SER226     -0.1202
     46  CA        12.8040    9.4200  164.1520 C.3   226  SER226      0.2020
     47  C         13.6440    8.6410  165.1490 C.2   226  SER226      0.2618
     48  O         14.7490    9.0520  165.4780 O.2   226  SER226     -0.2717
     49  CB        12.8470   10.8980  164.5330 C.3   226  SER226      0.2103
     50  OG        12.3510   11.0810  165.8520 O.3   226  SER226     -0.2182
     51  N         13.1120    7.5320  165.6440 N.am  227  ASN227     -0.1974
     52  CA        13.8350    6.6840  166.5890 C.3   227  ASN227      0.1688
     53  C         13.2080    5.2950  166.6510 C.2   227  ASN227      0.2292
     54  O         12.1870    5.0480  166.0220 O.2   227  ASN227     -0.2864
     55  CB        13.9110    7.3330  167.9800 C.3   227  ASN227      0.1181
     56  CG        12.5430    7.4980  168.6360 C.2   227  ASN227      0.2629
     57  OD1       11.7550    6.5500  168.6990 O.2   227  ASN227     -0.2716
     58  ND2       12.2550    8.7080  169.1260 N.am  227  ASN227     -0.0877
     59  N         11.6310    3.4860  169.1050 N.3   229  LYS229     -0.1231
     60  CA        10.2830    3.4330  169.6650 C.3   229  LYS229      0.1693
     61  C          9.2710    3.8390  168.6130 C.2   229  LYS229      0.2591
     62  O          8.2890    3.1380  168.3840 O.2   229  LYS229     -0.2718
     63  CB        10.1590    4.3870  170.8520 C.3   229  LYS229      0.0285
     64  CG         8.8310    4.3130  171.5600 C.3   229  LYS229      0.0035
     65  CD         8.7630    5.2950  172.7210 C.3   229  LYS229      0.0206
     66  CE         8.9160    6.7250  172.2400 C.3   229  LYS229      0.1093
     67  NZ         9.3400    7.5820  173.3500 N.3   229  LYS229     -0.1314
     68  N          9.5230    4.9690  167.9570 N.am  230  LEU230     -0.1980
     69  CA         8.5640    5.5210  167.0080 C.3   230  LEU230      0.1596
     70  C          8.4260    4.6770  165.7330 C.2   230  LEU230      0.2287
     71  O          7.3190    4.5240  165.1950 O.2   230  LEU230     -0.2864
     72  CB         8.8920    6.9860  166.6810 C.3   230  LEU230      0.0297
     73  CG         8.7580    8.0000  167.8260 C.3   230  LEU230      0.0022
     74  CD1        8.8950    9.4290  167.3050 C.3   230  LEU230      0.0001
     75  CD2        7.4450    7.8330  168.6030 C.3   230  LEU230      0.0001
     76  N          6.3440    1.9930  166.6030 N.3   233  ARG233     -0.1245
     77  CA         4.9790    2.3920  166.8480 C.3   233  ARG233      0.1563
     78  C          4.2260    2.5580  165.5220 C.2   233  ARG233      0.2260
     79  O          3.0370    2.2290  165.4220 O.2   233  ARG233     -0.2867
     80  CB         4.9070    3.6490  167.7080 C.3   233  ARG233      0.0307
     81  CG         3.4940    3.9830  168.1630 C.3   233  ARG233      0.0489
     82  CD         3.4130    5.3930  168.7140 C.3   233  ARG233      0.2205
     83  NE         4.1200    5.4880  169.9880 N.pl3 233  ARG233     -0.0865
     84  CZ         4.5950    6.6200  170.4820 C.cat 233  ARG233      0.5346
     85  NH1        4.4260    7.7530  169.8120 N.pl3 233  ARG233      0.1354
     86  NH2        5.2440    6.6100  171.6350 N.pl3 233  ARG233      0.1354
@<TRIPOS>BOND
     1    41    40    2
     2    40    39    1
     3    38    39    1
     4    39    42    1
     5    43    42    1
     6    45    46    1
     7    33    32    2
     8    46    49    1
     9    46    47    1
    10    32    31    1
    11    49    50    1
    12    42    44    1
    13    16    17    1
    14    16    22    1
    15    26    25    2
    16    17    18    1
    17    17    20    1
    18    19    18    2
    19    47    48    2
    20    47    51   am
    21    71    70    2
    22    25    24    1
    23    18    23   am
    24    79    78    2
    25    78    77    1
    26    51    52    1
    27    70    69    1
    28    31    30    1
    29    31    34    1
    30    22    21    1
    31    23    24    1
    32    54    53    2
    33    20    21    1
    34    24    27    1
    35    52    53    1
    36    52    55    1
    37    76    77    1
    38    72    69    1
    39    72    73    1
    40    35    34    1
    41    35    36    1
    42    77    80    1
    43    69    68    1
    44    74    73    1
    45    27    29    1
    46    27    28    1
    47    80    81    1
    48    73    75    1
    49    36    37    1
    50    68    61   am
    51    10     9    2
    52    55    56    1
    53     4     3    2
    54    81    82    1
    55     9     8    1
    56    62    61    2
    57    61    60    1
    58    56    57    2
    59    56    58   am
    60    82    83    1
    61     3     2    1
    62     3     7   am
    63    59    60    1
    64     8     7    1
    65     8    11    1
    66     2     1    1
    67     2     5    1
    68    60    63    1
    69    85    84    1
    70    83    84    2
    71    14    13   ar
    72    84    86    1
    73     5     6    1
    74    11    12    1
    75    63    64    1
    76    13    12    1
    77    13    15   ar
    78    64    65    1
    79    66    65    1
    80    66    67    1
