@<TRIPOS>MOLECULE
tmp/4lzrA00.pdb
 142 138 0 0 0
SMALL
GASTEIGER

@<TRIPOS>ATOM
      1  N         -4.0970    0.7920    2.0770 N.3    40  TRP40      -0.1228
      2  CA        -3.9790    2.1760    2.5430 C.3    40  TRP40       0.1722
      3  C         -5.2900    2.9400    2.7380 C.2    40  TRP40       0.2437
      4  O         -5.4200    3.6490    3.7390 O.2    40  TRP40      -0.2733
      5  CB        -2.9150    2.9670    1.7500 C.3    40  TRP40       0.0563
      6  CG        -3.2230    3.1030    0.2820 C.ar   40  TRP40       0.0003
      7  CD1       -2.8810    2.2200   -0.7370 C.ar   40  TRP40       0.0946
      8  CD2       -3.9860    4.1790   -0.3770 C.ar   40  TRP40       0.0152
      9  NE1       -3.3540    2.6610   -1.9500 N.ar   40  TRP40      -0.2442
     10  CE2       -4.0220    3.8380   -1.8060 C.ar   40  TRP40       0.0810
     11  CE3       -4.6160    5.3500    0.0560 C.ar   40  TRP40       0.0012
     12  CZ2       -4.6620    4.6480   -2.7400 C.ar   40  TRP40       0.0191
     13  CZ3       -5.2530    6.1600   -0.8970 C.ar   40  TRP40       0.0001
     14  CH2       -5.2880    5.8130   -2.2560 C.ar   40  TRP40       0.0015
     15  N         -6.2820    2.7980    1.8190 N.am   41  PRO41      -0.2718
     16  CA        -7.5490    3.5360    2.0570 C.3    41  PRO41       0.1535
     17  C         -8.3360    3.0070    3.2570 C.2    41  PRO41       0.2598
     18  O         -9.2260    3.6990    3.7710 O.2    41  PRO41      -0.2715
     19  CB        -8.3550    3.2780    0.7780 C.3    41  PRO41       0.0310
     20  CG        -7.3300    2.8650   -0.2530 C.3    41  PRO41       0.0237
     21  CD        -6.3300    2.0680    0.5350 C.3    41  PRO41       0.0939
     22  N         -7.9950    1.8010    3.7010 N.am   42  PHE42      -0.1974
     23  CA        -8.6910    1.1140    4.7810 C.3    42  PHE42       0.1639
     24  C         -7.9450    1.1350    6.1250 C.2    42  PHE42       0.2290
     25  O         -8.3960    0.5470    7.1050 O.2    42  PHE42      -0.2864
     26  CB        -9.0170   -0.3190    4.3310 C.3    42  PHE42       0.0560
     27  CG        -9.7120   -0.3750    2.9880 C.ar   42  PHE42      -0.0200
     28  CD1      -11.1010   -0.2140    2.8830 C.ar   42  PHE42      -0.0042
     29  CD2       -8.9770   -0.5580    1.8180 C.ar   42  PHE42      -0.0042
     30  CE1      -11.7300   -0.2340    1.6450 C.ar   42  PHE42      -0.0003
     31  CE2       -9.6130   -0.6060    0.5780 C.ar   42  PHE42      -0.0003
     32  CZ       -10.9840   -0.4330    0.4990 C.ar   42  PHE42      -0.0000
     33  N        -12.5110    6.8200    7.2530 N.3    46  VAL46      -0.1245
     34  CA       -12.7270    7.7450    6.1470 C.3    46  VAL46       0.1561
     35  C        -12.7470    9.1990    6.6590 C.2    46  VAL46       0.2260
     36  O        -13.5270    9.5790    7.5660 O.2    46  VAL46      -0.2867
     37  CB       -13.9960    7.3960    5.3570 C.3    46  VAL46       0.0252
     38  CG1      -14.2790    8.4720    4.3130 C.3    46  VAL46       0.0019
     39  CG2      -13.8250    6.0430    4.6760 C.3    46  VAL46       0.0019
     40  N        -10.6370   15.8240    4.9780 N.3    50  LYS50      -0.1231
     41  CA        -9.4580   15.7480    4.1150 C.3    50  LYS50       0.1693
     42  C         -9.7980   15.3140    2.6790 C.2    50  LYS50       0.2591
     43  O         -9.1340   15.7340    1.7230 O.2    50  LYS50      -0.2718
     44  CB        -8.4420   14.7860    4.7330 C.3    50  LYS50       0.0285
     45  CG        -7.5790   14.0220    3.7430 C.3    50  LYS50       0.0035
     46  CD        -6.1180   14.3360    3.9010 C.3    50  LYS50       0.0206
     47  CE        -5.5170   13.7390    5.1670 C.3    50  LYS50       0.1093
     48  NZ        -4.3990   14.5960    5.6570 N.3    50  LYS50      -0.1314
     49  N        -10.8290   14.4830    2.5440 N.am   51  LEU51      -0.1980
     50  CA       -11.2040   13.9140    1.2490 C.3    51  LEU51       0.1596
     51  C        -12.4240   14.5970    0.6360 C.2    51  LEU51       0.2287
     52  O        -12.9400   14.1450   -0.3890 O.2    51  LEU51      -0.2864
     53  CB       -11.4260   12.3870    1.3720 C.3    51  LEU51       0.0297
     54  CG       -10.3050   11.5910    2.0640 C.3    51  LEU51       0.0022
     55  CD1      -10.6430   10.1180    2.1920 C.3    51  LEU51       0.0001
     56  CD2       -8.9670   11.7830    1.3420 C.3    51  LEU51       0.0001
     57  N        -15.7330   14.8470    1.3750 N.3    53  LEU53      -0.1245
     58  CA       -16.8660   13.9470    1.1660 C.3    53  LEU53       0.1561
     59  C        -18.0010   14.2810    2.1300 C.2    53  LEU53       0.2260
     60  O        -18.1900   13.5590    3.1210 O.2    53  LEU53      -0.2867
     61  CB       -16.4550   12.5000    1.3980 C.3    53  LEU53       0.0270
     62  CG       -15.5380   11.7380    0.4750 C.3    53  LEU53       0.0019
     63  CD1      -15.4650   10.3150    1.0010 C.3    53  LEU53       0.0001
     64  CD2      -16.0470   11.7910   -0.9590 C.3    53  LEU53       0.0001
     65  N        -20.5670   11.2640    2.7720 N.3    56  TYR56      -0.1241
     66  CA       -20.1430    9.9130    3.1430 C.3    56  TYR56       0.1605
     67  C        -20.8620    9.4310    4.3970 C.2    56  TYR56       0.2264
     68  O        -21.3990    8.3050    4.4290 O.2    56  TYR56      -0.2867
     69  CB       -18.6250    9.7970    3.3210 C.3    56  TYR56       0.0534
     70  CG       -18.2050    8.3630    3.6050 C.ar   56  TYR56      -0.0201
     71  CD1      -18.0860    7.8970    4.9170 C.ar   56  TYR56      -0.0009
     72  CD2      -17.9680    7.4680    2.5550 C.ar   56  TYR56      -0.0009
     73  CE1      -17.7500    6.5730    5.1830 C.ar   56  TYR56       0.0417
     74  CE2      -17.6300    6.1470    2.7990 C.ar   56  TYR56       0.0417
     75  CZ       -17.5200    5.7020    4.1160 C.ar   56  TYR56       0.1957
     76  OH       -17.2200    4.3710    4.3220 O.3    56  TYR56      -0.2866
     77  N        -16.7900   -3.0420    7.1090 N.3    91  MET91      -0.1245
     78  CA       -15.8540   -2.2210    6.3730 C.3    91  MET91       0.1570
     79  C        -15.9780   -2.4830    4.8660 C.2    91  MET91       0.2261
     80  O        -16.0390   -1.5410    4.0750 O.2    91  MET91      -0.2867
     81  CB       -14.4210   -2.5140    6.8160 C.3    91  MET91       0.0387
     82  CG       -13.3800   -1.8270    5.9430 C.3    91  MET91       0.0595
     83  SD       -11.7130   -2.1490    6.4940 S.3    91  MET91      -0.1393
     84  CE       -11.3530   -3.7150    5.7050 C.3    91  MET91       0.0692
     85  N        -17.8800    0.0600    1.7510 N.3    95  CYS95      -0.1235
     86  CA       -17.2260    0.4280    0.5180 C.3    95  CYS95       0.1677
     87  C        -18.0940    0.0990   -0.6860 C.2    95  CYS95       0.2270
     88  O        -18.2510    0.9290   -1.5940 O.2    95  CYS95      -0.2867
     89  CB       -15.8650   -0.2520    0.4340 C.3    95  CYS95       0.0956
     90  SG       -14.8750    0.2860   -0.9620 S.3    95  CYS95      -0.0801
     91  N        -21.2020    2.5580   -0.7440 N.3    98  TYR98      -0.1227
     92  CA       -20.9250    3.9550   -1.0370 C.3    98  TYR98       0.1736
     93  C        -20.5000    4.1610   -2.4930 C.2    98  TYR98       0.2595
     94  O        -20.8510    5.1720   -3.1150 O.2    98  TYR98      -0.2718
     95  CB       -19.8870    4.5300   -0.0840 C.3    98  TYR98       0.0548
     96  CG       -19.5890    5.9820   -0.3820 C.ar   98  TYR98      -0.0200
     97  CD1      -20.5300    6.9640   -0.1020 C.ar   98  TYR98      -0.0009
     98  CD2      -18.3800    6.3630   -0.9610 C.ar   98  TYR98      -0.0009
     99  CE1      -20.2740    8.2940   -0.3730 C.ar   98  TYR98       0.0417
    100  CE2      -18.1070    7.7030   -1.2460 C.ar   98  TYR98       0.0417
    101  CZ       -19.0710    8.6550   -0.9570 C.ar   98  TYR98       0.1957
    102  OH       -18.8300    9.9770   -1.2190 O.3    98  TYR98      -0.2866
    103  N        -19.7800    3.1820   -3.0340 N.am   99  ASN99      -0.1974
    104  CA       -19.2040    3.2720   -4.3660 C.3    99  ASN99       0.1688
    105  C        -19.9230    2.3610   -5.3640 C.2    99  ASN99       0.2292
    106  O        -20.9800    1.8030   -5.0580 O.2    99  ASN99      -0.2864
    107  CB       -17.6950    2.9850   -4.2790 C.3    99  ASN99       0.1181
    108  CG       -16.9970    3.8630   -3.2460 C.2    99  ASN99       0.2629
    109  OD1      -16.7100    5.0400   -3.5000 O.2    99  ASN99      -0.2716
    110  ND2      -16.7210    3.2910   -2.0640 N.am   99  ASN99      -0.0877
    111  N        -15.2210    0.5380   -9.6100 N.3   103  ASP103     -0.1225
    112  CA       -14.4050    1.6250   -9.0320 C.3   103  ASP103      0.1805
    113  C        -13.0870    1.0090   -8.5380 C.2   103  ASP103      0.2598
    114  O        -13.0730   -0.1290   -8.0680 O.2   103  ASP103     -0.2718
    115  CB       -15.0950    2.3350   -7.8650 C.3   103  ASP103      0.1424
    116  CG       -16.1960    3.2880   -8.3070 C.2   103  ASP103      0.3668
    117  OD1      -16.3170    3.5810   -9.5070 O.co2 103  ASP103     -0.2456
    118  OD2      -16.9590    3.7470   -7.4450 O.co2 103  ASP103     -0.2456
    119  N        -11.9830    1.7370   -8.6660 N.am  104  ASP104     -0.1960
    120  CA       -10.7040    1.2520   -8.1510 C.3   104  ASP104      0.1840
    121  C        -10.8460    0.8230   -6.6890 C.2   104  ASP104      0.2621
    122  O        -10.3670   -0.2490   -6.2950 O.2   104  ASP104     -0.2715
    123  CB        -9.6250    2.3230   -8.2580 C.3   104  ASP104      0.1450
    124  CG        -9.0640    2.4660   -9.6540 C.2   104  ASP104      0.3671
    125  OD1       -9.3200    1.6050  -10.5300 O.co2 104  ASP104     -0.2456
    126  OD2       -8.3370    3.4560   -9.8680 O.co2 104  ASP104     -0.2456
    127  N        -11.5400    1.6480   -5.9030 N.am  105  ILE105     -0.1977
    128  CA       -11.6660    1.4170   -4.4670 C.3   105  ILE105      0.1596
    129  C        -12.4040    0.1070   -4.1680 C.2   105  ILE105      0.2287
    130  O        -12.0310   -0.6170   -3.2520 O.2   105  ILE105     -0.2864
    131  CB       -12.3290    2.6150   -3.7380 C.3   105  ILE105      0.0276
    132  CG1      -12.1640    2.4930   -2.2200 C.3   105  ILE105      0.0022
    133  CG2      -13.7890    2.7570   -4.1260 C.3   105  ILE105      0.0022
    134  CD1      -10.7240    2.6880   -1.7770 C.3   105  ILE105      0.0001
    135  N        -10.0620   -2.7760   -4.9570 N.3   108  MET108     -0.1245
    136  CA        -9.1380   -2.8740   -3.8430 C.3   108  MET108      0.1570
    137  C         -9.7820   -3.5860   -2.6490 C.2   108  MET108      0.2261
    138  O         -9.1660   -4.4890   -2.0660 O.2   108  MET108     -0.2867
    139  CB        -8.6530   -1.4820   -3.4550 C.3   108  MET108      0.0387
    140  CG        -7.8970   -0.7910   -4.5770 C.3   108  MET108      0.0595
    141  SD        -7.5570    0.9590   -4.2720 S.3   108  MET108     -0.1393
    142  CE        -6.3040    0.8740   -2.9910 C.3   108  MET108      0.0692
@<TRIPOS>BOND
     1   125   124   ar
     2   126   124   ar
     3   124   123    1
     4   111   112    1
     5   117   116   ar
     6   112   113    1
     7   112   115    1
     8   119   113   am
     9   119   120    1
    10   113   114    2
    11   116   115    1
    12   116   118   ar
    13   123   120    1
    14   120   121    1
    15   121   122    2
    16   121   127   am
    17   127   128    1
    18   105   106    2
    19   105   104    1
    20   135   136    1
    21   140   141    1
    22   140   139    1
    23   128   129    1
    24   128   131    1
    25   104   107    1
    26   104   103    1
    27   107   108    1
    28   141   142    1
    29   129   130    2
    30   133   131    1
    31   136   139    1
    32   136   137    1
    33   131   132    1
    34   109   108    2
    35   108   110   am
    36    94    93    2
    37   103    93   am
    38    12    14   ar
    39    12    10   ar
    40   137   138    2
    41    93    92    1
    42    14    13   ar
    43   132   134    1
    44     9    10   ar
    45     9     7   ar
    46    10     8   ar
    47    88    87    2
    48   100    98   ar
    49   100   101   ar
    50   102   101    1
    51    92    91    1
    52    92    95    1
    53    90    89    1
    54    98    96   ar
    55    64    62    1
    56   101    99   ar
    57    13    11   ar
    58     7     6   ar
    59    87    86    1
    60    52    51    2
    61    96    97   ar
    62    96    95    1
    63     8    11   ar
    64     8     6   ar
    65    99    97   ar
    66    20    21    1
    67    20    19    1
    68     6     5    1
    69    89    86    1
    70    62    63    1
    71    62    61    1
    72    32    31   ar
    73    32    30   ar
    74    86    85    1
    75    21    15    1
    76    31    29   ar
    77    51    50    1
    78    19    16    1
    79    58    57    1
    80    58    61    1
    81    58    59    1
    82    50    53    1
    83    50    49    1
    84    56    54    1
    85    53    54    1
    86    30    28   ar
    87    43    42    2
    88     5     2    1
    89    29    27   ar
    90    15    16    1
    91    15     3   am
    92    16    17    1
    93    54    55    1
    94     1     2    1
    95    59    60    2
    96     2     3    1
    97    49    42   am
    98    72    74   ar
    99    72    70   ar
   100    42    41    1
   101     3     4    2
   102    65    66    1
   103    74    75   ar
   104    28    27   ar
   105    27    26    1
   106    66    69    1
   107    66    67    1
   108    17    22   am
   109    17    18    2
   110    69    70    1
   111    70    71   ar
   112    22    23    1
   113    45    46    1
   114    45    44    1
   115    46    47    1
   116    80    79    2
   117    41    44    1
   118    41    40    1
   119    75    76    1
   120    75    73   ar
   121    38    37    1
   122    26    23    1
   123    67    68    2
   124    39    37    1
   125    23    24    1
   126    79    78    1
   127    71    73   ar
   128    47    48    1
   129    37    34    1
   130    84    83    1
   131    82    83    1
   132    82    81    1
   133    24    25    2
   134    34    35    1
   135    34    33    1
   136    78    81    1
   137    78    77    1
   138    35    36    2
