@<TRIPOS>MOLECULE
tmp/4lzsA00.pdb
 126 121 0 0 0
SMALL
GASTEIGER

@<TRIPOS>ATOM
      1  N          3.9490   43.7090   78.4820 N.3    40  TRP40      -0.1228
      2  CA         3.7140   42.3300   78.9460 C.3    40  TRP40       0.1722
      3  C          4.9710   41.4730   79.1680 C.2    40  TRP40       0.2437
      4  O          5.0340   40.7430   80.1630 O.2    40  TRP40      -0.2733
      5  CB         2.6880   41.5850   78.0600 C.3    40  TRP40       0.0563
      6  CG         3.0720   41.4290   76.6150 C.ar   40  TRP40       0.0003
      7  CD1        2.8010   42.2950   75.5950 C.ar   40  TRP40       0.0946
      8  CD2        3.7760   40.3290   76.0270 C.ar   40  TRP40       0.0152
      9  NE1        3.3160   41.8160   74.4120 N.ar   40  TRP40      -0.2442
     10  CE2        3.9160   40.6110   74.6490 C.ar   40  TRP40       0.0810
     11  CE3        4.3230   39.1460   76.5340 C.ar   40  TRP40       0.0012
     12  CZ2        4.5600   39.7470   73.7760 C.ar   40  TRP40       0.0191
     13  CZ3        4.9640   38.2950   75.6730 C.ar   40  TRP40       0.0001
     14  CH2        5.0760   38.5940   74.3030 C.ar   40  TRP40       0.0015
     15  N          5.9780   41.5750   78.2730 N.am   41  PRO41      -0.2718
     16  CA         7.1680   40.7610   78.4980 C.3    41  PRO41       0.1535
     17  C          7.9520   41.1640   79.7380 C.2    41  PRO41       0.2598
     18  O          8.7330   40.3580   80.2600 O.2    41  PRO41      -0.2715
     19  CB         8.0010   40.9920   77.2270 C.3    41  PRO41       0.0310
     20  CG         7.0510   41.5470   76.2320 C.3    41  PRO41       0.0237
     21  CD         6.1200   42.3720   77.0450 C.3    41  PRO41       0.0939
     22  N          7.7530   42.4080   80.1740 N.am   42  PHE42      -0.1974
     23  CA         8.5180   43.0200   81.2500 C.3    42  PHE42       0.1639
     24  C          7.7040   43.0820   82.5660 C.2    42  PHE42       0.2290
     25  O          8.1610   43.6490   83.5610 O.2    42  PHE42      -0.2864
     26  CB         8.9870   44.4290   80.8000 C.3    42  PHE42       0.0560
     27  CG         9.7800   44.4210   79.5090 C.ar   42  PHE42      -0.0200
     28  CD1       11.1310   44.0670   79.5060 C.ar   42  PHE42      -0.0042
     29  CD2        9.1790   44.7540   78.2930 C.ar   42  PHE42      -0.0042
     30  CE1       11.8470   44.0340   78.3180 C.ar   42  PHE42      -0.0003
     31  CE2        9.8970   44.7340   77.1060 C.ar   42  PHE42      -0.0003
     32  CZ        11.2280   44.3680   77.1190 C.ar   42  PHE42      -0.0000
     33  N          6.8910   40.6340   84.6180 N.3    44  GLN44      -0.1245
     34  CA         7.2830   39.5950   85.5660 C.3    44  GLN44       0.1566
     35  C          8.7120   39.1520   85.2710 C.2    44  GLN44       0.2260
     36  O          9.2190   39.4140   84.1880 O.2    44  GLN44      -0.2867
     37  CB         6.3620   38.3780   85.4540 C.3    44  GLN44       0.0367
     38  CG         6.3040   37.7510   84.0670 C.3    44  GLN44       0.0905
     39  CD         5.5010   38.5810   83.0690 C.2    44  GLN44       0.2608
     40  OE1        4.3390   38.9040   83.3080 O.2    44  GLN44      -0.2717
     41  NE2        6.1320   38.9340   81.9420 N.am   44  GLN44      -0.0878
     42  N         11.8530   37.0310   84.0070 N.3    46  VAL46      -0.1245
     43  CA        12.0460   36.1330   82.8600 C.3    46  VAL46       0.1561
     44  C         11.9650   34.6740   83.3230 C.2    46  VAL46       0.2260
     45  O         12.7500   34.2380   84.1700 O.2    46  VAL46      -0.2867
     46  CB        13.3780   36.4160   82.1510 C.3    46  VAL46       0.0252
     47  CG1       13.7180   35.3280   81.1290 C.3    46  VAL46       0.0019
     48  CG2       13.3150   37.7880   81.4820 C.3    46  VAL46       0.0019
     49  N         10.2830   29.8330   78.5200 N.3    51  LEU51      -0.1245
     50  CA        10.7560   30.5370   77.3200 C.3    51  LEU51       0.1561
     51  C         11.9090   29.8020   76.6490 C.2    51  LEU51       0.2260
     52  O         12.3400   30.1660   75.5520 O.2    51  LEU51      -0.2867
     53  CB        11.1930   31.9740   77.6720 C.3    51  LEU51       0.0270
     54  CG        10.0440   32.9270   78.0200 C.3    51  LEU51       0.0019
     55  CD1       10.5170   34.1190   78.8330 C.3    51  LEU51       0.0001
     56  CD2        9.3340   33.3820   76.7510 C.3    51  LEU51       0.0001
     57  N         15.2310   29.5020   77.4430 N.3    53  LEU53      -0.1245
     58  CA        16.4150   30.3310   77.3290 C.3    53  LEU53       0.1561
     59  C         17.3730   29.8750   78.4130 C.2    53  LEU53       0.2260
     60  O         17.5280   30.5510   79.4260 O.2    53  LEU53      -0.2867
     61  CB        16.0450   31.7970   77.5350 C.3    53  LEU53       0.0270
     62  CG        14.9550   32.3520   76.6090 C.3    53  LEU53       0.0019
     63  CD1       14.4470   33.6790   77.1530 C.3    53  LEU53       0.0001
     64  CD2       15.4500   32.5040   75.1780 C.3    53  LEU53       0.0001
     65  N         20.0520   32.2820   79.6710 N.3    56  TYR56      -0.1241
     66  CA        19.6640   33.6400   80.0230 C.3    56  TYR56       0.1605
     67  C         20.3030   34.0800   81.3460 C.2    56  TYR56       0.2264
     68  O         20.8980   35.1640   81.4480 O.2    56  TYR56      -0.2867
     69  CB        18.1480   33.7850   80.1140 C.3    56  TYR56       0.0534
     70  CG        17.7550   35.1980   80.4600 C.ar   56  TYR56      -0.0201
     71  CD1       17.7310   36.1840   79.4750 C.ar   56  TYR56      -0.0009
     72  CD2       17.4680   35.5720   81.7860 C.ar   56  TYR56      -0.0009
     73  CE1       17.4020   37.4910   79.7860 C.ar   56  TYR56       0.0417
     74  CE2       17.1340   36.8870   82.1070 C.ar   56  TYR56       0.0417
     75  CZ        17.1050   37.8350   81.0970 C.ar   56  TYR56       0.1957
     76  OH        16.7950   39.1530   81.3680 O.3    56  TYR56      -0.2866
     77  N         15.9150   41.9600   86.5130 N.3    64  MET64      -0.1245
     78  CA        14.9670   42.9440   87.0110 C.3    64  MET64       0.1570
     79  C         13.7960   43.0320   86.0420 C.2    64  MET64       0.2261
     80  O         13.9490   42.7730   84.8610 O.2    64  MET64      -0.2867
     81  CB        15.6570   44.3070   87.1730 C.3    64  MET64       0.0387
     82  CG        14.8490   45.3580   87.9240 C.3    64  MET64       0.0595
     83  SD        14.1070   44.7950   89.4670 S.3    64  MET64      -0.1393
     84  CE        15.5380   44.3300   90.4450 C.3    64  MET64       0.0692
     85  N         16.8180   46.7110   84.0520 N.3    91  MET91      -0.1245
     86  CA        15.8470   45.9360   83.2840 C.3    91  MET91       0.1570
     87  C         16.0220   46.1320   81.7820 C.2    91  MET91       0.2261
     88  O         15.9850   45.1610   81.0010 O.2    91  MET91      -0.2867
     89  CB        14.4320   46.3220   83.6940 C.3    91  MET91       0.0387
     90  CG        13.3520   45.6310   82.8790 C.3    91  MET91       0.0595
     91  SD        11.6910   46.1480   83.3140 S.3    91  MET91      -0.1393
     92  CE        11.5810   47.7120   82.4450 C.3    91  MET91       0.0692
     93  N         18.0670   43.4910   78.7930 N.3    95  CYS95      -0.1235
     94  CA        17.4300   43.1890   77.5230 C.3    95  CYS95       0.1677
     95  C         18.3940   43.4180   76.3510 C.2    95  CYS95       0.2270
     96  O         18.5040   42.5810   75.4540 O.2    95  CYS95      -0.2867
     97  CB        16.1650   44.0370   77.3830 C.3    95  CYS95       0.0956
     98  SG        15.1260   43.6620   75.9590 S.3    95  CYS95      -0.0801
     99  N         21.4620   40.7950   76.5640 N.3    98  TYR98      -0.1227
    100  CA        21.1610   39.4040   76.2340 C.3    98  TYR98       0.1736
    101  C         20.7090   39.2060   74.7850 C.2    98  TYR98       0.2595
    102  O         21.1020   38.2380   74.1400 O.2    98  TYR98      -0.2718
    103  CB        20.1030   38.8190   77.1670 C.3    98  TYR98       0.0548
    104  CG        19.7800   37.3820   76.8150 C.ar   98  TYR98      -0.0200
    105  CD1       20.6270   36.3510   77.2010 C.ar   98  TYR98      -0.0009
    106  CD2       18.6510   37.0580   76.0740 C.ar   98  TYR98      -0.0009
    107  CE1       20.3490   35.0380   76.8760 C.ar   98  TYR98       0.0417
    108  CE2       18.3720   35.7430   75.7340 C.ar   98  TYR98       0.0417
    109  CZ        19.2270   34.7380   76.1420 C.ar   98  TYR98       0.1957
    110  OH        18.9700   33.4210   75.8220 O.3    98  TYR98      -0.2866
    111  N         19.8740   40.1110   74.2870 N.am   99  ASN99      -0.1974
    112  CA        19.2060   39.9090   72.9990 C.3    99  ASN99       0.1688
    113  C         19.9730   40.5030   71.8170 C.2    99  ASN99       0.2292
    114  O         21.0150   41.1400   71.9960 O.2    99  ASN99      -0.2864
    115  CB        17.7920   40.4660   73.0710 C.3    99  ASN99       0.1181
    116  CG        16.9320   39.7170   74.0670 C.2    99  ASN99       0.2629
    117  OD1       16.5180   38.5890   73.8060 O.2    99  ASN99      -0.2716
    118  ND2       16.6520   40.3430   75.2140 N.am   99  ASN99      -0.0877
    119  N         11.6780   42.0910   71.2590 N.3   105  ILE105     -0.1245
    120  CA        11.8060   42.4330   72.6770 C.3   105  ILE105      0.1561
    121  C         12.6440   43.7110   72.8950 C.2   105  ILE105      0.2260
    122  O         12.3660   44.5000   73.7970 O.2   105  ILE105     -0.2867
    123  CB        12.3840   41.2420   73.4730 C.3   105  ILE105      0.0252
    124  CG1       12.2880   41.4820   74.9820 C.3   105  ILE105      0.0019
    125  CG2       13.8320   40.9450   73.0850 C.3   105  ILE105      0.0019
    126  CD1       10.8690   41.3810   75.5150 C.3   105  ILE105      0.0001
@<TRIPOS>BOND
     1   119   120    1
     2   113   114    2
     3   113   112    1
     4   120   121    1
     5   120   123    1
     6   121   122    2
     7   112   115    1
     8   112   111    1
     9   115   116    1
    10   125   123    1
    11   123   124    1
    12    12    14   ar
    13    12    10   ar
    14   117   116    2
    15   116   118   am
    16   102   101    2
    17   111   101   am
    18    14    13   ar
    19     9    10   ar
    20     9     7   ar
    21    10     8   ar
    22   101   100    1
    23   124   126    1
    24    64    62    1
    25    96    95    2
    26    52    51    2
    27     7     6   ar
    28    13    11   ar
    29   108   106   ar
    30   108   109   ar
    31   110   109    1
    32    98    97    1
    33     8    11   ar
    34     8     6   ar
    35   106   104   ar
    36   109   107   ar
    37    20    21    1
    38    20    19    1
    39   100    99    1
    40   100   103    1
    41    95    94    1
    42    62    63    1
    43    62    61    1
    44     6     5    1
    45    51    50    1
    46    56    54    1
    47   104   103    1
    48   104   105   ar
    49   107   105   ar
    50    21    15    1
    51    31    32   ar
    52    31    29   ar
    53    32    30   ar
    54    19    16    1
    55    50    53    1
    56    50    49    1
    57    58    57    1
    58    58    61    1
    59    58    59    1
    60    97    94    1
    61    94    93    1
    62    53    54    1
    63    54    55    1
    64     5     2    1
    65    15    16    1
    66    15     3   am
    67    29    27   ar
    68    30    28   ar
    69    59    60    2
    70     1     2    1
    71    16    17    1
    72     2     3    1
    73     3     4    2
    74    71    73   ar
    75    71    70   ar
    76    28    27   ar
    77    27    26    1
    78    65    66    1
    79    17    22   am
    80    17    18    2
    81    73    75   ar
    82    66    69    1
    83    66    67    1
    84    69    70    1
    85    22    23    1
    86    70    72   ar
    87    26    23    1
    88    88    87    2
    89    75    76    1
    90    75    74   ar
    91    47    46    1
    92    23    24    1
    93    67    68    2
    94    48    46    1
    95    87    86    1
    96    72    74   ar
    97    41    39   am
    98    46    43    1
    99    92    91    1
   100    24    25    2
   101    43    44    1
   102    43    42    1
   103    90    91    1
   104    90    89    1
   105    39    40    2
   106    39    38    1
   107    86    89    1
   108    86    85    1
   109    44    45    2
   110    38    37    1
   111    36    35    2
   112    33    34    1
   113    80    79    2
   114    35    34    1
   115    37    34    1
   116    79    78    1
   117    77    78    1
   118    78    81    1
   119    81    82    1
   120    82    83    1
   121    83    84    1
