@<TRIPOS>MOLECULE
tmp/4lzwD00.pdb
 136 128 0 0 0
SMALL
GASTEIGER

@<TRIPOS>ATOM
      1  N         45.4120   -1.9660   35.8090 N.3    23  GLY23      -0.1225
      2  CA        44.7670   -2.0810   37.1010 C.3    23  GLY23       0.1811
      3  C         45.7400   -2.1790   38.2570 C.2    23  GLY23       0.2280
      4  O         45.5400   -1.5790   39.3180 O.2    23  GLY23      -0.2866
      5  N         41.4110   -1.9790   41.4250 N.3    66  ILE66      -0.1245
      6  CA        40.3280   -2.8090   40.9430 C.3    66  ILE66       0.1561
      7  C         39.0060   -2.0810   41.0880 C.2    66  ILE66       0.2260
      8  O         38.6860   -1.5590   42.1580 O.2    66  ILE66      -0.2867
      9  CB        40.2850   -4.1430   41.7110 C.3    66  ILE66       0.0252
     10  CG1       41.5180   -4.9600   41.3640 C.3    66  ILE66       0.0019
     11  CG2       39.0070   -4.8970   41.3940 C.3    66  ILE66       0.0019
     12  CD1       41.6770   -6.1760   42.2330 C.3    66  ILE66       0.0001
     13  N         43.1630    1.3260   28.4060 N.3    88  ARG88      -0.1245
     14  CA        43.1020    0.3530   29.4650 C.3    88  ARG88       0.1563
     15  C         43.6830   -0.9640   29.0120 C.2    88  ARG88       0.2260
     16  O         43.3260   -1.4980   27.9790 O.2    88  ARG88      -0.2867
     17  CB        41.6420    0.1500   29.8530 C.3    88  ARG88       0.0307
     18  CG        41.4000   -1.0290   30.7340 C.3    88  ARG88       0.0489
     19  CD        41.8360   -0.7040   32.0980 C.3    88  ARG88       0.2205
     20  NE        41.5120   -1.7460   33.0650 N.pl3  88  ARG88      -0.0865
     21  CZ        41.9060   -1.6670   34.3230 C.cat  88  ARG88       0.5346
     22  NH1       42.6260   -0.6060   34.6950 N.pl3  88  ARG88       0.1354
     23  NH2       41.5930   -2.6110   35.2000 N.pl3  88  ARG88       0.1354
     24  N         43.9840   -7.7550   32.9230 N.3    91  THR91      -0.1203
     25  CA        43.8070   -9.1830   32.7690 C.3    91  THR91       0.1994
     26  C         42.3280   -9.5100   32.7780 C.2    91  THR91       0.2619
     27  O         41.4990   -8.7520   33.3130 O.2    91  THR91      -0.2717
     28  CB        44.4540   -9.9130   33.9140 C.3    91  THR91       0.1784
     29  OG1       44.0290   -9.2920   35.1250 O.3    91  THR91      -0.2211
     30  CG2       45.9850   -9.8210   33.8160 C.3    91  THR91       0.0376
     31  N         41.9850  -10.6460   32.1910 N.am   92  THR92      -0.1938
     32  CA        40.5950  -10.9870   32.0890 C.3    92  THR92       0.2028
     33  C         40.4110  -12.4850   32.1150 C.2    92  THR92       0.2642
     34  O         41.3360  -13.2510   31.8440 O.2    92  THR92      -0.2714
     35  CB        39.9760  -10.4010   30.7960 C.3    92  THR92       0.1808
     36  OG1       38.5560  -10.5450   30.8290 O.3    92  THR92      -0.2208
     37  CG2       40.4960  -11.0930   29.5610 C.3    92  THR92       0.0379
     38  N         39.2050  -12.8910   32.4760 N.am   93  GLY93      -0.1954
     39  CA        38.8020  -14.2760   32.3360 C.3    93  GLY93       0.1869
     40  C         37.8330  -14.3830   31.1830 C.2    93  GLY93       0.2309
     41  O         36.8230  -13.6940   31.1560 O.2    93  GLY93      -0.2863
     42  N         34.2150   -9.5400   41.7480 N.3   159  PHE159     -0.1241
     43  CA        34.9670  -10.6260   41.1670 C.3   159  PHE159      0.1605
     44  C         34.2160  -11.9370   41.3500 C.2   159  PHE159      0.2264
     45  O         34.3580  -12.8560   40.5450 O.2   159  PHE159     -0.2867
     46  CB        36.3130  -10.7210   41.8690 C.3   159  PHE159      0.0534
     47  CG        37.2230  -11.7460   41.2820 C.ar  159  PHE159     -0.0203
     48  CD1       38.0280  -11.4290   40.2010 C.ar  159  PHE159     -0.0042
     49  CD2       37.2790  -13.0290   41.8110 C.ar  159  PHE159     -0.0042
     50  CE1       38.8770  -12.3620   39.6710 C.ar  159  PHE159     -0.0003
     51  CE2       38.1240  -13.9810   41.2730 C.ar  159  PHE159     -0.0003
     52  CZ        38.9250  -13.6490   40.2050 C.ar  159  PHE159     -0.0000
     53  N         30.4530  -12.4230   38.7650 N.3   163  GLN163     -0.1245
     54  CA        31.0280  -13.2570   37.7150 C.3   163  GLN163      0.1566
     55  C         30.5650  -14.6890   37.8960 C.2   163  GLN163      0.2260
     56  O         31.1430  -15.6110   37.3460 O.2   163  GLN163     -0.2867
     57  CB        32.5510  -13.1190   37.6960 C.3   163  GLN163      0.0367
     58  CG        32.9240  -11.6620   37.6270 C.3   163  GLN163      0.0905
     59  CD        34.3750  -11.4120   37.3290 C.2   163  GLN163      0.2608
     60  OE1       35.0790  -12.2570   36.7820 O.2   163  GLN163     -0.2717
     61  NE2       34.8420  -10.2320   37.6980 N.am  163  GLN163     -0.0878
     62  N         30.7530  -16.7810   40.3830 N.3   165  ARG165     -0.1245
     63  CA        31.6280  -17.7270   41.0510 C.3   165  ARG165      0.1563
     64  C         30.9140  -18.2220   42.2850 C.2   165  ARG165      0.2260
     65  O         30.4090  -17.4250   43.0710 O.2   165  ARG165     -0.2867
     66  CB        32.9380  -17.0600   41.4490 C.3   165  ARG165      0.0307
     67  CG        33.8700  -16.8780   40.3000 C.3   165  ARG165      0.0489
     68  CD        35.1830  -16.2760   40.7660 C.3   165  ARG165      0.2205
     69  NE        36.2030  -16.4550   39.7410 N.pl3 165  ARG165     -0.0865
     70  CZ        36.4610  -15.5840   38.7830 C.cat 165  ARG165      0.5346
     71  NH1       35.8360  -14.4220   38.7670 N.pl3 165  ARG165      0.1354
     72  NH2       37.3930  -15.8530   37.8860 N.pl3 165  ARG165      0.1354
     73  N         35.0120  -11.4920   31.2850 N.3   192  PHE192     -0.1227
     74  CA        34.7180  -10.6770   32.4530 C.3   192  PHE192      0.1736
     75  C         35.9280   -9.8730   32.8610 C.2   192  PHE192      0.2595
     76  O         37.0330  -10.3870   32.9270 O.2   192  PHE192     -0.2718
     77  CB        34.4430  -11.5600   33.6660 C.3   192  PHE192      0.0547
     78  CG        33.0360  -12.0700   33.7800 C.ar  192  PHE192     -0.0202
     79  CD1       31.9580  -11.2150   34.0080 C.ar  192  PHE192     -0.0042
     80  CD2       32.7980  -13.4420   33.7420 C.ar  192  PHE192     -0.0042
     81  CE1       30.6660  -11.7210   34.1540 C.ar  192  PHE192     -0.0003
     82  CE2       31.5180  -13.9490   33.9030 C.ar  192  PHE192     -0.0003
     83  CZ        30.4510  -13.0840   34.0910 C.ar  192  PHE192     -0.0000
     84  N         35.7040   -8.6170   33.2010 N.am  193  GLU193     -0.1965
     85  CA        36.6630   -7.8790   34.0050 C.3   193  GLU193      0.1733
     86  C         35.8540   -6.8930   34.8460 C.2   193  GLU193      0.2616
     87  O         34.6500   -7.0830   35.0020 O.2   193  GLU193     -0.2715
     88  CB        37.7590   -7.2630   33.1450 C.3   193  GLU193      0.0429
     89  CG        37.2410   -6.4930   31.9770 C.3   193  GLU193      0.1163
     90  CD        36.6570   -5.1830   32.3950 C.2   193  GLU193      0.3649
     91  OE1       35.4180   -5.0820   32.4180 O.co2 193  GLU193     -0.2457
     92  OE2       37.4240   -4.2680   32.7430 O.co2 193  GLU193     -0.2457
     93  N         36.4890   -5.8800   35.4340 N.am  194  MET194     -0.1963
     94  CA        35.8000   -5.1170   36.4730 C.3   194  MET194      0.1736
     95  C         35.8730   -3.6060   36.3440 C.2   194  MET194      0.2616
     96  O         35.5060   -2.9040   37.2820 O.2   194  MET194     -0.2715
     97  CB        36.3340   -5.5300   37.8420 C.3   194  MET194      0.0427
     98  CG        36.0600   -6.9880   38.1480 C.3   194  MET194      0.0599
     99  SD        36.6180   -7.5030   39.7710 S.3   194  MET194     -0.1393
    100  CE        35.6660   -6.4010   40.8220 C.3   194  MET194      0.0692
    101  N         36.3260   -3.0960   35.1990 N.am  195  GLU195     -0.1977
    102  CA        36.5280   -1.6480   35.0700 C.3   195  GLU195      0.1602
    103  C         36.0050   -1.0640   33.7710 C.2   195  GLU195      0.2287
    104  O         35.7760    0.1400   33.6830 O.2   195  GLU195     -0.2864
    105  CB        38.0160   -1.3100   35.1670 C.3   195  GLU195      0.0415
    106  CG        38.5990   -1.6070   36.5230 C.3   195  GLU195      0.1163
    107  CD        38.9700   -3.0620   36.7090 C.2   195  GLU195      0.3649
    108  OE1       39.1090   -3.7760   35.7080 O.co2 195  GLU195     -0.2457
    109  OE2       39.1290   -3.4920   37.8650 O.co2 195  GLU195     -0.2457
    110  N         43.7640  -14.6250   30.8040 N.3   217  ILE217     -0.1231
    111  CA        44.5790  -15.3260   31.7810 C.3   217  ILE217      0.1692
    112  C         43.9380  -16.6520   32.1340 C.2   217  ILE217      0.2591
    113  O         44.6300  -17.6420   32.3960 O.2   217  ILE217     -0.2718
    114  CB        44.7840  -14.4820   33.0450 C.3   217  ILE217      0.0266
    115  CG1       45.4020  -13.1410   32.6650 C.3   217  ILE217      0.0019
    116  CG2       45.6970  -15.1990   34.0460 C.3   217  ILE217      0.0020
    117  CD1       46.7240  -13.2800   31.9530 C.3   217  ILE217      0.0001
    118  N         42.6150  -16.6780   32.1790 N.am  218  ILE218     -0.1980
    119  CA        41.8950  -17.9200   32.4060 C.3   218  ILE218      0.1595
    120  C         40.6930  -17.9650   31.4860 C.2   218  ILE218      0.2287
    121  O         40.2200  -16.9190   31.0070 O.2   218  ILE218     -0.2864
    122  CB        41.3720  -18.0440   33.8540 C.3   218  ILE218      0.0276
    123  CG1       40.1670  -17.1280   34.0610 C.3   218  ILE218      0.0022
    124  CG2       42.4670  -17.7380   34.8750 C.3   218  ILE218      0.0022
    125  CD1       39.5640  -17.2300   35.3980 C.3   218  ILE218      0.0001
    126  N         36.9090  -19.4290   31.9660 N.3   220  ARG220     -0.1245
    127  CA        36.0200  -19.9210   33.0020 C.3   220  ARG220      0.1563
    128  C         35.4120  -21.2710   32.6730 C.2   220  ARG220      0.2260
    129  O         34.8890  -21.9400   33.5660 O.2   220  ARG220     -0.2867
    130  CB        34.9100  -18.9110   33.2820 C.3   220  ARG220      0.0307
    131  CG        35.4020  -17.6440   33.9830 C.3   220  ARG220      0.0489
    132  CD        35.7460  -17.9120   35.4480 C.3   220  ARG220      0.2205
    133  NE        34.5880  -18.4340   36.1630 N.pl3 220  ARG220     -0.0865
    134  CZ        33.5800  -17.6760   36.5730 C.cat 220  ARG220      0.5346
    135  NH1       32.5450  -18.2210   37.1950 N.pl3 220  ARG220      0.1354
    136  NH2       33.6030  -16.3640   36.3420 N.pl3 220  ARG220      0.1354
@<TRIPOS>BOND
     1    16    15    2
     2    13    14    1
     3    15    14    1
     4    14    17    1
     5    37    35    1
     6    17    18    1
     7    18    19    1
     8    35    36    1
     9    35    32    1
    10   110   111    1
    11   121   120    2
    12    41    40    2
    13    40    39    1
    14    73    74    1
    15   120   119    1
    16   111   112    1
    17   111   114    1
    18    34    33    2
    19   117   115    1
    20   126   127    1
    21    89    90    1
    22    89    88    1
    23    32    33    1
    24    32    31    1
    25    19    20    1
    26    33    38   am
    27   112   118   am
    28   112   113    2
    29   118   119    1
    30    31    26   am
    31    39    38    1
    32    90    91   ar
    33    90    92   ar
    34   119   122    1
    35    74    75    1
    36    74    77    1
    37   115   114    1
    38   128   127    1
    39   128   129    2
    40    25    26    1
    41    25    24    1
    42    25    28    1
    43    26    27    2
    44    75    76    2
    45    75    84   am
    46   127   130    1
    47   114   116    1
    48    20    21    2
    49    88    85    1
    50    84    85    1
    51   130   131    1
    52    77    78    1
    53   104   103    2
    54    80    78   ar
    55    80    82   ar
    56   103   102    1
    57    78    79   ar
    58    30    28    1
    59   122   123    1
    60   122   124    1
    61    82    83   ar
    62    28    29    1
    63   131   132    1
    64    85    86    1
    65    79    81   ar
    66   123   125    1
    67    83    81   ar
    68    21    22    1
    69    21    23    1
    70    86    87    2
    71    86    93   am
    72   102   105    1
    73   102   101    1
    74   105   106    1
    75   101    95   am
    76    93    94    1
    77   132   133    1
    78   108   107   ar
    79     1     2    1
    80   133   134    2
    81   136   134    1
    82    95    94    1
    83    95    96    2
    84    94    97    1
    85   106   107    1
    86   134   135    1
    87   107   109   ar
    88    60    59    2
    89     2     3    1
    90    59    58    1
    91    59    61   am
    92    56    55    2
    93    58    57    1
    94    57    54    1
    95    54    55    1
    96    54    53    1
    97    97    98    1
    98    72    70    1
    99    98    99    1
   100     3     4    2
   101    71    70    1
   102    70    69    2
   103    50    48   ar
   104    50    52   ar
   105    69    68    1
   106    99   100    1
   107    48    47   ar
   108    52    51   ar
   109    67    68    1
   110    67    66    1
   111    62    63    1
   112    45    44    2
   113     6     7    1
   114     6     5    1
   115     6     9    1
   116    63    66    1
   117    63    64    1
   118     7     8    2
   119    43    44    1
   120    43    42    1
   121    43    46    1
   122    51    49   ar
   123    47    49   ar
   124    47    46    1
   125    10     9    1
   126    10    12    1
   127    11     9    1
   128    64    65    2
