@<TRIPOS>MOLECULE
tmp/4m00A00.pdb
 66 61 0 0 0
SMALL
GASTEIGER

@<TRIPOS>ATOM
      1  N         11.0470   68.6360   36.7970 N.3    77  ASN77      -0.1240
      2  CA         9.9370   69.5390   36.5740 C.3    77  ASN77       0.1653
      3  C          8.6630   68.7460   36.1850 C.2    77  ASN77       0.2266
      4  O          8.1520   68.8880   35.0630 O.2    77  ASN77      -0.2867
      5  CB        10.3390   70.5240   35.4690 C.3    77  ASN77       0.1155
      6  CG         9.2760   71.5720   35.1950 C.2    77  ASN77       0.2627
      7  OD1        8.6400   72.0760   36.1260 O.2    77  ASN77      -0.2716
      8  ND2        9.0810   71.9140   33.9050 N.am   77  ASN77      -0.0877
      9  N          1.1130   67.4850   35.7930 N.3    80  ASP80      -0.1239
     10  CA         0.4480   67.9030   37.0540 C.3    80  ASP80       0.1674
     11  C         -0.0400   66.7240   37.8820 C.2    80  ASP80       0.2266
     12  O         -0.2550   66.8570   39.0960 O.2    80  ASP80      -0.2867
     13  CB        -0.7650   68.7850   36.7360 C.3    80  ASP80       0.1410
     14  CG        -0.3770   70.0950   36.0400 C.2    80  ASP80       0.3668
     15  OD1        0.6410   70.7100   36.4520 O.co2  80  ASP80      -0.2456
     16  OD2       -1.0970   70.5220   35.0990 O.co2  80  ASP80      -0.2456
     17  N         -7.5760   71.4980   34.7710 N.3    97  ASN97      -0.1225
     18  CA        -6.1260   71.2690   34.7480 C.3    97  ASN97       0.1785
     19  C         -5.4670   71.8390   35.9980 C.2    97  ASN97       0.2598
     20  O         -6.1060   72.5480   36.7600 O.2    97  ASN97      -0.2718
     21  CB        -5.5390   71.8990   33.4830 C.3    97  ASN97       0.1169
     22  CG        -5.7630   73.4100   33.4200 C.2    97  ASN97       0.2627
     23  OD1       -6.8990   73.8840   33.2830 O.2    97  ASN97      -0.2716
     24  ND2       -4.6800   74.1690   33.4910 N.am   97  ASN97      -0.0877
     25  N         -4.1990   71.5240   36.2350 N.am   98  GLY98      -0.1942
     26  CA        -3.4330   72.1980   37.2740 C.3    98  GLY98       0.2014
     27  C         -3.6130   71.5890   38.6530 C.2    98  GLY98       0.2638
     28  O         -3.7060   70.3680   38.8040 O.2    98  GLY98      -0.2714
     29  N         -3.6420   72.4510   39.6640 N.am   99  ALA99      -0.1977
     30  CA        -3.7470   72.0320   41.0550 C.3    99  ALA99       0.1597
     31  C         -5.0420   71.2390   41.3430 C.2    99  ALA99       0.2287
     32  O         -5.0840   70.4880   42.3040 O.2    99  ALA99      -0.2864
     33  CB        -3.6650   73.2480   41.9700 C.3    99  ALA99       0.0319
     34  N          3.0810   67.1030   41.5010 N.3   117  TYR117     -0.1241
     35  CA         3.5040   68.4850   41.6810 C.3   117  TYR117      0.1605
     36  C          2.9150   69.0500   42.9670 C.2   117  TYR117      0.2264
     37  O          1.7040   69.2740   43.0560 O.2   117  TYR117     -0.2867
     38  CB         3.0260   69.3140   40.4980 C.3   117  TYR117      0.0534
     39  CG         3.5020   70.7610   40.4890 C.ar  117  TYR117     -0.0201
     40  CD1        4.6580   71.1310   39.7840 C.ar  117  TYR117     -0.0009
     41  CD2        2.7800   71.7610   41.1380 C.ar  117  TYR117     -0.0009
     42  CE1        5.0860   72.4500   39.7430 C.ar  117  TYR117      0.0417
     43  CE2        3.1990   73.0890   41.1090 C.ar  117  TYR117      0.0417
     44  CZ         4.3580   73.4330   40.4100 C.ar  117  TYR117      0.1957
     45  OH         4.7790   74.7530   40.3570 O.3   117  TYR117     -0.2866
     46  N          1.5780   71.5050   45.2320 N.3   119  ASN119     -0.1240
     47  CA         1.1270   72.8870   45.2140 C.3   119  ASN119      0.1653
     48  C          1.1750   73.4220   46.6330 C.2   119  ASN119      0.2266
     49  O          0.2050   73.2990   47.3910 O.2   119  ASN119     -0.2867
     50  CB        -0.2880   72.9850   44.6430 C.3   119  ASN119      0.1155
     51  CG        -0.3460   72.5990   43.1840 C.2   119  ASN119      0.2627
     52  OD1       -0.4530   71.4140   42.8210 O.2   119  ASN119     -0.2716
     53  ND2       -0.2940   73.5950   42.3300 N.am  119  ASN119     -0.0877
     54  N          1.2590   71.8020   32.8920 N.3   226  GLY226     -0.1210
     55  CA         1.2360   73.2580   32.7490 C.3   226  GLY226      0.1956
     56  C          2.6500   73.6640   32.3790 C.2   226  GLY226      0.2612
     57  O          3.1460   73.3200   31.3010 O.2   226  GLY226     -0.2717
     58  N          3.3110   74.3400   33.3110 N.am  227  GLY227     -0.1942
     59  CA         4.7310   74.6390   33.1910 C.3   227  GLY227      0.2014
     60  C          5.5370   73.4210   33.6050 C.2   227  GLY227      0.2638
     61  O          6.6910   73.3000   33.2210 O.2   227  GLY227     -0.2714
     62  N          4.9300   72.5300   34.4060 N.am  228  ALA228     -0.1977
     63  CA         5.5250   71.2350   34.7360 C.3   228  ALA228      0.1597
     64  C          4.8290   70.1360   33.8970 C.2   228  ALA228      0.2287
     65  O          3.6440   70.2850   33.5490 O.2   228  ALA228     -0.2864
     66  CB         5.4240   70.9400   36.2330 C.3   228  ALA228      0.0319
@<TRIPOS>BOND
     1    57    56    2
     2    56    55    1
     3    56    58   am
     4    55    54    1
     5    59    58    1
     6    59    60    1
     7    61    60    2
     8    23    22    2
     9    22    21    1
    10    22    24   am
    11    21    18    1
    12    65    64    2
    13    60    62   am
    14    64    63    1
    15     8     6   am
    16    62    63    1
    17    63    66    1
    18    18    17    1
    19    18    19    1
    20     4     3    2
    21    16    14   ar
    22     6     5    1
    23     6     7    2
    24     5     2    1
    25     9    10    1
    26    19    25   am
    27    19    20    2
    28    14    15   ar
    29    14    13    1
    30     3     2    1
    31    25    26    1
    32     2     1    1
    33    13    10    1
    34    10    11    1
    35    26    27    1
    36    11    12    2
    37    27    28    2
    38    27    29   am
    39    29    30    1
    40    42    40   ar
    41    42    44   ar
    42    40    39   ar
    43    45    44    1
    44    44    43   ar
    45    39    38    1
    46    39    41   ar
    47    38    35    1
    48    30    31    1
    49    30    33    1
    50    43    41   ar
    51    31    32    2
    52    34    35    1
    53    35    36    1
    54    53    51   am
    55    52    51    2
    56    36    37    2
    57    51    50    1
    58    50    47    1
    59    47    46    1
    60    47    48    1
    61    48    49    2
