@<TRIPOS>MOLECULE
tmp/4m0aA01.pdb
 93 88 0 0 0
SMALL
GASTEIGER

@<TRIPOS>ATOM
      1  N         -1.5340   -2.5190   -3.2460 N.3   182  GLY182     -0.1210
      2  CA        -0.2010   -2.8340   -3.7550 C.3   182  GLY182      0.1956
      3  C          0.5880   -3.8830   -2.9640 C.2   182  GLY182      0.2612
      4  O          0.0160   -4.7300   -2.2690 O.2   182  GLY182     -0.2717
      5  N          1.9060   -3.8480   -3.0990 N.am  183  GLY183     -0.1956
      6  CA         2.7530   -4.8410   -2.4720 C.3   183  GLY183      0.1869
      7  C          2.6160   -4.9530   -0.9640 C.2   183  GLY183      0.2309
      8  O          2.6800   -6.0620   -0.4110 O.2   183  GLY183     -0.2863
      9  N         -0.0060   -7.2740    0.0090 N.3   186  ARG186     -0.1245
     10  CA         0.3690   -8.6850   -0.1960 C.3   186  ARG186      0.1563
     11  C          1.3670   -9.1550    0.8470 C.2   186  ARG186      0.2260
     12  O          1.8530  -10.2730    0.7290 O.2   186  ARG186     -0.2867
     13  CB         0.9850   -8.9370   -1.5990 C.3   186  ARG186      0.0307
     14  CG         0.0410   -8.4820   -2.7480 C.3   186  ARG186      0.0489
     15  CD         0.4840   -9.0980   -4.1050 C.3   186  ARG186      0.2205
     16  NE         1.8940   -8.8080   -4.3970 N.pl3 186  ARG186     -0.0865
     17  CZ         2.3340   -7.6480   -4.9080 C.cat 186  ARG186      0.5346
     18  NH1        3.6300   -7.4660   -5.0870 N.pl3 186  ARG186      0.1354
     19  NH2        1.4700   -6.6820   -5.2500 N.pl3 186  ARG186      0.1354
     20  N          4.3740   -7.5060    1.7690 N.3   188  LYS188     -0.1245
     21  CA         5.7750   -7.0720    1.6610 C.3   188  LYS188      0.1561
     22  C          6.1770   -6.2080    2.8350 C.2   188  LYS188      0.2260
     23  O          5.3770   -5.4320    3.3220 O.2   188  LYS188     -0.2867
     24  CB         5.9970   -6.3180    0.3560 C.3   188  LYS188      0.0271
     25  CG         5.8530   -7.2570   -0.8540 C.3   188  LYS188      0.0035
     26  CD         6.3530   -6.5870   -2.0770 C.3   188  LYS188      0.0206
     27  CE         7.8600   -6.4130   -1.9930 C.3   188  LYS188      0.1093
     28  NZ         8.3640   -5.6020   -3.1120 N.3   188  LYS188     -0.1314
     29  N          8.9100   -4.2430    2.6830 N.3   190  GLN190     -0.1231
     30  CA         9.4950   -3.0430    2.0750 C.3   190  GLN190      0.1698
     31  C          8.9070   -2.8380    0.7150 C.2   190  GLN190      0.2593
     32  O          8.3170   -3.7510    0.1540 O.2   190  GLN190     -0.2718
     33  CB        11.0010   -3.2080    1.8760 C.3   190  GLN190      0.0381
     34  CG        11.7680   -3.3530    3.1430 C.3   190  GLN190      0.0905
     35  CD        13.2730   -3.4270    2.8840 C.2   190  GLN190      0.2608
     36  OE1       13.7230   -3.6440    1.7460 O.2   190  GLN190     -0.2717
     37  NE2       14.0470   -3.2660    3.9390 N.am  190  GLN190     -0.0878
     38  N          9.0710   -1.6350    0.1640 N.am  191  GLY191     -0.1942
     39  CA         8.5630   -1.3840   -1.1780 C.3   191  GLY191      0.2014
     40  C          9.2060   -0.1500   -1.7620 C.2   191  GLY191      0.2639
     41  O          9.9800    0.5090   -1.0850 O.2   191  GLY191     -0.2714
     42  N          8.9350    0.1470   -3.0240 N.am  192  HIS192     -0.1959
     43  CA         9.4870    1.3780   -3.5860 C.3   192  HIS192      0.1787
     44  C          8.4230    2.4510   -3.7620 C.2   192  HIS192      0.2620
     45  O          8.7050    3.5520   -4.2370 O.2   192  HIS192     -0.2715
     46  CB        10.2620    1.0810   -4.8610 C.3   192  HIS192      0.0785
     47  CG        11.5350    0.3420   -4.5940 C.ar  192  HIS192      0.0821
     48  ND1       12.5880    0.9160   -3.9130 N.ar  192  HIS192     -0.2267
     49  CD2       11.9070   -0.9310   -4.8620 C.ar  192  HIS192      0.1154
     50  CE1       13.5610    0.0310   -3.7900 C.ar  192  HIS192      0.1986
     51  NE2       13.1760   -1.0940   -4.3640 N.ar  192  HIS192     -0.2212
     52  N          7.2120    2.1420   -3.3180 N.am  193  ASP193     -0.1971
     53  CA         6.1280    3.1100   -3.3640 C.3   193  ASP193      0.1709
     54  C          5.0180    2.6180   -2.4550 C.2   193  ASP193      0.2293
     55  O          5.0580    1.4840   -1.9790 O.2   193  ASP193     -0.2864
     56  CB         5.6120    3.2610   -4.7920 C.3   193  ASP193      0.1436
     57  CG         5.3120    1.9150   -5.4460 C.2   193  ASP193      0.3671
     58  OD1        4.1760    1.4320   -5.2680 O.co2 193  ASP193     -0.2456
     59  OD2        6.2040    1.3430   -6.1230 O.co2 193  ASP193     -0.2456
     60  N          0.6960    2.3850   -2.1140 N.3   195  ASP195     -0.1239
     61  CA        -0.5170    2.5470   -2.9120 C.3   195  ASP195      0.1674
     62  C         -1.7440    2.6190   -2.0110 C.2   195  ASP195      0.2266
     63  O         -1.8950    1.7480   -1.1570 O.2   195  ASP195     -0.2867
     64  CB        -0.6560    1.3100   -3.8140 C.3   195  ASP195      0.1410
     65  CG         0.5450    1.1520   -4.7170 C.2   195  ASP195      0.3668
     66  OD1        0.7170    2.0450   -5.5520 O.co2 195  ASP195     -0.2456
     67  OD2        1.3550    0.2070   -4.5660 O.co2 195  ASP195     -0.2456
     68  N         -4.0910   -4.5210   -5.9340 N.3   266  THR266     -0.1203
     69  CA        -3.3450   -5.3480   -4.9750 C.3   266  THR266      0.1994
     70  C         -2.3460   -6.2340   -5.6990 C.2   266  THR266      0.2618
     71  O         -1.3520   -6.6710   -5.1150 O.2   266  THR266     -0.2717
     72  CB        -4.3220   -6.1820   -4.0900 C.3   266  THR266      0.1784
     73  OG1       -5.0710   -5.2900   -3.2680 O.3   266  THR266     -0.2211
     74  CG2       -3.5590   -7.1180   -3.1270 C.3   266  THR266      0.0376
     75  N         -2.5700   -6.4490   -6.9840 N.am  267  GLY267     -0.1942
     76  CA        -1.5740   -7.1510   -7.7780 C.3   267  GLY267      0.2014
     77  C         -1.3890   -8.6330   -7.3840 C.2   267  GLY267      0.2640
     78  O         -2.3370   -9.2590   -6.9000 O.2   267  GLY267     -0.2714
     79  N         -0.2150   -9.2170   -7.6520 N.am  268  SER268     -0.1935
     80  CA         0.9000   -8.5700   -8.3280 C.3   268  SER268      0.2055
     81  C          0.5510   -8.2600   -9.7630 C.2   268  SER268      0.2642
     82  O         -0.4830   -8.6630  -10.2440 O.2   268  SER268     -0.2714
     83  CB         2.0880   -9.5410   -8.3770 C.3   268  SER268      0.2130
     84  OG         1.7970  -10.6640   -9.2510 O.3   268  SER268     -0.2179
     85  N          1.4360   -7.5440  -10.4400 N.am  269  LYS269     -0.1977
     86  CA         1.1640   -7.1590  -11.8240 C.3   269  LYS269      0.1596
     87  C          0.9830   -8.4430  -12.6300 C.2   269  LYS269      0.2287
     88  O          0.0430   -8.5690  -13.4230 O.2   269  LYS269     -0.2864
     89  CB         2.3440   -6.3740  -12.3800 C.3   269  LYS269      0.0298
     90  CG         2.3740   -6.2900  -13.9410 C.3   269  LYS269      0.0038
     91  CD         3.5970   -5.4390  -14.3670 C.3   269  LYS269      0.0206
     92  CE         3.6560   -5.3510  -15.8670 C.3   269  LYS269      0.1093
     93  NZ         4.8180   -4.5420  -16.3420 N.3   269  LYS269     -0.1314
@<TRIPOS>BOND
     1    93    92    1
     2    92    91    1
     3    91    90    1
     4    90    89    1
     5    88    87    2
     6    87    86    1
     7    89    86    1
     8    86    85    1
     9    85    81   am
    10    82    81    2
    11    81    80    1
    12    84    83    1
    13    83    80    1
    14    80    79    1
    15    76    77    1
    16    76    75    1
    17    79    77   am
    18    77    78    2
    19    75    70   am
    20    59    57   ar
    21    68    69    1
    22    70    71    2
    23    70    69    1
    24    66    65   ar
    25    57    58   ar
    26    57    56    1
    27    19    17    1
    28    18    17    1
    29    69    72    1
    30    17    16    2
    31    49    47   ar
    32    49    51   ar
    33    46    47    1
    34    46    43    1
    35    56    53    1
    36    65    67   ar
    37    65    64    1
    38    47    48   ar
    39    16    15    1
    40    51    50   ar
    41    45    44    2
    42    15    14    1
    43    72    73    1
    44    72    74    1
    45    48    50   ar
    46    64    61    1
    47    44    43    1
    48    44    52   am
    49     2     1    1
    50     2     3    1
    51    43    42    1
    52    53    52    1
    53    53    54    1
    54    28    27    1
    55     5     3   am
    56     5     6    1
    57    42    40   am
    58     3     4    2
    59    61    60    1
    60    61    62    1
    61    14    13    1
    62     6     7    1
    63    54    55    2
    64    26    27    1
    65    26    25    1
    66    62    63    2
    67    40    39    1
    68    40    41    2
    69    13    10    1
    70    39    38    1
    71     7     8    2
    72    25    24    1
    73    10     9    1
    74    10    11    1
    75    32    31    2
    76    38    31   am
    77    24    21    1
    78    31    30    1
    79    12    11    2
    80    21    20    1
    81    21    22    1
    82    36    35    2
    83    33    30    1
    84    33    34    1
    85    30    29    1
    86    22    23    2
    87    35    34    1
    88    35    37   am
