@<TRIPOS>MOLECULE
tmp/4m0cA00.pdb
 138 136 0 0 0
SMALL
GASTEIGER

@<TRIPOS>ATOM
      1  N         14.6100   -8.4670   -4.3940 N.3     9  HIS9       -0.1241
      2  CA        15.1370   -8.1300   -3.0770 C.3     9  HIS9        0.1621
      3  C         16.3830   -8.9480   -2.7760 C.2     9  HIS9        0.2264
      4  O         16.3620  -10.1840   -2.8800 O.2     9  HIS9       -0.2867
      5  CB        14.1020   -8.3320   -1.9680 C.3     9  HIS9        0.0745
      6  CG        14.4340   -7.5970   -0.7050 C.ar    9  HIS9        0.0817
      7  ND1       15.5310   -7.9100    0.0750 N.ar    9  HIS9       -0.2268
      8  CD2       13.8260   -6.5510   -0.0940 C.ar    9  HIS9        0.1154
      9  CE1       15.5790   -7.0940    1.1140 C.ar    9  HIS9        0.1986
     10  NE2       14.5500   -6.2660    1.0420 N.ar    9  HIS9       -0.2212
     11  N         17.7620   -9.8320   -0.0840 N.3    11  LYS11      -0.1245
     12  CA        17.6200  -10.8160    0.9920 C.3    11  LYS11       0.1561
     13  C         16.7980  -12.0270    0.5590 C.2    11  LYS11       0.2260
     14  O         16.6820  -13.0030    1.3120 O.2    11  LYS11      -0.2867
     15  CB        17.0020  -10.1800    2.2460 C.3    11  LYS11       0.0271
     16  CG        17.8530   -9.0830    2.8820 C.3    11  LYS11       0.0035
     17  CD        17.3310   -8.7010    4.2730 C.3    11  LYS11       0.0206
     18  CE        18.2610   -7.7020    4.9580 C.3    11  LYS11       0.1093
     19  NZ        17.8200   -7.3740    6.3340 N.3    11  LYS11      -0.1314
     20  N         12.3890  -10.5370    7.6680 N.3    16  SER16      -0.1202
     21  CA        12.6790   -9.2940    8.3700 C.3    16  SER16       0.2020
     22  C         12.3550   -8.0940    7.4620 C.2    16  SER16       0.2619
     23  O         12.0260   -7.0090    7.9460 O.2    16  SER16      -0.2717
     24  CB        14.1320   -9.2540    8.8630 C.3    16  SER16       0.2103
     25  OG        15.0560   -9.1960    7.7940 O.3    16  SER16      -0.2182
     26  N         12.4130   -8.3160    6.1520 N.am   17  SER17      -0.1937
     27  CA        12.1680   -7.2820    5.1410 C.3    17  SER17       0.2055
     28  C         10.6760   -6.8920    4.9860 C.2    17  SER17       0.2643
     29  O          9.8110   -7.7660    4.8780 O.2    17  SER17      -0.2714
     30  CB        12.6940   -7.7860    3.8030 C.3    17  SER17       0.2130
     31  OG        12.0220   -7.1800    2.6990 O.3    17  SER17      -0.2179
     32  N         10.3780   -5.5900    4.9450 N.am   18  VAL18      -0.1963
     33  CA         8.9920   -5.1380    4.7890 C.3    18  VAL18       0.1727
     34  C          8.4040   -5.6150    3.4710 C.2    18  VAL18       0.2616
     35  O          7.3140   -6.1680    3.4450 O.2    18  VAL18      -0.2715
     36  CB         8.8560   -3.6020    4.8640 C.3    18  VAL18       0.0290
     37  CG1        7.4310   -3.1830    4.5390 C.3    18  VAL18       0.0023
     38  CG2        9.2640   -3.0740    6.2440 C.3    18  VAL18       0.0023
     39  N          9.1380   -5.4310    2.3760 N.am   19  SER19      -0.1950
     40  CA         8.6030   -5.7590    1.0610 C.3    19  SER19       0.1924
     41  C          8.4230   -7.2710    0.8500 C.2    19  SER19       0.2314
     42  O          7.4810   -7.7010    0.1840 O.2    19  SER19      -0.2863
     43  CB         9.4320   -5.1100   -0.0540 C.3    19  SER19       0.2116
     44  OG        10.7360   -5.6460   -0.1170 O.3    19  SER19      -0.2180
     45  N         12.9840   -3.4350   -2.5880 N.3    97  PRO97      -0.2102
     46  CA        13.2030   -2.3630   -1.6130 C.3    97  PRO97       0.1504
     47  C         13.6430   -1.1280   -2.3960 C.2    97  PRO97       0.2576
     48  O         14.1730   -1.2710   -3.5010 O.2    97  PRO97      -0.2718
     49  CB        14.3700   -2.8970   -0.7810 C.3    97  PRO97       0.0282
     50  CG        15.1730   -3.7040   -1.7660 C.3    97  PRO97       0.0208
     51  CD        14.1820   -4.2820   -2.7680 C.3    97  PRO97       0.0893
     52  N         13.4180    0.0690   -1.8730 N.am   98  LEU98      -0.1966
     53  CA        13.9220    1.2350   -2.5810 C.3    98  LEU98       0.1728
     54  C         15.2710    1.5810   -1.9990 C.2    98  LEU98       0.2616
     55  O         15.3720    1.9870   -0.8350 O.2    98  LEU98      -0.2715
     56  CB        12.9690    2.4350   -2.4830 C.3    98  LEU98       0.0311
     57  CG        13.4920    3.6610   -3.2600 C.3    98  LEU98       0.0022
     58  CD1       13.7290    3.3380   -4.7530 C.3    98  LEU98       0.0001
     59  CD2       12.5590    4.8590   -3.1090 C.3    98  LEU98       0.0001
     60  N         16.3140    1.4080   -2.8070 N.am   99  HIS99      -0.1959
     61  CA        17.6630    1.7690   -2.4000 C.3    99  HIS99       0.1787
     62  C         18.1970    2.8690   -3.3300 C.2    99  HIS99       0.2620
     63  O         18.4100    2.6270   -4.5180 O.2    99  HIS99      -0.2715
     64  CB        18.5860    0.5490   -2.4750 C.3    99  HIS99       0.0785
     65  CG        18.2870   -0.5070   -1.4540 C.ar   99  HIS99       0.0821
     66  ND1       18.6960   -1.8160   -1.6030 N.ar   99  HIS99      -0.2267
     67  CD2       17.6510   -0.4450   -0.2550 C.ar   99  HIS99       0.1154
     68  CE1       18.3050   -2.5180   -0.5520 C.ar   99  HIS99       0.1986
     69  NE2       17.6760   -1.7120    0.2840 N.ar   99  HIS99      -0.2212
     70  N         18.4050    4.0620   -2.7820 N.am  100  ASN100     -0.1958
     71  CA        18.9790    5.1800   -3.5310 C.3   100  ASN100      0.1819
     72  C         18.1750    5.5750   -4.7770 C.2   100  ASN100      0.2621
     73  O         18.7440    5.8020   -5.8500 O.2   100  ASN100     -0.2715
     74  CB        20.4480    4.8930   -3.8770 C.3   100  ASN100      0.1195
     75  CG        21.3050    4.7690   -2.6420 C.2   100  ASN100      0.2630
     76  OD1       21.2920    5.6590   -1.7840 O.2   100  ASN100     -0.2716
     77  ND2       22.0360    3.6540   -2.5210 N.am  100  ASN100     -0.0877
     78  N         16.8530    5.6340   -4.6140 N.am  101  PHE101     -0.1974
     79  CA        15.9600    6.3100   -5.5550 C.3   101  PHE101      0.1639
     80  C         15.9350    5.7340   -6.9630 C.2   101  PHE101      0.2290
     81  O         15.5870    6.4490   -7.9070 O.2   101  PHE101     -0.2864
     82  CB        16.2790    7.8120   -5.6250 C.3   101  PHE101      0.0560
     83  CG        16.2880    8.4930   -4.2780 C.ar  101  PHE101     -0.0200
     84  CD1       15.1010    8.7830   -3.6180 C.ar  101  PHE101     -0.0042
     85  CD2       17.4820    8.8360   -3.6690 C.ar  101  PHE101     -0.0042
     86  CE1       15.1120    9.4170   -2.3700 C.ar  101  PHE101     -0.0003
     87  CE2       17.4970    9.4680   -2.4200 C.ar  101  PHE101     -0.0003
     88  CZ        16.3180    9.7570   -1.7790 C.ar  101  PHE101     -0.0000
     89  N          8.9550   -1.2730   -0.9340 N.3   140  ALA140     -0.1231
     90  CA         9.0680   -0.7040    0.4020 C.3   140  ALA140      0.1694
     91  C         10.0770    0.4330    0.3310 C.2   140  ALA140      0.2593
     92  O         11.0630    0.3490   -0.4040 O.2   140  ALA140     -0.2718
     93  CB         9.5160   -1.7500    1.4060 C.3   140  ALA140      0.0304
     94  N          9.8310    1.4950    1.0940 N.am  141  SER141     -0.1938
     95  CA        10.7100    2.6620    1.0790 C.3   141  SER141      0.2055
     96  C         10.7310    3.3370    2.4500 C.2   141  SER141      0.2644
     97  O          9.7430    3.2920    3.1820 O.2   141  SER141     -0.2714
     98  CB        10.2410    3.6470    0.0040 C.3   141  SER141      0.2130
     99  OG         8.9760    4.2080    0.3460 O.3   141  SER141     -0.2179
    100  N         11.8540    3.9500    2.8050 N.am  142  GLY142     -0.1939
    101  CA        11.9510    4.6640    4.0650 C.3   142  GLY142      0.2014
    102  C         11.1240    5.9380    4.0310 C.2   142  GLY142      0.2639
    103  O         10.4700    6.3030    5.0180 O.2   142  GLY142     -0.2714
    104  N         11.1440    6.6190    2.8900 N.am  143  GLY143     -0.1954
    105  CA        10.4280    7.8800    2.7650 C.3   143  GLY143      0.1869
    106  C          9.0170    7.7290    2.2150 C.2   143  GLY143      0.2309
    107  O          8.5730    6.6230    1.8890 O.2   143  GLY143     -0.2863
    108  N          6.3820    8.9700   -0.8190 N.3   145  TYR145     -0.1241
    109  CA         6.4700    9.4780   -2.1920 C.3   145  TYR145      0.1605
    110  C          5.1620    9.9690   -2.7960 C.2   145  TYR145      0.2264
    111  O          5.0890   10.2480   -3.9920 O.2   145  TYR145     -0.2867
    112  CB         7.1270    8.4240   -3.0880 C.3   145  TYR145      0.0534
    113  CG         8.5340    8.1790   -2.6250 C.ar  145  TYR145     -0.0201
    114  CD1        9.5870    8.9230   -3.1370 C.ar  145  TYR145     -0.0009
    115  CD2        8.8030    7.2590   -1.6180 C.ar  145  TYR145     -0.0009
    116  CE1       10.8790    8.7280   -2.6900 C.ar  145  TYR145      0.0417
    117  CE2       10.0890    7.0610   -1.1610 C.ar  145  TYR145      0.0417
    118  CZ        11.1180    7.7990   -1.6990 C.ar  145  TYR145      0.1957
    119  OH        12.3960    7.6150   -1.2450 O.3   145  TYR145     -0.2866
    120  N         10.7010   14.3360   -3.0020 N.3   151  TYR151     -0.1241
    121  CA        10.6810   12.8750   -2.9720 C.3   151  TYR151      0.1605
    122  C          9.9440   12.2960   -4.1860 C.2   151  TYR151      0.2264
    123  O         10.4630   11.4050   -4.8710 O.2   151  TYR151     -0.2867
    124  CB        10.0700   12.3660   -1.6570 C.3   151  TYR151      0.0534
    125  CG        11.0820   12.1910   -0.5380 C.ar  151  TYR151     -0.0201
    126  CD1       11.5040   10.9190   -0.1500 C.ar  151  TYR151     -0.0009
    127  CD2       11.6250   13.2900    0.1230 C.ar  151  TYR151     -0.0009
    128  CE1       12.4360   10.7430    0.8720 C.ar  151  TYR151      0.0417
    129  CE2       12.5620   13.1250    1.1480 C.ar  151  TYR151      0.0417
    130  CZ        12.9620   11.8460    1.5160 C.ar  151  TYR151      0.1957
    131  OH        13.8880   11.6630    2.5260 O.3   151  TYR151     -0.2866
    132  N          8.6620    3.7320    6.0480 N.3   180  THR180     -0.1218
    133  CA         9.1940    2.8400    7.0810 C.3   180  THR180      0.1862
    134  C         10.1380    3.5620    8.0430 C.2   180  THR180      0.2287
    135  O         10.3300    3.1200    9.1670 O.2   180  THR180     -0.2866
    136  CB         9.8680    1.5710    6.4910 C.3   180  THR180      0.1770
    137  OG1       11.0000    1.9320    5.6850 O.3   180  THR180     -0.2211
    138  CG2        8.8670    0.7780    5.6420 C.3   180  THR180      0.0375
@<TRIPOS>BOND
     1    81    80    2
     2    80    79    1
     3    73    72    2
     4    82    79    1
     5    82    83    1
     6    79    78    1
     7   123   122    2
     8    72    78   am
     9    72    71    1
    10    58    57    1
    11    63    62    2
    12     1     2    1
    13    83    85   ar
    14    83    84   ar
    15   122   121    1
    16   111   110    2
    17    74    71    1
    18    74    75    1
    19    85    87   ar
    20    84    86   ar
    21    71    70    1
    22    48    47    2
    23    62    70   am
    24    62    61    1
    25    57    59    1
    26    57    56    1
    27   114   116   ar
    28   114   113   ar
    29   112   113    1
    30   112   109    1
    31     2     3    1
    32     2     5    1
    33   120   121    1
    34   121   124    1
    35     4     3    2
    36    60    61    1
    37    60    54   am
    38   110   109    1
    39    51    45    1
    40    51    50    1
    41   116   118   ar
    42    75    77   am
    43    75    76    2
    44   113   115   ar
    45    45    46    1
    46    53    56    1
    47    53    54    1
    48    53    52    1
    49    64    61    1
    50    64    65    1
    51    87    88   ar
    52    47    52   am
    53    47    46    1
    54    86    88   ar
    55   109   108    1
    56    54    55    2
    57     5     6    1
    58    50    49    1
    59   118   119    1
    60   118   117   ar
    61   124   125    1
    62   115   117   ar
    63    46    49    1
    64    66    65   ar
    65    66    68   ar
    66    65    67   ar
    67    89    90    1
    68     6     8   ar
    69     6     7   ar
    70    68    69   ar
    71   125   126   ar
    72   125   127   ar
    73    92    91    2
    74    67    69   ar
    75   126   128   ar
    76    44    43    1
    77     8    10   ar
    78    11    12    1
    79    43    40    1
    80    98    99    1
    81    98    95    1
    82     7     9   ar
    83   127   129   ar
    84    42    41    2
    85    91    90    1
    86    91    94   am
    87    90    93    1
    88    13    12    1
    89    13    14    2
    90    41    40    1
    91   128   130   ar
    92    12    15    1
    93    10     9   ar
    94    40    39    1
    95    95    94    1
    96    95    96    1
    97   129   130   ar
    98   130   131    1
    99   107   106    2
   100   106   105    1
   101    15    16    1
   102    39    34   am
   103    96   100   am
   104    96    97    2
   105    31    30    1
   106   105   104    1
   107   100   101    1
   108    16    17    1
   109   104   102   am
   110    35    34    2
   111    34    33    1
   112    30    27    1
   113   102   101    1
   114   102   103    2
   115    17    18    1
   116    37    36    1
   117    33    36    1
   118    33    32    1
   119    36    38    1
   120    29    28    2
   121    32    28   am
   122    18    19    1
   123    28    27    1
   124    27    26    1
   125   138   136    1
   126   137   136    1
   127   132   133    1
   128    26    22   am
   129   136   133    1
   130   133   134    1
   131    22    23    2
   132    22    21    1
   133    20    21    1
   134    25    24    1
   135   134   135    2
   136    21    24    1
