@<TRIPOS>MOLECULE
tmp/4m0eA01.pdb
 162 163 0 0 0
SMALL
GASTEIGER

@<TRIPOS>ATOM
      1  N        -18.0060  -35.6590   34.0230 N.3    69  TYR69      -0.1241
      2  CA       -18.9020  -36.7300   33.6240 C.3    69  TYR69       0.1605
      3  C        -18.6490  -37.9870   34.4100 C.2    69  TYR69       0.2264
      4  O        -17.4990  -38.3340   34.6790 O.2    69  TYR69      -0.2867
      5  CB       -18.6840  -37.0100   32.1310 C.3    69  TYR69       0.0534
      6  CG       -19.4760  -38.1480   31.5700 C.ar   69  TYR69      -0.0201
      7  CD1      -20.8290  -38.0010   31.2800 C.ar   69  TYR69      -0.0009
      8  CD2      -18.8700  -39.3810   31.3040 C.ar   69  TYR69      -0.0009
      9  CE1      -21.5630  -39.0610   30.7460 C.ar   69  TYR69       0.0417
     10  CE2      -19.5960  -40.4420   30.7610 C.ar   69  TYR69       0.0417
     11  CZ       -20.9470  -40.2690   30.4830 C.ar   69  TYR69       0.1957
     12  OH       -21.6830  -41.3160   29.9530 O.3    69  TYR69      -0.2866
     13  N        -19.1860  -42.1010   34.3750 N.3    71  ASP71      -0.1239
     14  CA       -19.4720  -43.1410   33.4080 C.3    71  ASP71       0.1674
     15  C        -20.6570  -44.0010   33.8600 C.2    71  ASP71       0.2266
     16  O        -20.7290  -44.3830   35.0270 O.2    71  ASP71      -0.2867
     17  CB       -18.2700  -44.0260   33.2300 C.3    71  ASP71       0.1410
     18  CG       -18.3380  -44.8210   31.9370 C.2    71  ASP71       0.3668
     19  OD1      -18.7930  -45.9770   31.9710 O.co2  71  ASP71      -0.2456
     20  OD2      -17.9600  -44.2560   30.8870 O.co2  71  ASP71      -0.2456
     21  N         -7.7200  -39.9090   31.4370 N.3   118  GLY118     -0.1210
     22  CA        -9.1700  -39.8310   31.4560 C.3   118  GLY118      0.1956
     23  C         -9.6950  -38.9430   30.3270 C.2   118  GLY118      0.2612
     24  O        -10.7110  -38.2860   30.4980 O.2   118  GLY118     -0.2717
     25  N         -8.9880  -38.9080   29.1910 N.am  119  GLY119     -0.1956
     26  CA        -9.4700  -38.2560   27.9630 C.3   119  GLY119      0.1869
     27  C         -9.6450  -36.7490   28.0820 C.2   119  GLY119      0.2309
     28  O        -10.3550  -36.1210   27.2840 O.2   119  GLY119     -0.2863
     29  N        -11.4510  -35.4100   30.0950 N.3   121  TYR121     -0.1241
     30  CA       -12.8280  -35.1150   30.5670 C.3   121  TYR121      0.1605
     31  C        -13.1260  -35.6990   31.9620 C.2   121  TYR121      0.2264
     32  O        -14.1870  -35.4300   32.5160 O.2   121  TYR121     -0.2867
     33  CB       -13.9180  -35.5870   29.5550 C.3   121  TYR121      0.0534
     34  CG       -14.0380  -37.1090   29.5240 C.ar  121  TYR121     -0.0201
     35  CD1      -14.8970  -37.7860   30.3950 C.ar  121  TYR121     -0.0009
     36  CD2      -13.2810  -37.8610   28.6290 C.ar  121  TYR121     -0.0009
     37  CE1      -14.9690  -39.1750   30.4080 C.ar  121  TYR121      0.0417
     38  CE2      -13.3530  -39.2600   28.6130 C.ar  121  TYR121      0.0417
     39  CZ       -14.1870  -39.9040   29.5250 C.ar  121  TYR121      0.1957
     40  OH       -14.2680  -41.2750   29.5190 O.3   121  TYR121     -0.2866
     41  N        -20.7560  -34.1850   25.6660 N.3   278  TRP278     -0.1227
     42  CA       -20.5090  -35.1880   24.6460 C.3   278  TRP278      0.1737
     43  C        -21.1760  -34.8500   23.3140 C.2   278  TRP278      0.2595
     44  O        -20.7830  -35.3380   22.2520 O.2   278  TRP278     -0.2718
     45  CB       -20.9790  -36.5570   25.1360 C.3   278  TRP278      0.0564
     46  CG       -20.0800  -37.1370   26.1770 C.ar  278  TRP278      0.0003
     47  CD1      -20.2870  -37.1580   27.5410 C.ar  278  TRP278      0.0946
     48  CD2      -18.8210  -37.7820   25.9520 C.ar  278  TRP278      0.0152
     49  NE1      -19.2400  -37.7890   28.1630 N.ar  278  TRP278     -0.2442
     50  CE2      -18.3190  -38.1710   27.2170 C.ar  278  TRP278      0.0810
     51  CE3      -18.0620  -38.0650   24.8040 C.ar  278  TRP278      0.0012
     52  CZ2      -17.0960  -38.8460   27.3670 C.ar  278  TRP278      0.0191
     53  CZ3      -16.8430  -38.7300   24.9540 C.ar  278  TRP278      0.0001
     54  CH2      -16.3760  -39.1160   26.2280 C.ar  278  TRP278      0.0015
     55  N        -22.1750  -33.9900   23.3700 N.am  279  HIS279     -0.1975
     56  CA       -23.0270  -33.7920   22.2220 C.3   279  HIS279      0.1656
     57  C        -22.4800  -32.7880   21.2420 C.2   279  HIS279      0.2291
     58  O        -23.0330  -32.6390   20.1680 O.2   279  HIS279     -0.2864
     59  CB       -24.4630  -33.4550   22.6490 C.3   279  HIS279      0.0771
     60  CG       -25.1150  -34.5660   23.4100 C.ar  279  HIS279      0.0820
     61  ND1      -25.2060  -34.5750   24.7880 N.ar  279  HIS279     -0.2267
     62  CD2      -25.6510  -35.7370   22.9890 C.ar  279  HIS279      0.1154
     63  CE1      -25.7970  -35.6900   25.1800 C.ar  279  HIS279      0.1986
     64  NE2      -26.0770  -36.4120   24.1090 N.ar  279  HIS279     -0.2212
     65  N        -19.5040  -33.1180   19.8580 N.3   281  LEU281     -0.1245
     66  CA       -18.6200  -33.8300   18.9480 C.3   281  LEU281      0.1561
     67  C        -19.2800  -33.8570   17.5600 C.2   281  LEU281      0.2260
     68  O        -20.4960  -33.9100   17.4620 O.2   281  LEU281     -0.2867
     69  CB       -18.3470  -35.2490   19.4560 C.3   281  LEU281      0.0270
     70  CG       -17.2950  -35.3170   20.5810 C.3   281  LEU281      0.0019
     71  CD1      -17.2310  -36.7090   21.1430 C.3   281  LEU281      0.0001
     72  CD2      -15.9000  -34.8700   20.0780 C.3   281  LEU281      0.0001
     73  N        -20.6860  -39.4920   15.9200 N.3   284  GLU284     -0.1231
     74  CA       -20.5730  -40.5420   16.9160 C.3   284  GLU284      0.1699
     75  C        -19.2570  -41.2930   16.6920 C.2   284  GLU284      0.2593
     76  O        -18.9620  -41.7260   15.5910 O.2   284  GLU284     -0.2718
     77  CB       -21.7840  -41.4840   16.8810 C.3   284  GLU284      0.0402
     78  CG       -23.0350  -40.8800   17.5490 C.3   284  GLU284      0.1161
     79  CD       -24.2950  -41.7120   17.3410 C.2   284  GLU284      0.3649
     80  OE1      -24.1880  -42.9450   17.1550 O.co2 284  GLU284     -0.2457
     81  OE2      -25.3990  -41.1270   17.3570 O.co2 284  GLU284     -0.2457
     82  N        -18.4610  -41.4310   17.7460 N.am  285  SER285     -0.1938
     83  CA       -17.1030  -41.9370   17.6100 C.3   285  SER285      0.2055
     84  C        -16.6990  -42.6530   18.8750 C.2   285  SER285      0.2643
     85  O        -17.4150  -42.5930   19.8760 O.2   285  SER285     -0.2714
     86  CB       -16.1550  -40.7670   17.3370 C.3   285  SER285      0.2130
     87  OG       -16.3770  -39.7100   18.2660 O.3   285  SER285     -0.2179
     88  N        -15.5700  -43.3530   18.8560 N.am  286  VAL286     -0.1963
     89  CA       -14.9490  -43.7420   20.1310 C.3   286  VAL286      0.1727
     90  C        -13.5890  -43.0430   20.1870 C.2   286  VAL286      0.2616
     91  O        -13.0560  -42.6480   19.1460 O.2   286  VAL286     -0.2715
     92  CB       -14.7930  -45.2680   20.3060 C.3   286  VAL286      0.0290
     93  CG1      -16.1750  -45.9470   20.3030 C.3   286  VAL286      0.0023
     94  CG2      -13.8620  -45.8660   19.2350 C.3   286  VAL286      0.0023
     95  N        -13.0380  -42.8740   21.3870 N.am  287  PHE287     -0.1960
     96  CA       -11.7080  -42.2660   21.5590 C.3   287  PHE287      0.1771
     97  C        -11.6450  -40.8280   21.0320 C.2   287  PHE287      0.2619
     98  O        -10.6280  -40.3990   20.4800 O.2   287  PHE287     -0.2715
     99  CB       -10.5940  -43.1440   20.9320 C.3   287  PHE287      0.0574
    100  CG        -9.3180  -43.2090   21.7630 C.ar  287  PHE287     -0.0200
    101  CD1       -8.8140  -42.0770   22.3760 C.ar  287  PHE287     -0.0042
    102  CD2       -8.6200  -44.4140   21.9100 C.ar  287  PHE287     -0.0042
    103  CE1       -7.6430  -42.1440   23.1760 C.ar  287  PHE287     -0.0003
    104  CE2       -7.4540  -44.4940   22.6780 C.ar  287  PHE287     -0.0003
    105  CZ        -6.9650  -43.3500   23.3160 C.ar  287  PHE287     -0.0000
    106  N        -12.7430  -40.0900   21.1670 N.am  288  ARG288     -0.1963
    107  CA       -12.7430  -38.6610   20.8530 C.3   288  ARG288      0.1729
    108  C        -13.4540  -37.9360   21.9760 C.2   288  ARG288      0.2616
    109  O        -14.4730  -38.4120   22.4960 O.2   288  ARG288     -0.2715
    110  CB       -13.4320  -38.3330   19.5280 C.3   288  ARG288      0.0348
    111  CG       -12.6330  -38.6930   18.2840 C.3   288  ARG288      0.0492
    112  CD       -11.3000  -37.9510   18.1770 C.3   288  ARG288      0.2205
    113  NE       -10.6590  -38.2910   16.8990 N.pl3 288  ARG288     -0.0865
    114  CZ        -9.8690  -39.3500   16.7300 C.cat 288  ARG288      0.5346
    115  NH1       -9.5890  -40.1540   17.7600 N.pl3 288  ARG288      0.1354
    116  NH2       -9.3410  -39.5950   15.5430 N.pl3 288  ARG288      0.1354
    117  N        -12.9100  -36.7870   22.3520 N.am  289  PHE289     -0.1974
    118  CA       -13.3860  -36.0670   23.5290 C.3   289  PHE289      0.1639
    119  C        -13.5780  -34.6290   23.1300 C.2   289  PHE289      0.2290
    120  O        -12.7610  -34.0920   22.3810 O.2   289  PHE289     -0.2864
    121  CB       -12.3680  -36.2160   24.6690 C.3   289  PHE289      0.0560
    122  CG       -11.8180  -37.5850   24.7690 C.ar  289  PHE289     -0.0200
    123  CD1      -12.6450  -38.6430   25.1230 C.ar  289  PHE289     -0.0042
    124  CD2      -10.4950  -37.8440   24.4440 C.ar  289  PHE289     -0.0042
    125  CE1      -12.1540  -39.9460   25.1710 C.ar  289  PHE289     -0.0003
    126  CE2       -9.9850  -39.1400   24.5030 C.ar  289  PHE289     -0.0003
    127  CZ       -10.8140  -40.1890   24.8670 C.ar  289  PHE289     -0.0000
    128  N        -10.7010  -51.6840   24.9970 N.3   329  TYR329     -0.1227
    129  CA       -11.5500  -50.9740   25.9490 C.3   329  TYR329      0.1736
    130  C        -12.4930  -49.9640   25.2760 C.2   329  TYR329      0.2595
    131  O        -13.6490  -49.8520   25.6520 O.2   329  TYR329     -0.2718
    132  CB       -10.6400  -50.3080   26.9970 C.3   329  TYR329      0.0548
    133  CG       -11.2370  -49.2170   27.8730 C.ar  329  TYR329     -0.0200
    134  CD1      -11.9800  -49.5230   29.0150 C.ar  329  TYR329     -0.0009
    135  CD2      -10.9790  -47.8790   27.6010 C.ar  329  TYR329     -0.0009
    136  CE1      -12.4950  -48.5130   29.8390 C.ar  329  TYR329      0.0417
    137  CE2      -11.4810  -46.8640   28.4070 C.ar  329  TYR329      0.0417
    138  CZ       -12.2450  -47.1820   29.5180 C.ar  329  TYR329      0.1957
    139  OH       -12.7240  -46.1520   30.3000 O.3   329  TYR329     -0.2866
    140  N        -12.0210  -49.2620   24.2540 N.am  330  PHE330     -0.1976
    141  CA       -12.8200  -48.2160   23.6290 C.3   330  PHE330      0.1639
    142  C        -13.9720  -48.7440   22.7850 C.2   330  PHE330      0.2290
    143  O        -14.9630  -48.0410   22.5570 O.2   330  PHE330     -0.2864
    144  CB       -11.9050  -47.3160   22.7770 C.3   330  PHE330      0.0560
    145  CG       -10.8160  -46.6900   23.5900 C.ar  330  PHE330     -0.0200
    146  CD1       -9.6210  -47.3570   23.7880 C.ar  330  PHE330     -0.0042
    147  CD2      -11.0380  -45.4730   24.2340 C.ar  330  PHE330     -0.0042
    148  CE1       -8.6320  -46.8020   24.6160 C.ar  330  PHE330     -0.0003
    149  CE2      -10.0540  -44.9070   25.0600 C.ar  330  PHE330     -0.0003
    150  CZ        -8.8640  -45.5760   25.2560 C.ar  330  PHE330     -0.0000
    151  N        -17.6690  -48.7020   23.8030 N.3   333  TYR333     -0.1241
    152  CA       -18.3040  -47.3760   23.9040 C.3   333  TYR333      0.1605
    153  C        -18.8960  -46.8620   22.6110 C.2   333  TYR333      0.2264
    154  O        -19.1320  -45.6520   22.4800 O.2   333  TYR333     -0.2867
    155  CB       -17.3200  -46.3320   24.4740 C.3   333  TYR333      0.0534
    156  CG       -17.1670  -46.5270   25.9530 C.ar  333  TYR333     -0.0201
    157  CD1      -18.0010  -45.8370   26.8480 C.ar  333  TYR333     -0.0009
    158  CD2      -16.2700  -47.4670   26.4650 C.ar  333  TYR333     -0.0009
    159  CE1      -17.9100  -46.0420   28.2330 C.ar  333  TYR333      0.0417
    160  CE2      -16.1750  -47.6800   27.8430 C.ar  333  TYR333      0.0417
    161  CZ       -17.0060  -46.9580   28.7150 C.ar  333  TYR333      0.1957
    162  OH       -16.9370  -47.1630   30.0720 O.3   333  TYR333     -0.2866
@<TRIPOS>BOND
     1   116   114    1
     2    76    75    2
     3    73    74    1
     4    75    74    1
     5    75    82   am
     6   114   113    2
     7   114   115    1
     8    77    74    1
     9    77    78    1
    10   113   112    1
    11    80    79   ar
    12    86    83    1
    13    86    87    1
    14    79    81   ar
    15    79    78    1
    16    68    67    2
    17    67    66    1
    18    83    82    1
    19    83    84    1
    20   112   111    1
    21   111   110    1
    22    88    84   am
    23    88    89    1
    24    84    85    2
    25    66    69    1
    26    66    65    1
    27    91    90    2
    28    94    92    1
    29    69    70    1
    30   110   107    1
    31    72    70    1
    32    89    90    1
    33    89    92    1
    34    58    57    2
    35    90    95   am
    36    93    92    1
    37    98    97    2
    38    70    71    1
    39   107   106    1
    40   107   108    1
    41    99    96    1
    42    99   100    1
    43    97   106   am
    44    97    96    1
    45    57    56    1
    46    95    96    1
    47   100   102   ar
    48   100   101   ar
    49   102   104   ar
    50   108   117   am
    51   108   109    2
    52    56    59    1
    53    56    55    1
    54    44    43    2
    55   117   118    1
    56   101   103   ar
    57   120   119    2
    58   154   153    2
    59   143   142    2
    60   153   152    1
    61    59    60    1
    62   104   105   ar
    63   144   145    1
    64   144   141    1
    65   142   141    1
    66    62    60   ar
    67    62    64   ar
    68   119   118    1
    69   103   105   ar
    70    43    55   am
    71    43    42    1
    72    60    61   ar
    73   118   121    1
    74   145   146   ar
    75   145   147   ar
    76   141   140    1
    77   146   148   ar
    78   151   152    1
    79   152   155    1
    80    64    63   ar
    81   147   149   ar
    82   140   130   am
    83   124   126   ar
    84   124   122   ar
    85   155   156    1
    86   126   127   ar
    87   148   150   ar
    88    42    45    1
    89    42    41    1
    90   121   122    1
    91   122   123   ar
    92    61    63   ar
    93    51    53   ar
    94    51    48   ar
    95   127   125   ar
    96    53    54   ar
    97   128   129    1
    98   149   150   ar
    99   123   125   ar
   100    45    46    1
   101   130   131    2
   102   130   129    1
   103   129   132    1
   104    48    46   ar
   105    48    50   ar
   106   156   158   ar
   107   156   157   ar
   108    46    47   ar
   109    54    52   ar
   110   158   160   ar
   111   157   159   ar
   112   132   133    1
   113    50    52   ar
   114    50    49   ar
   115    28    27    2
   116    47    49   ar
   117   135   133   ar
   118   135   137   ar
   119   160   161   ar
   120   133   134   ar
   121    26    27    1
   122    26    25    1
   123   159   161   ar
   124   137   138   ar
   125    38    36   ar
   126    38    39   ar
   127    36    34   ar
   128   161   162    1
   129   134   136   ar
   130    25    23   am
   131   138   136   ar
   132   138   139    1
   133    40    39    1
   134    34    33    1
   135    34    35   ar
   136    39    37   ar
   137    33    30    1
   138    12    11    1
   139    29    30    1
   140    23    24    2
   141    23    22    1
   142    35    37   ar
   143    11     9   ar
   144    11    10   ar
   145    30    31    1
   146     9     7   ar
   147    10     8   ar
   148    20    18   ar
   149     7     6   ar
   150     8     6   ar
   151    21    22    1
   152     6     5    1
   153    18    19   ar
   154    18    17    1
   155    31    32    2
   156     5     2    1
   157    17    14    1
   158    14    15    1
   159    14    13    1
   160     2     1    1
   161     2     3    1
   162    15    16    2
   163     3     4    2
