@<TRIPOS>MOLECULE
tmp/4m0fB01.pdb
 247 246 0 0 0
SMALL
GASTEIGER

@<TRIPOS>ATOM
      1  N         10.6880  -54.6470  -34.2150 N.3    69  TYR69      -0.1241
      2  CA        11.9310  -54.3950  -33.5210 C.3    69  TYR69       0.1605
      3  C         12.6550  -55.6950  -33.1000 C.2    69  TYR69       0.2264
      4  O         12.0200  -56.6880  -32.7320 O.2    69  TYR69      -0.2867
      5  CB        11.6310  -53.5300  -32.2890 C.3    69  TYR69       0.0534
      6  CG        12.8690  -53.1970  -31.4980 C.ar   69  TYR69      -0.0201
      7  CD1       13.6930  -52.1420  -31.8840 C.ar   69  TYR69      -0.0009
      8  CD2       13.2340  -53.9500  -30.3920 C.ar   69  TYR69      -0.0009
      9  CE1       14.8360  -51.8350  -31.1830 C.ar   69  TYR69       0.0417
     10  CE2       14.3910  -53.6540  -29.6800 C.ar   69  TYR69       0.0417
     11  CZ        15.1880  -52.5920  -30.0870 C.ar   69  TYR69       0.1957
     12  OH        16.3390  -52.2830  -29.4040 O.3    69  TYR69      -0.2866
     13  N         15.6750  -57.2880  -30.5870 N.3    71  ASP71      -0.1239
     14  CA        16.4160  -56.9440  -29.3760 C.3    71  ASP71       0.1674
     15  C         17.9290  -57.1110  -29.5120 C.2    71  ASP71       0.2266
     16  O         18.4280  -58.1620  -29.9390 O.2    71  ASP71      -0.2867
     17  CB        15.9160  -57.7530  -28.1740 C.3    71  ASP71       0.1410
     18  CG        16.3880  -57.1780  -26.8370 C.2    71  ASP71       0.3668
     19  OD1       16.1940  -55.9580  -26.5740 O.co2  71  ASP71      -0.2456
     20  OD2       16.9530  -57.9560  -26.0560 O.co2  71  ASP71      -0.2456
     21  N         20.0420  -55.8320  -26.7240 N.3    73  LEU73      -0.1245
     22  CA        20.5790  -55.4830  -25.4070 C.3    73  LEU73       0.1561
     23  C         21.7210  -56.4230  -24.9980 C.2    73  LEU73       0.2260
     24  O         22.7010  -56.0020  -24.3730 O.2    73  LEU73      -0.2867
     25  CB        19.4710  -55.4830  -24.3400 C.3    73  LEU73       0.0270
     26  CG        19.8610  -55.1670  -22.8820 C.3    73  LEU73       0.0019
     27  CD1       20.2530  -53.7000  -22.7060 C.3    73  LEU73       0.0001
     28  CD2       18.7470  -55.5360  -21.9140 C.3    73  LEU73       0.0001
     29  N         14.0280  -65.2880  -28.4740 N.3    83  TRP83      -0.1241
     30  CA        12.7850  -64.5480  -28.6880 C.3    83  TRP83       0.1605
     31  C         12.7990  -63.7420  -29.9940 C.2    83  TRP83       0.2264
     32  O         11.7530  -63.2660  -30.4500 O.2    83  TRP83      -0.2867
     33  CB        12.5210  -63.6170  -27.4930 C.3    83  TRP83       0.0550
     34  CG        12.4200  -64.3410  -26.1750 C.ar   83  TRP83       0.0003
     35  CD1       13.2740  -64.2350  -25.1030 C.ar   83  TRP83       0.0946
     36  CD2       11.4090  -65.2890  -25.7880 C.ar   83  TRP83       0.0152
     37  NE1       12.8450  -65.0460  -24.0860 N.ar   83  TRP83      -0.2442
     38  CE2       11.7070  -65.7040  -24.4780 C.ar   83  TRP83       0.0810
     39  CE3       10.2810  -65.8170  -26.4220 C.ar   83  TRP83       0.0012
     40  CZ2       10.9140  -66.6150  -23.7880 C.ar   83  TRP83       0.0191
     41  CZ3        9.4980  -66.7250  -25.7450 C.ar   83  TRP83       0.0001
     42  CH2        9.8140  -67.1170  -24.4410 C.ar   83  TRP83       0.0015
     43  N          3.0220  -64.1230  -27.5340 N.3   117  GLY117     -0.1210
     44  CA         3.1770  -62.8230  -26.8990 C.3   117  GLY117      0.1956
     45  C          4.4090  -62.0600  -27.3820 C.2   117  GLY117      0.2612
     46  O          4.9890  -62.3720  -28.4430 O.2   117  GLY117     -0.2717
     47  N          4.8110  -61.0480  -26.6160 N.am  118  GLY118     -0.1942
     48  CA         5.8840  -60.1530  -27.0310 C.3   118  GLY118      0.2014
     49  C          5.4410  -58.7010  -27.1330 C.2   118  GLY118      0.2639
     50  O          5.9270  -57.9390  -27.9950 O.2   118  GLY118     -0.2714
     51  N          4.4930  -58.3390  -26.2670 N.am  119  GLY119     -0.1954
     52  CA         4.1650  -56.9620  -25.9680 C.3   119  GLY119      0.1869
     53  C          3.4040  -56.2580  -27.0680 C.2   119  GLY119      0.2309
     54  O          3.3280  -55.0350  -27.0650 O.2   119  GLY119     -0.2863
     55  N          4.3790  -55.8850  -29.8960 N.3   121  TYR121     -0.1227
     56  CA         5.3560  -55.3090  -30.8150 C.3   121  TYR121      0.1736
     57  C          6.3340  -56.3210  -31.4340 C.2   121  TYR121      0.2596
     58  O          7.1450  -55.9410  -32.2650 O.2   121  TYR121     -0.2718
     59  CB         6.1770  -54.2100  -30.1290 C.3   121  TYR121      0.0548
     60  CG         7.2700  -54.7490  -29.2230 C.ar  121  TYR121     -0.0200
     61  CD1        8.5670  -54.9150  -29.6850 C.ar  121  TYR121     -0.0009
     62  CD2        7.0090  -55.0720  -27.9090 C.ar  121  TYR121     -0.0009
     63  CE1        9.5560  -55.4080  -28.8700 C.ar  121  TYR121      0.0417
     64  CE2        8.0000  -55.5600  -27.0840 C.ar  121  TYR121      0.0417
     65  CZ         9.2650  -55.7270  -27.5690 C.ar  121  TYR121      0.1957
     66  OH        10.2470  -56.2050  -26.7460 O.3   121  TYR121     -0.2866
     67  N          6.2870  -57.5780  -31.0050 N.am  122  SER122     -0.1952
     68  CA         7.2730  -58.5810  -31.4300 C.3   122  SER122      0.1924
     69  C          6.6490  -59.9560  -31.3240 C.2   122  SER122      0.2314
     70  O          5.4780  -60.0680  -30.9780 O.2   122  SER122     -0.2863
     71  CB         8.5370  -58.5340  -30.5560 C.3   122  SER122      0.2116
     72  OG         8.2440  -58.7210  -29.1630 O.3   122  SER122     -0.2180
     73  N          9.0810  -69.3590  -33.8680 N.3   127  LEU127     -0.1245
     74  CA        10.1080  -69.5630  -32.8400 C.3   127  LEU127      0.1561
     75  C         10.2080  -71.0280  -32.4120 C.2   127  LEU127      0.2260
     76  O          9.1970  -71.7290  -32.3380 O.2   127  LEU127     -0.2867
     77  CB         9.8270  -68.6930  -31.6150 C.3   127  LEU127      0.0270
     78  CG         9.7750  -67.1860  -31.8600 C.3   127  LEU127      0.0019
     79  CD1        9.6730  -66.4490  -30.5230 C.3   127  LEU127      0.0001
     80  CD2       10.9870  -66.7180  -32.6440 C.3   127  LEU127      0.0001
     81  N          8.0270  -72.4610  -29.6980 N.3   130  TYR130     -0.1241
     82  CA         6.5910  -72.6890  -29.9890 C.3   130  TYR130      0.1605
     83  C          6.3550  -73.8470  -30.9500 C.2   130  TYR130      0.2264
     84  O          5.2720  -73.9700  -31.5210 O.2   130  TYR130     -0.2867
     85  CB         5.9060  -71.4500  -30.5970 C.3   130  TYR130      0.0534
     86  CG         6.0980  -70.1590  -29.8340 C.ar  130  TYR130     -0.0201
     87  CD1        6.1460  -70.1470  -28.4440 C.ar  130  TYR130     -0.0009
     88  CD2        6.2230  -68.9440  -30.5090 C.ar  130  TYR130     -0.0009
     89  CE1        6.3060  -68.9670  -27.7480 C.ar  130  TYR130      0.0417
     90  CE2        6.4100  -67.7560  -29.8160 C.ar  130  TYR130      0.0417
     91  CZ         6.4400  -67.7750  -28.4360 C.ar  130  TYR130      0.1957
     92  OH         6.6100  -66.6100  -27.7290 O.3   130  TYR130     -0.2866
     93  N          0.4370  -66.5590  -24.2370 N.3   199  GLU199     -0.1231
     94  CA         1.2190  -66.0900  -23.1150 C.3   199  GLU199      0.1699
     95  C          1.5010  -64.6010  -23.3540 C.2   199  GLU199      0.2592
     96  O          1.5620  -64.1780  -24.5010 O.2   199  GLU199     -0.2718
     97  CB         2.4900  -66.9270  -23.0230 C.3   199  GLU199      0.0402
     98  CG         3.3940  -66.6240  -21.8700 C.3   199  GLU199      0.1161
     99  CD         4.3730  -65.4950  -22.1700 C.2   199  GLU199      0.3649
    100  OE1        4.4590  -65.0500  -23.3460 O.co2 199  GLU199     -0.2457
    101  OE2        5.0520  -65.0380  -21.2150 O.co2 199  GLU199     -0.2457
    102  N          1.6740  -63.8360  -22.2710 N.am  200  SER200     -0.1952
    103  CA         1.7170  -62.3580  -22.2610 C.3   200  SER200      0.1924
    104  C          0.7200  -61.6820  -23.2000 C.2   200  SER200      0.2314
    105  O         -0.4780  -61.8800  -23.0440 O.2   200  SER200     -0.2863
    106  CB         3.1420  -61.7950  -22.3910 C.3   200  SER200      0.2116
    107  OG         3.5610  -61.7330  -23.7350 O.3   200  SER200     -0.2180
    108  N          9.9720  -47.3500  -30.0420 N.3   281  TRP281     -0.1227
    109  CA        10.0900  -47.0410  -28.6210 C.3   281  TRP281      0.1737
    110  C          9.9410  -45.5560  -28.2490 C.2   281  TRP281      0.2595
    111  O          9.5470  -45.2350  -27.1320 O.2   281  TRP281     -0.2718
    112  CB        11.3990  -47.6110  -28.0810 C.3   281  TRP281      0.0564
    113  CG        11.3870  -49.1120  -28.0870 C.ar  281  TRP281      0.0003
    114  CD1       12.0310  -49.9340  -28.9620 C.ar  281  TRP281      0.0946
    115  CD2       10.6620  -49.9710  -27.1870 C.ar  281  TRP281      0.0152
    116  NE1       11.7720  -51.2500  -28.6530 N.ar  281  TRP281     -0.2442
    117  CE2       10.9360  -51.2990  -27.5680 C.ar  281  TRP281      0.0810
    118  CE3        9.8140  -49.7410  -26.0990 C.ar  281  TRP281      0.0012
    119  CZ2       10.3920  -52.3920  -26.9050 C.ar  281  TRP281      0.0191
    120  CZ3        9.2770  -50.8260  -25.4350 C.ar  281  TRP281      0.0001
    121  CH2        9.5680  -52.1370  -25.8410 C.ar  281  TRP281      0.0015
    122  N         10.1980  -44.6710  -29.2070 N.am  282  HIS282     -0.1975
    123  CA        10.2150  -43.2260  -28.9870 C.3   282  HIS282      0.1656
    124  C          8.8640  -42.5260  -28.7930 C.2   282  HIS282      0.2291
    125  O          8.8320  -41.3250  -28.5750 O.2   282  HIS282     -0.2864
    126  CB        10.9520  -42.5350  -30.1400 C.3   282  HIS282      0.0771
    127  CG        12.3720  -42.9840  -30.3110 C.ar  282  HIS282      0.0820
    128  ND1       12.9730  -43.1000  -31.5490 N.ar  282  HIS282     -0.2267
    129  CD2       13.3150  -43.3300  -29.4010 C.ar  282  HIS282      0.1154
    130  CE1       14.2220  -43.5060  -31.3950 C.ar  282  HIS282      0.1986
    131  NE2       14.4560  -43.6510  -30.1000 N.ar  282  HIS282     -0.2212
    132  N          6.4050  -43.4630  -26.4980 N.3   284  LEU284     -0.1245
    133  CA         5.8670  -43.6310  -25.1550 C.3   284  LEU284      0.1561
    134  C          5.9900  -42.3230  -24.3800 C.2   284  LEU284      0.2260
    135  O          7.0190  -41.6380  -24.4560 O.2   284  LEU284     -0.2867
    136  CB         6.5820  -44.7660  -24.4180 C.3   284  LEU284      0.0270
    137  CG         6.2580  -46.1850  -24.8900 C.3   284  LEU284      0.0019
    138  CD1        7.1260  -47.2340  -24.1840 C.3   284  LEU284      0.0001
    139  CD2        4.7970  -46.4790  -24.6980 C.3   284  LEU284      0.0001
    140  N          9.4270  -42.4700  -19.5130 N.3   287  GLU287     -0.1231
    141  CA        10.3800  -43.5620  -19.3690 C.3   287  GLU287      0.1699
    142  C          9.6500  -44.6240  -18.5360 C.2   287  GLU287      0.2593
    143  O          9.0250  -44.2940  -17.5250 O.2   287  GLU287     -0.2718
    144  CB        11.6230  -43.0440  -18.6340 C.3   287  GLU287      0.0402
    145  CG        12.8350  -43.9770  -18.6280 C.3   287  GLU287      0.1161
    146  CD        13.7480  -43.7780  -17.3990 C.2   287  GLU287      0.3649
    147  OE1       13.8090  -42.6480  -16.8620 O.co2 287  GLU287     -0.2457
    148  OE2       14.3990  -44.7590  -16.9630 O.co2 287  GLU287     -0.2457
    149  N          9.6990  -45.8840  -18.9480 N.am  288  SER288     -0.1938
    150  CA         8.8590  -46.8810  -18.3010 C.3   288  SER288      0.2055
    151  C          9.3470  -48.3180  -18.4800 C.2   288  SER288      0.2643
    152  O         10.2760  -48.5700  -19.2230 O.2   288  SER288     -0.2714
    153  CB         7.4190  -46.7240  -18.7700 C.3   288  SER288      0.2130
    154  OG         7.3540  -46.7810  -20.1720 O.3   288  SER288     -0.2179
    155  N          8.7700  -49.2520  -17.7270 N.am  289  VAL289     -0.1963
    156  CA         9.0080  -50.6730  -17.9700 C.3   289  VAL289      0.1727
    157  C          7.6570  -51.3390  -18.1470 C.2   289  VAL289      0.2616
    158  O          6.6380  -50.8250  -17.6620 O.2   289  VAL289     -0.2715
    159  CB         9.8070  -51.3910  -16.8360 C.3   289  VAL289      0.0290
    160  CG1       11.2730  -50.9700  -16.8510 C.3   289  VAL289      0.0023
    161  CG2        9.2010  -51.1240  -15.5180 C.3   289  VAL289      0.0023
    162  N          7.6550  -52.4600  -18.8630 N.am  290  PHE290     -0.1960
    163  CA         6.4310  -53.1640  -19.1970 C.3   290  PHE290      0.1771
    164  C          5.4080  -52.2310  -19.8840 C.2   290  PHE290      0.2619
    165  O          4.2220  -52.2930  -19.5860 O.2   290  PHE290     -0.2715
    166  CB         5.8500  -53.8080  -17.9130 C.3   290  PHE290      0.0574
    167  CG         5.1910  -55.1540  -18.1440 C.ar  290  PHE290     -0.0200
    168  CD1        4.3820  -55.3720  -19.2620 C.ar  290  PHE290     -0.0042
    169  CD2        5.3980  -56.2030  -17.2630 C.ar  290  PHE290     -0.0042
    170  CE1        3.7780  -56.6060  -19.4830 C.ar  290  PHE290     -0.0003
    171  CE2        4.7910  -57.4440  -17.4750 C.ar  290  PHE290     -0.0003
    172  CZ         3.9910  -57.6420  -18.5860 C.ar  290  PHE290     -0.0000
    173  N          5.8700  -51.3330  -20.7550 N.am  291  ARG291     -0.1963
    174  CA         4.9560  -50.5240  -21.5780 C.3   291  ARG291      0.1729
    175  C          5.3490  -50.6080  -23.0450 C.2   291  ARG291      0.2616
    176  O          6.5310  -50.6330  -23.3730 O.2   291  ARG291     -0.2715
    177  CB         4.9100  -49.0470  -21.1400 C.3   291  ARG291      0.0348
    178  CG         4.1940  -48.8030  -19.8340 C.3   291  ARG291      0.0492
    179  CD         2.7400  -49.2620  -19.8550 C.3   291  ARG291      0.2205
    180  NE         2.0880  -48.9690  -18.5780 N.pl3 291  ARG291     -0.0865
    181  CZ         2.0970  -49.7770  -17.5130 C.cat 291  ARG291      0.5346
    182  NH1        2.7240  -50.9490  -17.5490 N.pl3 291  ARG291      0.1354
    183  NH2        1.4740  -49.4150  -16.3980 N.pl3 291  ARG291      0.1354
    184  N          4.3530  -50.6250  -23.9240 N.am  292  PHE292     -0.1974
    185  CA         4.5720  -50.8480  -25.3530 C.3   292  PHE292      0.1639
    186  C          3.7560  -49.8530  -26.1600 C.2   292  PHE292      0.2290
    187  O          2.6080  -49.5570  -25.8220 O.2   292  PHE292     -0.2864
    188  CB         4.2040  -52.2870  -25.7160 C.3   292  PHE292      0.0560
    189  CG         4.7680  -53.2990  -24.7440 C.ar  292  PHE292     -0.0200
    190  CD1        6.1220  -53.5750  -24.7250 C.ar  292  PHE292     -0.0042
    191  CD2        3.9420  -53.9420  -23.8200 C.ar  292  PHE292     -0.0042
    192  CE1        6.6450  -54.5000  -23.8170 C.ar  292  PHE292     -0.0003
    193  CE2        4.4500  -54.8510  -22.9220 C.ar  292  PHE292     -0.0003
    194  CZ         5.8100  -55.1360  -22.9230 C.ar  292  PHE292     -0.0000
    195  N         12.2100  -60.0480  -15.3120 N.3   332  TYR332     -0.1227
    196  CA        12.6630  -59.8820  -16.6890 C.3   332  TYR332      0.1736
    197  C         12.6070  -58.4290  -17.1000 C.2   332  TYR332      0.2595
    198  O         13.5270  -57.9200  -17.7420 O.2   332  TYR332     -0.2718
    199  CB        11.7470  -60.6730  -17.5960 C.3   332  TYR332      0.0548
    200  CG        12.3310  -61.1600  -18.8900 C.ar  332  TYR332     -0.0200
    201  CD1       11.8390  -62.3270  -19.4810 C.ar  332  TYR332     -0.0009
    202  CD2       13.3570  -60.4720  -19.5360 C.ar  332  TYR332     -0.0009
    203  CE1       12.3610  -62.8060  -20.6630 C.ar  332  TYR332      0.0417
    204  CE2       13.8760  -60.9370  -20.7490 C.ar  332  TYR332      0.0417
    205  CZ        13.3740  -62.1010  -21.2970 C.ar  332  TYR332      0.1957
    206  OH        13.8690  -62.5880  -22.4630 O.3   332  TYR332     -0.2866
    207  N         11.5230  -57.7670  -16.7130 N.am  333  PHE333     -0.1976
    208  CA        11.2420  -56.4060  -17.1530 C.3   333  PHE333      0.1639
    209  C         12.1830  -55.3760  -16.5610 C.2   333  PHE333      0.2290
    210  O         12.4640  -54.3530  -17.1970 O.2   333  PHE333     -0.2864
    211  CB         9.7750  -56.0780  -16.8990 C.3   333  PHE333      0.0560
    212  CG         8.8600  -56.9920  -17.6310 C.ar  333  PHE333     -0.0200
    213  CD1        8.3980  -58.1580  -17.0340 C.ar  333  PHE333     -0.0042
    214  CD2        8.5320  -56.7390  -18.9630 C.ar  333  PHE333     -0.0042
    215  CE1        7.5930  -59.0340  -17.7470 C.ar  333  PHE333     -0.0003
    216  CE2        7.7180  -57.6040  -19.6720 C.ar  333  PHE333     -0.0003
    217  CZ         7.2640  -58.7540  -19.0790 C.ar  333  PHE333     -0.0000
    218  N         15.2250  -54.3700  -18.4030 N.3   336  TYR336     -0.1227
    219  CA        14.9370  -53.5430  -19.5650 C.3   336  TYR336      0.1736
    220  C         14.4290  -52.1640  -19.1910 C.2   336  TYR336      0.2596
    221  O         13.5030  -51.6640  -19.8110 O.2   336  TYR336     -0.2718
    222  CB        13.9360  -54.2280  -20.4910 C.3   336  TYR336      0.0548
    223  CG        14.5600  -55.3340  -21.2910 C.ar  336  TYR336     -0.0200
    224  CD1       15.0530  -55.1010  -22.5670 C.ar  336  TYR336     -0.0009
    225  CD2       14.6940  -56.6030  -20.7570 C.ar  336  TYR336     -0.0009
    226  CE1       15.6380  -56.1050  -23.2850 C.ar  336  TYR336      0.0417
    227  CE2       15.2850  -57.6190  -21.4720 C.ar  336  TYR336      0.0417
    228  CZ        15.7510  -57.3650  -22.7340 C.ar  336  TYR336      0.1957
    229  OH        16.3430  -58.3720  -23.4420 O.3   336  TYR336     -0.2866
    230  N         15.0100  -51.5420  -18.1770 N.am  337  GLY337     -0.1957
    231  CA        14.6430  -50.1690  -17.9030 C.3   337  GLY337      0.1869
    232  C         14.7080  -49.6330  -16.4970 C.2   337  GLY337      0.2309
    233  O         14.6590  -48.4260  -16.3240 O.2   337  GLY337     -0.2863
    234  N          9.1950  -64.2870  -16.6210 N.3   442  HIS442     -0.1226
    235  CA         8.1330  -64.2360  -17.5960 C.3   442  HIS442      0.1752
    236  C          8.5500  -64.9710  -18.8730 C.2   442  HIS442      0.2596
    237  O          9.6470  -64.7580  -19.3810 O.2   442  HIS442     -0.2718
    238  CB         7.9320  -62.7740  -17.9260 C.3   442  HIS442      0.0759
    239  CG         6.6520  -62.4760  -18.6220 C.ar  442  HIS442      0.0818
    240  ND1        5.4290  -62.5590  -17.9930 N.ar  442  HIS442     -0.2268
    241  CD2        6.4050  -62.0590  -19.8810 C.ar  442  HIS442      0.1154
    242  CE1        4.4810  -62.2070  -18.8410 C.ar  442  HIS442      0.1986
    243  NE2        5.0480  -61.9000  -19.9920 N.ar  442  HIS442     -0.2212
    244  N          7.6830  -65.8560  -19.3600 N.am  443  GLY443     -0.1957
    245  CA         7.9240  -66.5490  -20.6090 C.3   443  GLY443      0.1869
    246  C          8.5650  -67.9210  -20.4740 C.2   443  GLY443      0.2309
    247  O          8.6490  -68.6530  -21.4590 O.2   443  GLY443     -0.2863
@<TRIPOS>BOND
     1     1     2    1
     2    73    74    1
     3     2     3    1
     4     2     5    1
     5     3     4    2
     6    74    75    1
     7    74    77    1
     8    80    78    1
     9    75    76    2
    10     5     6    1
    11    58    57    2
    12     7     6   ar
    13     7     9   ar
    14    78    77    1
    15    78    79    1
    16   128   130   ar
    17   128   127   ar
    18    84    83    2
    19     6     8   ar
    20    57    67   am
    21    57    56    1
    22    68    69    1
    23    68    67    1
    24    68    71    1
    25   130   131   ar
    26    69    70    2
    27     9    11   ar
    28    83    82    1
    29    56    59    1
    30    56    55    1
    31    85    82    1
    32    85    86    1
    33    13    14    1
    34    71    72    1
    35    88    86   ar
    36    88    90   ar
    37    32    31    2
    38     8    10   ar
    39   127   126    1
    40   127   129   ar
    41   126   123    1
    42    59    60    1
    43   131   129   ar
    44    11    10   ar
    45    11    12    1
    46   108   109    1
    47    31    30    1
    48    82    81    1
    49    16    15    2
    50    86    87   ar
    51    90    91   ar
    52    61    60   ar
    53    61    63   ar
    54    15    14    1
    55    14    17    1
    56    60    62   ar
    57   122   123    1
    58   122   110   am
    59   123   124    1
    60   114   116   ar
    61   114   113   ar
    62    63    65   ar
    63   124   125    2
    64    30    29    1
    65    30    33    1
    66   116   117   ar
    67   109   110    1
    68   109   112    1
    69    87    89   ar
    70    46    45    2
    71    91    89   ar
    72    91    92    1
    73   110   111    2
    74    17    18    1
    75   113   112    1
    76   113   115   ar
    77    50    49    2
    78    62    64   ar
    79    65    64   ar
    80    65    66    1
    81   117   115   ar
    82   117   119   ar
    83    43    44    1
    84    33    34    1
    85    45    44    1
    86    45    47   am
    87   115   118   ar
    88    49    48    1
    89    49    51   am
    90    53    54    2
    91    53    52    1
    92    48    47    1
    93   119   121   ar
    94    18    19   ar
    95    18    20   ar
    96    21    22    1
    97   132   133    1
    98    39    36   ar
    99    39    41   ar
   100    51    52    1
   101    34    36   ar
   102    34    35   ar
   103   186   187    2
   104   186   185    1
   105   118   120   ar
   106   121   120   ar
   107    36    38   ar
   108    41    42   ar
   109   188   185    1
   110   188   189    1
   111    22    23    1
   112    22    25    1
   113   185   184    1
   114   133   136    1
   115   133   134    1
   116    35    37   ar
   117    23    24    2
   118   137   139    1
   119   137   136    1
   120   137   138    1
   121   189   190   ar
   122   189   191   ar
   123   190   192   ar
   124    96    95    2
   125    38    37   ar
   126    38    40   ar
   127   135   134    2
   128    42    40   ar
   129    25    26    1
   130    93    94    1
   131   184   175   am
   132   191   193   ar
   133   192   194   ar
   134   107   106    1
   135   229   228    1
   136   176   175    2
   137    95    94    1
   138    95   102   am
   139   100    99   ar
   140   226   228   ar
   141   226   224   ar
   142   104   105    2
   143   104   103    1
   144    94    97    1
   145   175   174    1
   146    97    98    1
   147   194   193   ar
   148    26    27    1
   149    26    28    1
   150   228   227   ar
   151   224   223   ar
   152   206   205    1
   153   106   103    1
   154   102   103    1
   155    99    98    1
   156    99   101   ar
   157   174   177    1
   158   174   173    1
   159   227   225   ar
   160   247   246    2
   161   205   204   ar
   162   205   203   ar
   163   223   225   ar
   164   223   222    1
   165   177   178    1
   166   173   164   am
   167   204   202   ar
   168   203   201   ar
   169   245   246    1
   170   245   244    1
   171   222   219    1
   172   154   153    1
   173   243   241   ar
   174   243   242   ar
   175   164   165    2
   176   164   163    1
   177   241   239   ar
   178   179   178    1
   179   179   180    1
   180   221   220    2
   181   216   217   ar
   182   216   214   ar
   183   219   220    1
   184   219   218    1
   185   202   200   ar
   186   140   141    1
   187   170   168   ar
   188   170   172   ar
   189   201   200   ar
   190   237   236    2
   191   141   144    1
   192   141   142    1
   193   244   236   am
   194   168   167   ar
   195   152   151    2
   196   163   162    1
   197   163   166    1
   198   220   230   am
   199   217   215   ar
   200   214   212   ar
   201   149   142   am
   202   149   150    1
   203   200   199    1
   204   236   235    1
   205   162   157   am
   206   242   240   ar
   207   153   150    1
   208   144   145    1
   209   145   146    1
   210   239   240   ar
   211   239   238    1
   212   172   171   ar
   213   180   181    2
   214   142   143    2
   215   151   150    1
   216   151   155   am
   217   230   231    1
   218   157   156    1
   219   157   158    2
   220   167   166    1
   221   167   169   ar
   222   156   155    1
   223   156   159    1
   224   238   235    1
   225   231   232    1
   226   215   213   ar
   227   198   197    2
   228   212   213   ar
   229   212   211    1
   230   235   234    1
   231   199   196    1
   232   182   181    1
   233   181   183    1
   234   171   169   ar
   235   146   148   ar
   236   146   147   ar
   237   210   209    2
   238   208   211    1
   239   208   207    1
   240   208   209    1
   241   197   207   am
   242   197   196    1
   243   160   159    1
   244   159   161    1
   245   196   195    1
   246   232   233    2
