@<TRIPOS>MOLECULE
tmp/4m0kC00.pdb
 165 159 0 0 0
SMALL
GASTEIGER

@<TRIPOS>ATOM
      1  N         25.7540   19.8450    8.1820 N.3    23  ILE23      -0.1231
      2  CA        27.0630   20.1270    8.7700 C.3    23  ILE23       0.1692
      3  C         27.6560   18.8620    9.3910 C.2    23  ILE23       0.2592
      4  O         27.0330   18.2140   10.2340 O.2    23  ILE23      -0.2718
      5  CB        27.0080   21.2690    9.8180 C.3    23  ILE23       0.0266
      6  CG1       26.4210   22.5500    9.2040 C.3    23  ILE23       0.0019
      7  CG2       28.3860   21.5540   10.4060 C.3    23  ILE23       0.0020
      8  CD1       27.3580   23.2840    8.2610 C.3    23  ILE23       0.0001
      9  N         28.8560   18.5190    8.9390 N.am   24  GLN24      -0.1966
     10  CA        29.6570   17.4680    9.5490 C.3    24  GLN24       0.1733
     11  C         30.5320   18.1100   10.6190 C.2    24  GLN24       0.2616
     12  O         31.6410   18.5780   10.3520 O.2    24  GLN24      -0.2715
     13  CB        30.4990   16.7520    8.4900 C.3    24  GLN24       0.0408
     14  CG        29.6470   16.0540    7.4320 C.3    24  GLN24       0.0908
     15  CD        28.9870   14.8070    7.9770 C.2    24  GLN24       0.2608
     16  OE1       27.7970   14.8050    8.3150 O.2    24  GLN24      -0.2717
     17  NE2       29.7660   13.7370    8.0930 N.am   24  GLN24      -0.0878
     18  N         30.0180   18.1070   11.8390 N.am   25  PHE25      -0.1960
     19  CA        30.6580   18.8550   12.9180 C.3    25  PHE25       0.1771
     20  C         31.9390   18.2300   13.4850 C.2    25  PHE25       0.2619
     21  O         31.9500   17.0580   13.8900 O.2    25  PHE25      -0.2715
     22  CB        29.6330   19.0720   14.0370 C.3    25  PHE25       0.0574
     23  CG        30.0730   20.0770   15.0700 C.ar   25  PHE25      -0.0200
     24  CD1       29.9280   21.4420   14.8350 C.ar   25  PHE25      -0.0042
     25  CD2       30.6820   19.6510   16.2540 C.ar   25  PHE25      -0.0042
     26  CE1       30.3430   22.3690   15.7940 C.ar   25  PHE25      -0.0003
     27  CE2       31.0940   20.5640   17.2020 C.ar   25  PHE25      -0.0003
     28  CZ        30.9400   21.9250   16.9610 C.ar   25  PHE25      -0.0000
     29  N         33.0130   19.0170   13.5470 N.am   26  LYS26      -0.1977
     30  CA        34.2440   18.5880   14.1990 C.3    26  LYS26       0.1596
     31  C         34.1970   18.9740   15.6510 C.2    26  LYS26       0.2287
     32  O         34.2510   20.1670   15.9820 O.2    26  LYS26      -0.2864
     33  CB        35.4870   19.1930   13.5480 C.3    26  LYS26       0.0298
     34  CG        35.6370   18.9340   12.0580 C.3    26  LYS26       0.0038
     35  CD        35.8820   17.4720   11.7280 C.3    26  LYS26       0.0206
     36  CE        36.1610   17.3760   10.2360 C.3    26  LYS26       0.1093
     37  NZ        36.3190   15.9860    9.7500 N.3    26  LYS26      -0.1314
     38  N         37.0250   33.5700   18.7040 N.3    60  ILE60      -0.1231
     39  CA        35.8110   33.7020   17.8890 C.3    60  ILE60       0.1692
     40  C         34.6720   32.8080   18.3970 C.2    60  ILE60       0.2591
     41  O         34.6930   31.5860   18.2100 O.2    60  ILE60      -0.2718
     42  CB        36.0890   33.4000   16.4050 C.3    60  ILE60       0.0266
     43  CG1       37.1710   34.3590   15.8700 C.3    60  ILE60       0.0019
     44  CG2       34.7870   33.5110   15.6190 C.3    60  ILE60       0.0020
     45  CD1       37.6670   34.0280   14.4790 C.3    60  ILE60       0.0001
     46  N         33.6980   33.4420   19.0490 N.am   61  GLU61      -0.1979
     47  CA        32.4720   32.8030   19.5440 C.3    61  GLU61       0.1602
     48  C         32.7260   31.7350   20.6050 C.2    61  GLU61       0.2287
     49  O         33.8710   31.4700   20.9510 O.2    61  GLU61      -0.2864
     50  CB        31.5370   32.3040   18.4270 C.3    61  GLU61       0.0415
     51  CG        30.2720   33.1600   18.2920 C.3    61  GLU61       0.1163
     52  CD        29.4740   33.3390   19.6050 C.2    61  GLU61       0.3649
     53  OE1       28.8130   34.3620   19.7590 O.co2  61  GLU61      -0.2457
     54  OE2       29.4570   32.4530   20.4720 O.co2  61  GLU61      -0.2457
     55  N         32.8000   28.5200   21.1000 N.3    63  ARG63      -0.1245
     56  CA        33.7600   27.4470   20.9390 C.3    63  ARG63       0.1563
     57  C         35.2010   27.9260   20.7370 C.2    63  ARG63       0.2260
     58  O         36.1250   27.1980   21.0570 O.2    63  ARG63      -0.2867
     59  CB        33.2780   26.4640   19.8790 C.3    63  ARG63       0.0307
     60  CG        32.1480   25.5870   20.4110 C.3    63  ARG63       0.0489
     61  CD        31.8040   24.4780   19.4240 C.3    63  ARG63       0.2205
     62  NE        31.1010   25.0070   18.2520 N.pl3  63  ARG63      -0.0865
     63  CZ        29.7750   25.1620   18.1710 C.cat  63  ARG63       0.5346
     64  NH1       29.2230   25.6450   17.0600 N.pl3  63  ARG63       0.1354
     65  NH2       29.0100   24.8540   19.2140 N.pl3  63  ARG63       0.1354
     66  N         28.6260   36.6050   17.7050 N.3    83  LYS83      -0.1245
     67  CA        27.4900   36.8660   16.8320 C.3    83  LYS83       0.1561
     68  C         26.7170   38.0890   17.3260 C.2    83  LYS83       0.2260
     69  O         26.7090   38.4050   18.5230 O.2    83  LYS83      -0.2867
     70  CB        26.5680   35.6510   16.7710 C.3    83  LYS83       0.0271
     71  CG        27.2870   34.3690   16.3660 C.3    83  LYS83       0.0035
     72  CD        26.3290   33.2510   15.9620 C.3    83  LYS83       0.0206
     73  CE        25.9990   33.2950   14.4710 C.3    83  LYS83       0.1093
     74  NZ        27.1690   32.9840   13.5940 N.3    83  LYS83      -0.1314
     75  N         28.9190   40.0330    6.6330 N.3    96  TYR96      -0.1241
     76  CA        29.6010   39.2920    5.5880 C.3    96  TYR96       0.1605
     77  C         28.6790   38.2500    4.9930 C.2    96  TYR96       0.2264
     78  O         27.6700   37.8670    5.6100 O.2    96  TYR96      -0.2867
     79  CB        30.8830   38.6400    6.1050 C.3    96  TYR96       0.0534
     80  CG        30.7150   37.7270    7.3070 C.ar   96  TYR96      -0.0201
     81  CD1       30.6380   38.2480    8.5940 C.ar   96  TYR96      -0.0009
     82  CD2       30.6620   36.3400    7.1520 C.ar   96  TYR96      -0.0009
     83  CE1       30.4960   37.4200    9.6980 C.ar   96  TYR96       0.0417
     84  CE2       30.5300   35.5040    8.2500 C.ar   96  TYR96       0.0417
     85  CZ        30.4340   36.0530    9.5170 C.ar   96  TYR96       0.1957
     86  OH        30.3090   35.2080   10.5910 O.3    96  TYR96      -0.2866
     87  N         27.2700   34.7280    3.4240 N.3    98  LEU98      -0.1245
     88  CA        27.2740   33.2810    3.6020 C.3    98  LEU98       0.1561
     89  C         26.8700   32.6710    2.2660 C.2    98  LEU98       0.2260
     90  O         26.5350   33.4050    1.3300 O.2    98  LEU98      -0.2867
     91  CB        26.2710   32.8830    4.6830 C.3    98  LEU98       0.0270
     92  CG        26.4600   33.5070    6.0670 C.3    98  LEU98       0.0019
     93  CD1       25.3370   33.0720    7.0070 C.3    98  LEU98       0.0001
     94  CD2       27.8270   33.1510    6.6400 C.3    98  LEU98       0.0001
     95  N         40.2030   30.4190   16.5060 N.3   121  ASP121     -0.1225
     96  CA        38.9380   29.6970   16.5470 C.3   121  ASP121      0.1805
     97  C         39.3050   28.2060   16.5300 C.2   121  ASP121      0.2598
     98  O         40.4180   27.8380   16.1080 O.2   121  ASP121     -0.2718
     99  CB        38.0410   30.0680   15.3610 C.3   121  ASP121      0.1424
    100  CG        36.5600   29.7470   15.5850 C.2   121  ASP121      0.3668
    101  OD1       36.1830   28.9900   16.5140 O.co2 121  ASP121     -0.2456
    102  OD2       35.7520   30.2740   14.8000 O.co2 121  ASP121     -0.2456
    103  N         38.4310   27.3490   17.0440 N.am  122  ASP122     -0.1960
    104  CA        38.7460   25.9250   16.9620 C.3   122  ASP122      0.1840
    105  C         38.8630   25.4330   15.5190 C.2   122  ASP122      0.2622
    106  O         39.8080   24.7020   15.1870 O.2   122  ASP122     -0.2715
    107  CB        37.8230   25.0510   17.8320 C.3   122  ASP122      0.1450
    108  CG        36.3550   25.1320   17.4620 C.2   122  ASP122      0.3671
    109  OD1       35.9080   26.0040   16.6960 O.co2 122  ASP122     -0.2456
    110  OD2       35.6120   24.2650   17.9850 O.co2 122  ASP122     -0.2456
    111  N         37.9220   25.8720   14.6730 N.am  123  VAL123     -0.1963
    112  CA        37.8250   25.4150   13.2830 C.3   123  VAL123      0.1727
    113  C         37.7710   26.6120   12.3380 C.2   123  VAL123      0.2616
    114  O         37.0720   27.5860   12.6180 O.2   123  VAL123     -0.2715
    115  CB        36.5860   24.5010   13.1090 C.3   123  VAL123      0.0290
    116  CG1       36.3550   24.1510   11.6400 C.3   123  VAL123      0.0023
    117  CG2       36.7600   23.2200   13.9440 C.3   123  VAL123      0.0023
    118  N         38.5140   26.5470   11.2330 N.am  124  ILE124     -0.1963
    119  CA        38.2330   27.4180   10.0760 C.3   124  ILE124      0.1727
    120  C         37.5880   26.5450    9.0010 C.2   124  ILE124      0.2616
    121  O         38.1110   25.4700    8.6570 O.2   124  ILE124     -0.2715
    122  CB        39.4730   28.1790    9.5320 C.3   124  ILE124      0.0290
    123  CG1       39.0700   29.0710    8.3300 C.3   124  ILE124      0.0022
    124  CG2       40.6250   27.2200    9.2270 C.3   124  ILE124      0.0023
    125  CD1       40.2000   29.9050    7.7560 C.3   124  ILE124      0.0001
    126  N         36.4320   26.9910    8.5150 N.am  125  ALA125     -0.1963
    127  CA        35.6770   26.3120    7.4660 C.3   125  ALA125      0.1728
    128  C         35.7840   27.1680    6.2140 C.2   125  ALA125      0.2617
    129  O         36.7770   27.0710    5.5020 O.2   125  ALA125     -0.2715
    130  CB        34.2330   26.0920    7.8980 C.3   125  ALA125      0.0334
    131  N         34.7840   28.0090    5.9560 N.am  126  THR126     -0.1937
    132  CA        34.8220   28.9110    4.7920 C.3   126  THR126      0.2028
    133  C         35.7780   30.0810    4.9970 C.2   126  THR126      0.2643
    134  O         36.1930   30.7290    4.0290 O.2   126  THR126     -0.2714
    135  CB        33.4490   29.5080    4.4270 C.3   126  THR126      0.1808
    136  OG1       33.0310   30.4290    5.4400 O.3   126  THR126     -0.2208
    137  CG2       32.3920   28.4240    4.2320 C.3   126  THR126      0.0379
    138  N         36.1180   30.3540    6.2530 N.am  127  GLY127     -0.1939
    139  CA        36.9210   31.5250    6.5740 C.3   127  GLY127      0.2014
    140  C         36.1750   32.8440    6.6040 C.2   127  GLY127      0.2639
    141  O         36.7740   33.8860    6.8470 O.2   127  GLY127     -0.2714
    142  N         34.8680   32.8300    6.3490 N.am  128  GLY128     -0.1939
    143  CA        34.0930   34.0910    6.3600 C.3   128  GLY128      0.2014
    144  C         34.1700   34.8040    7.7000 C.2   128  GLY128      0.2640
    145  O         34.3430   36.0300    7.7650 O.2   128  GLY128     -0.2714
    146  N         34.0380   34.0370    8.7800 N.am  129  THR129     -0.1936
    147  CA        34.0200   34.6250   10.1260 C.3   129  THR129      0.2028
    148  C         35.3890   35.1780   10.5100 C.2   129  THR129      0.2642
    149  O         35.4830   36.3030   11.0240 O.2   129  THR129     -0.2714
    150  CB        33.5160   33.6060   11.1730 C.3   129  THR129      0.1808
    151  OG1       32.2630   33.0570   10.7210 O.3   129  THR129     -0.2208
    152  CG2       33.2890   34.2710   12.5210 C.3   129  THR129      0.0379
    153  N         36.4470   34.4350   10.2280 N.am  130  ALA130     -0.1977
    154  CA        37.7970   34.9270   10.5380 C.3   130  ALA130      0.1597
    155  C         38.1450   36.1590    9.6940 C.2   130  ALA130      0.2287
    156  O         38.7960   37.0820   10.1930 O.2   130  ALA130     -0.2864
    157  CB        38.8510   33.8340   10.3810 C.3   130  ALA130      0.0319
    158  N         39.3340   22.8220    7.6980 N.3   153  LEU153     -0.1245
    159  CA        38.6170   21.9210    6.7820 C.3   153  LEU153      0.1561
    160  C         39.2280   22.1810    5.4060 C.2   153  LEU153      0.2260
    161  O         38.7710   23.0500    4.6510 O.2   153  LEU153     -0.2867
    162  CB        37.1060   22.1590    6.8070 C.3   153  LEU153      0.0270
    163  CG        36.3720   22.1160    8.1650 C.3   153  LEU153      0.0019
    164  CD1       34.8650   22.3040    7.9780 C.3   153  LEU153      0.0001
    165  CD2       36.6820   20.8140    8.9080 C.3   153  LEU153      0.0001
@<TRIPOS>BOND
     1    90    89    2
     2    89    88    1
     3    87    88    1
     4    88    91    1
     5   134   133    2
     6   137   135    1
     7   135   132    1
     8   135   136    1
     9   161   160    2
    10    91    92    1
    11   132   133    1
    12   132   131    1
    13    77    76    1
    14    77    78    2
    15   133   138   am
    16   160   159    1
    17   129   128    2
    18    76    79    1
    19    76    75    1
    20   131   128   am
    21    92    94    1
    22    92    93    1
    23    79    80    1
    24   128   127    1
    25   138   139    1
    26   142   143    1
    27   142   140   am
    28   143   144    1
    29   139   140    1
    30   140   141    2
    31   159   162    1
    32   159   158    1
    33   162   163    1
    34    82    80   ar
    35    82    84   ar
    36    80    81   ar
    37    14    15    1
    38    14    13    1
    39   127   130    1
    40   127   126    1
    41   144   145    2
    42   144   146   am
    43   125   123    1
    44    15    17   am
    45    15    16    2
    46   164   163    1
    47   163   165    1
    48     1     2    1
    49    84    85   ar
    50     8     6    1
    51   123   122    1
    52    13    10    1
    53   126   120   am
    54    81    83   ar
    55   121   120    2
    56     2     3    1
    57     2     5    1
    58   146   147    1
    59     9     3   am
    60     9    10    1
    61   120   119    1
    62     6     5    1
    63   124   122    1
    64     3     4    2
    65    85    83   ar
    66    85    86    1
    67   122   119    1
    68    10    11    1
    69   155   156    2
    70   155   154    1
    71    37    36    1
    72     5     7    1
    73   119   118    1
    74   147   148    1
    75   147   150    1
    76   153   148   am
    77   153   154    1
    78    36    35    1
    79    12    11    2
    80   157   154    1
    81   148   149    2
    82    11    18   am
    83   151   150    1
    84   150   152    1
    85   118   113   am
    86   116   115    1
    87    35    34    1
    88    18    19    1
    89    34    33    1
    90   113   114    2
    91   113   112    1
    92    19    20    1
    93    19    22    1
    94   115   112    1
    95   115   117    1
    96   112   111    1
    97    20    29   am
    98    20    21    2
    99    29    30    1
   100    33    30    1
   101    74    73    1
   102    22    23    1
   103    30    31    1
   104    73    72    1
   105    45    43    1
   106   111   105   am
   107   102   100   ar
   108    24    23   ar
   109    24    26   ar
   110    23    25   ar
   111   106   105    2
   112    99   100    1
   113    99    96    1
   114   105   104    1
   115   100   101   ar
   116    44    42    1
   117    31    32    2
   118    26    28   ar
   119    43    42    1
   120    72    71    1
   121    98    97    2
   122    25    27   ar
   123    71    70    1
   124    42    39    1
   125    95    96    1
   126    97    96    1
   127    97   103   am
   128   109   108   ar
   129    70    67    1
   130    67    68    1
   131    67    66    1
   132    28    27   ar
   133   104   103    1
   134   104   107    1
   135    64    63    1
   136    68    69    2
   137   108   107    1
   138   108   110   ar
   139    39    40    1
   140    39    38    1
   141    63    62    2
   142    63    65    1
   143    41    40    2
   144    62    61    1
   145    51    50    1
   146    51    52    1
   147    40    46   am
   148    50    47    1
   149    46    47    1
   150    61    60    1
   151    47    48    1
   152    52    53   ar
   153    52    54   ar
   154    59    60    1
   155    59    56    1
   156    48    49    2
   157    57    56    1
   158    57    58    2
   159    56    55    1
