@<TRIPOS>MOLECULE
tmp/4m0mA02.pdb
 118 116 0 0 0
SMALL
GASTEIGER

@<TRIPOS>ATOM
      1  N         13.4260    6.0990  156.2670 N.3   203  VAL203     -0.1231
      2  CA        14.5810    5.2350  156.0900 C.3   203  VAL203      0.1692
      3  C         15.8660    6.0230  156.3690 C.2   203  VAL203      0.2592
      4  O         16.1740    7.0100  155.6920 O.2   203  VAL203     -0.2718
      5  CB        14.6380    4.6470  154.6650 C.3   203  VAL203      0.0266
      6  CG1       15.9220    3.8650  154.4720 C.3   203  VAL203      0.0020
      7  CG2       13.4210    3.7540  154.4020 C.3   203  VAL203      0.0020
      8  N         16.6040    5.6010  157.3860 N.am  204  ILE204     -0.1966
      9  CA        17.8480    6.2820  157.7310 C.3   204  ILE204      0.1727
     10  C         19.0360    5.6080  157.0440 C.2   204  ILE204      0.2616
     11  O         19.4040    4.4630  157.3520 O.2   204  ILE204     -0.2715
     12  CB        18.0770    6.3380  159.2540 C.3   204  ILE204      0.0290
     13  CG1       16.7680    6.6590  159.9910 C.3   204  ILE204      0.0022
     14  CG2       19.1360    7.3700  159.5740 C.3   204  ILE204      0.0023
     15  CD1       16.0890    7.9730  159.5460 C.3   204  ILE204      0.0001
     16  N         19.6300    6.3100  156.0880 N.am  205  ALA205     -0.1977
     17  CA        20.7080    5.7170  155.3010 C.3   205  ALA205      0.1597
     18  C         21.9610    5.4420  156.1380 C.2   205  ALA205      0.2287
     19  O         22.6020    4.3980  155.9680 O.2   205  ALA205     -0.2864
     20  CB        21.0380    6.5880  154.1130 C.3   205  ALA205      0.0319
     21  N         22.6510    5.4050  160.0280 N.3   207  PRO207     -0.2116
     22  CA        22.1290    5.6080  161.3820 C.3   207  PRO207      0.1372
     23  C         23.2070    5.6700  162.4660 C.2   207  PRO207      0.2244
     24  O         22.8420    5.8140  163.6290 O.2   207  PRO207     -0.2868
     25  CB        21.2220    4.3890  161.5890 C.3   207  PRO207      0.0268
     26  CG        21.8360    3.3230  160.6990 C.3   207  PRO207      0.0207
     27  CD        22.3730    4.0550  159.5050 C.3   207  PRO207      0.0892
     28  N         14.4980   -1.6290  161.3910 N.3   424  SER424     -0.1202
     29  CA        14.5550   -0.9950  160.0790 C.3   424  SER424      0.2020
     30  C         14.3270   -1.9990  158.9710 C.2   424  SER424      0.2618
     31  O         13.6190   -1.7240  158.0100 O.2   424  SER424     -0.2717
     32  CB        15.8970   -0.3030  159.8650 C.3   424  SER424      0.2103
     33  OG        16.0430    0.7550  160.7890 O.3   424  SER424     -0.2182
     34  N         14.9350   -3.1660  159.1090 N.am  425  ILE425     -0.1979
     35  CA        14.7190   -4.2350  158.1520 C.3   425  ILE425      0.1595
     36  C         13.2420   -4.6710  158.1020 C.2   425  ILE425      0.2287
     37  O         12.6750   -4.8640  157.0300 O.2   425  ILE425     -0.2864
     38  CB        15.6360   -5.4290  158.4680 C.3   425  ILE425      0.0276
     39  CG1       17.0810   -5.0440  158.1560 C.3   425  ILE425      0.0022
     40  CG2       15.1920   -6.6690  157.6850 C.3   425  ILE425      0.0022
     41  CD1       18.1230   -5.8960  158.8410 C.3   425  ILE425      0.0001
     42  N         11.1290   -1.7630  156.6820 N.3   428  TYR428     -0.1241
     43  CA        11.3100   -1.5760  155.2510 C.3   428  TYR428      0.1605
     44  C         10.4650   -2.5990  154.5050 C.2   428  TYR428      0.2264
     45  O          9.7790   -2.2590  153.5410 O.2   428  TYR428     -0.2867
     46  CB        12.7670   -1.6900  154.7980 C.3   428  TYR428      0.0534
     47  CG        12.9490   -1.2000  153.3670 C.ar  428  TYR428     -0.0201
     48  CD1       12.6410   -2.0130  152.2770 C.ar  428  TYR428     -0.0009
     49  CD2       13.3880    0.0900  153.1080 C.ar  428  TYR428     -0.0009
     50  CE1       12.7930   -1.5550  150.9710 C.ar  428  TYR428      0.0417
     51  CE2       13.5530    0.5540  151.8160 C.ar  428  TYR428      0.0417
     52  CZ        13.2540   -0.2710  150.7500 C.ar  428  TYR428      0.1957
     53  OH        13.4110    0.2030  149.4640 O.3   428  TYR428     -0.2866
     54  N         14.6130  -10.4030  150.5330 N.3   484  PHE484     -0.1241
     55  CA        15.0660   -9.2300  151.2820 C.3   484  PHE484      0.1605
     56  C         15.4220   -9.5230  152.7450 C.2   484  PHE484      0.2264
     57  O         16.5120   -9.1850  153.2050 O.2   484  PHE484     -0.2867
     58  CB        13.9820   -8.1440  151.2000 C.3   484  PHE484      0.0534
     59  CG        14.3040   -6.8940  151.9690 C.ar  484  PHE484     -0.0203
     60  CD1       15.1200   -5.9180  151.4160 C.ar  484  PHE484     -0.0042
     61  CD2       13.7710   -6.6880  153.2450 C.ar  484  PHE484     -0.0042
     62  CE1       15.4240   -4.7570  152.1310 C.ar  484  PHE484     -0.0003
     63  CE2       14.0620   -5.5310  153.9610 C.ar  484  PHE484     -0.0003
     64  CZ        14.8900   -4.5630  153.4030 C.ar  484  PHE484     -0.0000
     65  N         19.1820   -9.1730  154.2110 N.3   488  GLN488     -0.1245
     66  CA        19.5330   -8.1260  155.1590 C.3   488  GLN488      0.1566
     67  C         19.9410   -8.6890  156.5260 C.2   488  GLN488      0.2260
     68  O         20.8490   -8.1650  157.1740 O.2   488  GLN488     -0.2867
     69  CB        18.3870   -7.1260  155.3180 C.3   488  GLN488      0.0367
     70  CG        17.9820   -6.4270  154.0330 C.3   488  GLN488      0.0905
     71  CD        19.0630   -5.5160  153.4850 C.2   488  GLN488      0.2608
     72  OE1       19.4920   -4.5660  154.1380 O.2   488  GLN488     -0.2717
     73  NE2       19.5030   -5.8010  152.2720 N.am  488  GLN488     -0.0878
     74  N         23.3120   -9.9710  156.7550 N.3   491  HIS491     -0.1241
     75  CA        24.2540   -8.8780  156.5520 C.3   491  HIS491      0.1621
     76  C         24.6360   -8.2130  157.8910 C.2   491  HIS491      0.2264
     77  O         25.5810   -7.4220  157.9600 O.2   491  HIS491     -0.2867
     78  CB        23.6260   -7.8560  155.5990 C.3   491  HIS491      0.0745
     79  CG        24.6150   -6.9850  154.8880 C.ar  491  HIS491      0.0817
     80  ND1       24.3920   -5.6430  154.6600 N.ar  491  HIS491     -0.2268
     81  CD2       25.8180   -7.2670  154.3300 C.ar  491  HIS491      0.1154
     82  CE1       25.4200   -5.1320  154.0050 C.ar  491  HIS491      0.1986
     83  NE2       26.2970   -6.0970  153.7900 N.ar  491  HIS491     -0.2212
     84  N         29.2310   -4.5300  156.2250 N.3   602  HIS602     -0.1226
     85  CA        28.0560   -5.1840  156.7770 C.3   602  HIS602      0.1752
     86  C         26.8980   -4.2030  156.8580 C.2   602  HIS602      0.2596
     87  O         27.0280   -3.0420  156.4420 O.2   602  HIS602     -0.2718
     88  CB        28.3580   -5.7900  158.1430 C.3   602  HIS602      0.0759
     89  CG        29.0490   -7.1110  158.0600 C.ar  602  HIS602      0.0818
     90  ND1       30.4140   -7.2480  158.1940 N.ar  602  HIS602     -0.2268
     91  CD2       28.5660   -8.3550  157.8310 C.ar  602  HIS602      0.1154
     92  CE1       30.7410   -8.5220  158.0660 C.ar  602  HIS602      0.1986
     93  NE2       29.6380   -9.2150  157.8460 N.ar  602  HIS602     -0.2212
     94  N         25.7680   -4.6760  157.3770 N.am  603  TYR603     -0.1962
     95  CA        24.5920   -3.8270  157.5300 C.3   603  TYR603      0.1771
     96  C         24.9630   -2.5470  158.2510 C.2   603  TYR603      0.2620
     97  O         25.5310   -2.5830  159.3350 O.2   603  TYR603     -0.2715
     98  CB        23.4840   -4.5430  158.3060 C.3   603  TYR603      0.0574
     99  CG        22.1730   -3.8000  158.2420 C.ar  603  TYR603     -0.0198
    100  CD1       21.8940   -2.7610  159.1210 C.ar  603  TYR603     -0.0009
    101  CD2       21.2260   -4.1150  157.2810 C.ar  603  TYR603     -0.0009
    102  CE1       20.7000   -2.0680  159.0530 C.ar  603  TYR603      0.0417
    103  CE2       20.0290   -3.4270  157.2040 C.ar  603  TYR603      0.0417
    104  CZ        19.7720   -2.4100  158.0940 C.ar  603  TYR603      0.1957
    105  OH        18.5890   -1.7270  158.0130 O.3   603  TYR603     -0.2866
    106  N         24.6520   -1.4160  157.6370 N.am  604  GLY604     -0.1940
    107  CA        24.9300   -0.1330  158.2490 C.3   604  GLY604      0.2014
    108  C         26.1010    0.5910  157.6230 C.2   604  GLY604      0.2638
    109  O         26.2470    1.8030  157.8000 O.2   604  GLY604     -0.2714
    110  N         26.9320   -0.1410  156.8800 N.am  605  GLU605     -0.1977
    111  CA        28.1650    0.4500  156.3590 C.3   605  GLU605      0.1602
    112  C         28.3790    0.3000  154.8510 C.2   605  GLU605      0.2287
    113  O         27.7040   -0.4690  154.1570 O.2   605  GLU605     -0.2864
    114  CB        29.4010   -0.0110  157.1580 C.3   605  GLU605      0.0415
    115  CG        29.6910   -1.5040  157.1020 C.3   605  GLU605      0.1163
    116  CD        30.5190   -1.9930  158.2840 C.2   605  GLU605      0.3649
    117  OE1       30.8410   -3.2020  158.3350 O.co2 605  GLU605     -0.2457
    118  OE2       30.8520   -1.1670  159.1620 O.co2 605  GLU605     -0.2457
@<TRIPOS>BOND
     1    53    52    1
     2    54    55    1
     3    52    50   ar
     4    52    51   ar
     5    50    48   ar
     6    58    55    1
     7    58    59    1
     8    55    56    1
     9    60    59   ar
    10    60    62   ar
    11    51    49   ar
    12    59    61   ar
    13    62    64   ar
    14    73    71   am
    15    48    47   ar
    16    56    57    2
    17    49    47   ar
    18    61    63   ar
    19    47    46    1
    20    64    63   ar
    21    71    70    1
    22    71    72    2
    23    45    44    2
    24    83    82   ar
    25    83    81   ar
    26    82    80   ar
    27    70    69    1
    28    20    17    1
    29   113   112    2
    30    65    66    1
    31    81    79   ar
    32     7     5    1
    33     6     5    1
    34    44    43    1
    35    80    79   ar
    36     5     2    1
    37    46    43    1
    38   112   111    1
    39    79    78    1
    40    66    69    1
    41    66    67    1
    42    43    42    1
    43    17    16    1
    44    17    18    1
    45    78    75    1
    46     4     3    2
    47    19    18    2
    48    16    10   am
    49     2     1    1
    50     2     3    1
    51    84    85    1
    52   111   110    1
    53   111   114    1
    54     3     8   am
    55    87    86    2
    56    67    68    2
    57    75    74    1
    58    75    76    1
    59    85    86    1
    60    85    88    1
    61    86    94   am
    62   110   108   am
    63    37    36    2
    64    10    11    2
    65    10     9    1
    66   115   114    1
    67   115   116    1
    68   103   101   ar
    69   103   104   ar
    70   101    99   ar
    71    94    95    1
    72     8     9    1
    73    95    96    1
    74    95    98    1
    75   108   109    2
    76   108   107    1
    77   106   107    1
    78   106    96   am
    79    40    38    1
    80     9    12    1
    81    91    93   ar
    82    91    89   ar
    83    93    92   ar
    84    76    77    2
    85    31    30    2
    86   105   104    1
    87    89    88    1
    88    89    90   ar
    89    92    90   ar
    90   104   102   ar
    91    36    35    1
    92    35    38    1
    93    35    34    1
    94    39    38    1
    95    39    41    1
    96    99    98    1
    97    99   100   ar
    98    96    97    2
    99   116   117   ar
   100   116   118   ar
   101    30    34   am
   102    30    29    1
   103   102   100   ar
   104    12    14    1
   105    12    13    1
   106    27    21    1
   107    27    26    1
   108    15    13    1
   109    32    29    1
   110    32    33    1
   111    21    22    1
   112    29    28    1
   113    26    25    1
   114    22    25    1
   115    22    23    1
   116    23    24    2
