@<TRIPOS>MOLECULE
tmp/4m0mA01.pdb
 106 98 0 0 0
SMALL
GASTEIGER

@<TRIPOS>ATOM
      1  N         27.5880   28.3630  144.0880 N.3   116  ILE116     -0.1245
      2  CA        28.8270   27.6420  143.8660 C.3   116  ILE116      0.1561
      3  C         29.7230   28.3310  142.8330 C.2   116  ILE116      0.2260
      4  O         30.9360   28.4560  143.0250 O.2   116  ILE116     -0.2867
      5  CB        28.5080   26.2100  143.4190 C.3   116  ILE116      0.0252
      6  CG1       27.8980   25.4300  144.5900 C.3   116  ILE116      0.0019
      7  CG2       29.7480   25.5400  142.8300 C.3   116  ILE116      0.0019
      8  CD1       27.2160   24.1550  144.1960 C.3   116  ILE116      0.0001
      9  N         33.5310   28.1690  142.0170 N.3   121  GLY121     -0.1210
     10  CA        33.4700   26.7280  141.8620 C.3   121  GLY121      0.1956
     11  C         33.7370   25.9250  143.1240 C.2   121  GLY121      0.2612
     12  O         34.1550   24.7700  143.0490 O.2   121  GLY121     -0.2717
     13  N         33.5040   26.5240  144.2870 N.am  122  LYS122     -0.1965
     14  CA        33.6870   25.8040  145.5480 C.3   122  LYS122      0.1728
     15  C         32.3380   25.5870  146.2340 C.2   122  LYS122      0.2616
     16  O         31.4920   26.4720  146.2310 O.2   122  LYS122     -0.2715
     17  CB        34.6610   26.5530  146.4590 C.3   122  LYS122      0.0311
     18  CG        35.9060   27.0200  145.6960 C.3   122  LYS122      0.0038
     19  CD        36.8910   25.9130  145.4470 C.3   122  LYS122      0.0206
     20  CE        38.2120   26.3750  144.8050 C.3   122  LYS122      0.1093
     21  NZ        38.9430   27.2920  145.7120 N.3   122  LYS122     -0.1314
     22  N         32.1390   24.3950  146.7880 N.am  123  LEU123     -0.1977
     23  CA        30.8810   24.0330  147.4440 C.3   123  LEU123      0.1596
     24  C         30.6940   24.7820  148.7630 C.2   123  LEU123      0.2287
     25  O         31.6750   25.0740  149.4490 O.2   123  LEU123     -0.2864
     26  CB        30.8500   22.5260  147.7380 C.3   123  LEU123      0.0297
     27  CG        30.8280   21.5250  146.5810 C.3   123  LEU123      0.0022
     28  CD1       30.8080   20.0920  147.1050 C.3   123  LEU123      0.0001
     29  CD2       29.6290   21.7740  145.7070 C.3   123  LEU123      0.0001
     30  N         25.1940   16.5640  144.5190 N.3   148  TYR148     -0.1241
     31  CA        26.3120   17.1460  145.2360 C.3   148  TYR148      0.1605
     32  C         26.5360   16.4370  146.5570 C.2   148  TYR148      0.2264
     33  O         26.3340   17.0410  147.6050 O.2   148  TYR148     -0.2867
     34  CB        25.9900   18.5970  145.5720 C.3   148  TYR148      0.0534
     35  CG        25.8260   19.5170  144.3960 C.ar  148  TYR148     -0.0201
     36  CD1       26.8990   19.8220  143.5740 C.ar  148  TYR148     -0.0009
     37  CD2       24.6130   20.1180  144.1330 C.ar  148  TYR148     -0.0009
     38  CE1       26.7570   20.6820  142.5110 C.ar  148  TYR148      0.0417
     39  CE2       24.4620   20.9810  143.0690 C.ar  148  TYR148      0.0417
     40  CZ        25.5390   21.2620  142.2630 C.ar  148  TYR148      0.1957
     41  OH        25.3900   22.1230  141.1970 O.3   148  TYR148     -0.2866
     42  N         28.8660   15.8150  148.5370 N.3   150  ASP150     -0.1239
     43  CA        29.7850   16.3550  149.5340 C.3   150  ASP150      0.1674
     44  C         29.2050   17.5060  150.3560 C.2   150  ASP150      0.2266
     45  O         29.8200   17.9320  151.3320 O.2   150  ASP150     -0.2867
     46  CB        31.1120   16.7690  148.8850 C.3   150  ASP150      0.1410
     47  CG        31.9240   15.5800  148.4330 C.2   150  ASP150      0.3668
     48  OD1       32.1880   14.6970  149.2700 O.co2 150  ASP150     -0.2456
     49  OD2       32.2710   15.5070  147.2380 O.co2 150  ASP150     -0.2456
     50  N         30.3000   10.5410  143.9160 N.3   614  ARG614     -0.1245
     51  CA        30.7890   11.8000  143.3580 C.3   614  ARG614      0.1563
     52  C         30.7550   11.8220  141.8360 C.2   614  ARG614      0.2260
     53  O         30.4080   12.8350  141.2350 O.2   614  ARG614     -0.2867
     54  CB        32.2110   12.0680  143.8080 C.3   614  ARG614      0.0307
     55  CG        32.3050   12.4780  145.2350 C.3   614  ARG614      0.0489
     56  CD        33.7480   12.5870  145.6670 C.3   614  ARG614      0.2205
     57  NE        33.8020   13.0370  147.0470 N.pl3 614  ARG614     -0.0865
     58  CZ        34.6960   12.6230  147.9340 C.cat 614  ARG614      0.5346
     59  NH1       34.6640   13.0940  149.1700 N.pl3 614  ARG614      0.1354
     60  NH2       35.6220   11.7390  147.5830 N.pl3 614  ARG614      0.1354
     61  N         24.6210   15.8010  136.6740 N.3   621  ARG621     -0.1245
     62  CA        24.4790   17.2330  136.4840 C.3   621  ARG621      0.1563
     63  C         24.7300   17.6460  135.0410 C.2   621  ARG621      0.2260
     64  O         23.9680   18.4320  134.4820 O.2   621  ARG621     -0.2867
     65  CB        25.3690   18.0070  137.4370 C.3   621  ARG621      0.0307
     66  CG        24.6400   18.3460  138.7160 C.3   621  ARG621      0.0489
     67  CD        25.5210   19.0840  139.6710 C.3   621  ARG621      0.2205
     68  NE        26.5560   18.2160  140.2030 N.pl3 621  ARG621     -0.0865
     69  CZ        27.8360   18.2760  139.8580 C.cat 621  ARG621      0.5346
     70  NH1       28.2430   19.1700  138.9660 N.pl3 621  ARG621      0.1354
     71  NH2       28.7040   17.4380  140.4120 N.pl3 621  ARG621      0.1354
     72  N         35.9280   20.0870  137.4400 N.3   692  GLU692     -0.1245
     73  CA        35.4610   19.4540  138.6720 C.3   692  GLU692      0.1567
     74  C         35.9940   18.0320  138.8250 C.2   692  GLU692      0.2260
     75  O         36.3270   17.6060  139.9300 O.2   692  GLU692     -0.2867
     76  CB        33.9280   19.4510  138.7090 C.3   692  GLU692      0.0388
     77  CG        33.3120   18.7450  139.9080 C.3   692  GLU692      0.1160
     78  CD        31.7830   18.6510  139.8310 C.2   692  GLU692      0.3649
     79  OE1       31.1650   19.4160  139.0570 O.co2 692  GLU692     -0.2457
     80  OE2       31.2020   17.7990  140.5390 O.co2 692  GLU692     -0.2457
     81  N         39.1530   17.6740  140.5530 N.3   695  LYS695     -0.1231
     82  CA        38.9810   17.8930  141.9850 C.3   695  LYS695      0.1693
     83  C         38.4860   16.6320  142.6750 C.2   695  LYS695      0.2591
     84  O         38.9620   16.2830  143.7580 O.2   695  LYS695     -0.2718
     85  CB        38.0050   19.0390  142.2490 C.3   695  LYS695      0.0285
     86  CG        38.5440   20.4210  141.9230 C.3   695  LYS695      0.0035
     87  CD        37.4700   21.4810  142.1500 C.3   695  LYS695      0.0206
     88  CE        37.9470   22.8700  141.7440 C.3   695  LYS695      0.1093
     89  NZ        36.8560   23.8840  141.8300 N.3   695  LYS695     -0.1314
     90  N         37.5200   15.9610  142.0500 N.am  696  ILE696     -0.1980
     91  CA        36.9850   14.7070  142.5710 C.3   696  ILE696      0.1595
     92  C         38.1000   13.6830  142.7860 C.2   696  ILE696      0.2287
     93  O         38.1890   13.0470  143.8320 O.2   696  ILE696     -0.2864
     94  CB        35.9240   14.1300  141.6230 C.3   696  ILE696      0.0276
     95  CG1       34.6380   14.9490  141.7210 C.3   696  ILE696      0.0022
     96  CG2       35.6330   12.6740  141.9420 C.3   696  ILE696      0.0022
     97  CD1       33.5930   14.5480  140.7060 C.3   696  ILE696      0.0001
     98  N         40.7190   14.8140  145.4470 N.3   699  LYS699     -0.1245
     99  CA        40.1260   14.7300  146.7830 C.3   699  LYS699      0.1561
    100  C         40.0130   13.2850  147.2360 C.2   699  LYS699      0.2260
    101  O         40.3830   12.9520  148.3550 O.2   699  LYS699     -0.2867
    102  CB        38.7520   15.3950  146.8220 C.3   699  LYS699      0.0271
    103  CG        38.0350   15.2720  148.1630 C.3   699  LYS699      0.0035
    104  CD        38.7700   16.0220  149.2740 C.3   699  LYS699      0.0206
    105  CE        38.0140   15.9090  150.5920 C.3   699  LYS699      0.1093
    106  NZ        38.6780   16.6320  151.7120 N.3   699  LYS699     -0.1314
@<TRIPOS>BOND
     1    64    63    2
     2    63    62    1
     3    62    61    1
     4    62    65    1
     5    65    66    1
     6    72    73    1
     7    73    76    1
     8    73    74    1
     9    76    77    1
    10    66    67    1
    11    74    75    2
    12    70    69    1
    13    79    78   ar
    14    67    68    1
    15    78    77    1
    16    78    80   ar
    17    69    68    2
    18    69    71    1
    19    81    82    1
    20    97    95    1
    21    41    40    1
    22    53    52    2
    23    94    95    1
    24    94    96    1
    25    94    91    1
    26    88    89    1
    27    88    87    1
    28    52    51    1
    29    10     9    1
    30    10    11    1
    31    86    87    1
    32    86    85    1
    33    82    85    1
    34    82    83    1
    35    90    91    1
    36    90    83   am
    37    40    38   ar
    38    40    39   ar
    39    38    36   ar
    40    91    92    1
    41    83    84    2
    42    92    93    2
    43     7     5    1
    44     3     4    2
    45     3     2    1
    46    12    11    2
    47    39    37   ar
    48    11    13   am
    49    51    54    1
    50    51    50    1
    51     5     2    1
    52     5     6    1
    53    36    35   ar
    54    54    55    1
    55     2     1    1
    56    37    35   ar
    57     8     6    1
    58    13    14    1
    59    35    34    1
    60    30    31    1
    61    20    19    1
    62    20    21    1
    63    55    56    1
    64    31    34    1
    65    31    32    1
    66    98    99    1
    67    19    18    1
    68    14    15    1
    69    14    17    1
    70    56    57    1
    71    18    17    1
    72    29    27    1
    73    16    15    2
    74    15    22   am
    75    32    33    2
    76    27    28    1
    77    27    26    1
    78    99   102    1
    79    99   100    1
    80    22    23    1
    81   102   103    1
    82    57    58    2
    83   100   101    2
    84    49    47   ar
    85    23    26    1
    86    23    24    1
    87    60    58    1
    88    58    59    1
    89   103   104    1
    90    47    46    1
    91    47    48   ar
    92    42    43    1
    93    24    25    2
    94    46    43    1
    95   104   105    1
    96    43    44    1
    97    44    45    2
    98   105   106    1
