@<TRIPOS>MOLECULE
tmp/4m0rA00.pdb
 153 149 0 0 0
SMALL
GASTEIGER

@<TRIPOS>ATOM
      1  N         -6.9150   29.8570  -10.6500 N.3    62  MET62      -0.1245
      2  CA        -8.2150   30.5090  -10.7740 C.3    62  MET62       0.1570
      3  C         -8.7650   30.9580   -9.4160 C.2    62  MET62       0.2261
      4  O         -9.2310   32.0990   -9.2640 O.2    62  MET62      -0.2867
      5  CB        -9.2030   29.5880  -11.4760 C.3    62  MET62       0.0387
      6  CG       -10.6110   30.1520  -11.5230 C.3    62  MET62       0.0595
      7  SD       -11.5520   29.2790  -12.7700 S.3    62  MET62      -0.1393
      8  CE       -13.1700   30.0570  -12.5650 C.3    62  MET62       0.0692
      9  N        -23.2600   19.3790   -7.2940 N.3    82  VAL82      -0.1245
     10  CA       -23.2180   19.8940   -8.6520 C.3    82  VAL82       0.1561
     11  C        -22.6400   18.8750   -9.6310 C.2    82  VAL82       0.2260
     12  O        -21.8900   17.9850   -9.2450 O.2    82  VAL82      -0.2867
     13  CB       -22.4020   21.2080   -8.6970 C.3    82  VAL82       0.0252
     14  CG1      -20.9240   20.9220   -8.5240 C.3    82  VAL82       0.0019
     15  CG2      -22.6920   21.9830   -9.9740 C.3    82  VAL82       0.0019
     16  N        -20.7050   18.5060  -13.6230 N.3    84  THR84      -0.1218
     17  CA       -19.8950   19.2650  -14.5780 C.3    84  THR84       0.1862
     18  C        -20.5370   19.4030  -15.9670 C.2    84  THR84       0.2287
     19  O        -20.0110   20.1120  -16.8180 O.2    84  THR84      -0.2866
     20  CB       -18.5010   18.6340  -14.7710 C.3    84  THR84       0.1770
     21  OG1      -18.6480   17.2910  -15.2380 O.3    84  THR84      -0.2211
     22  CG2      -17.7350   18.6190  -13.4660 C.3    84  THR84       0.0375
     23  N        -22.5210   27.3170   -6.7110 N.3   109  HIS109     -0.1226
     24  CA       -21.6890   28.1600   -7.5440 C.3   109  HIS109      0.1756
     25  C        -22.1960   27.9670   -8.9660 C.2   109  HIS109      0.2636
     26  O        -22.2790   26.8430   -9.4410 O.2   109  HIS109     -0.2714
     27  CB       -20.2430   27.6610   -7.4160 C.3   109  HIS109      0.0759
     28  CG       -19.2580   28.3970   -8.2620 C.ar  109  HIS109      0.0818
     29  ND1      -18.1520   27.7810   -8.8140 N.ar  109  HIS109     -0.2268
     30  CD2      -19.1930   29.6950   -8.6330 C.ar  109  HIS109      0.1154
     31  CE1      -17.4540   28.6690   -9.4990 C.ar  109  HIS109      0.1986
     32  NE2      -18.0640   29.8380   -9.4060 N.ar  109  HIS109     -0.2212
     33  N        -22.5590   29.0430   -9.6450 N.am  110  GLY110     -0.1718
     34  CA       -23.0500   28.8980  -11.0070 C.2   110  GLY110      0.1480
     35  C        -23.3120   30.1820  -11.7670 C.2   110  GLY110      0.2820
     36  O        -23.1160   31.2930  -11.2670 O.2   110  GLY110     -0.2669
     37  N        -23.7750   30.0190  -12.9980 N.am  111  ASN111     -0.1937
     38  CA       -23.9820   31.1520  -13.8790 C.3   111  ASN111      0.1691
     39  C        -25.2860   30.9880  -14.6500 C.2   111  ASN111      0.2292
     40  O        -25.8580   29.8960  -14.6950 O.2   111  ASN111     -0.2864
     41  CB       -22.8050   31.2420  -14.8500 C.3   111  ASN111      0.1181
     42  CG       -22.7060   32.5830  -15.5480 C.2   111  ASN111      0.2629
     43  OD1      -23.5280   33.4790  -15.3500 O.2   111  ASN111     -0.2716
     44  ND2      -21.6760   32.7310  -16.3650 N.am  111  ASN111     -0.0877
     45  N        -21.1990   33.1120  -10.3610 N.3   152  ALA152     -0.1231
     46  CA       -19.8220   32.9730  -10.8820 C.3   152  ALA152      0.1679
     47  C        -19.1450   34.2660  -11.3980 C.2   152  ALA152      0.2434
     48  O        -18.0440   34.6030  -10.9480 O.2   152  ALA152     -0.2733
     49  CB       -19.7400   31.8420  -11.9200 C.3   152  ALA152      0.0304
     50  N        -19.8090   35.0130  -12.3020 N.am  153  PRO153     -0.2729
     51  CA       -19.2100   36.2550  -12.8170 C.3   153  PRO153      0.1401
     52  C        -18.8680   37.2880  -11.7510 C.2   153  PRO153      0.2269
     53  O        -17.9200   38.0480  -11.9330 O.2   153  PRO153     -0.2865
     54  CB       -20.3100   36.8200  -13.7200 C.3   153  PRO153      0.0296
     55  CG       -21.0610   35.6310  -14.1680 C.3   153  PRO153      0.0237
     56  CD       -21.0900   34.7220  -12.9690 C.3   153  PRO153      0.0939
     57  N        -15.7170   35.5710   -9.8630 N.3   156  HIS156     -0.1227
     58  CA       -14.5730   35.3150  -10.7300 C.3   156  HIS156      0.1737
     59  C        -14.4940   36.3020  -11.8870 C.2   156  HIS156      0.2438
     60  O        -14.4870   35.8750  -13.0310 O.2   156  HIS156     -0.2733
     61  CB       -14.6840   33.9180  -11.3490 C.3   156  HIS156      0.0758
     62  CG       -14.6540   32.8080  -10.3540 C.ar  156  HIS156      0.0818
     63  ND1      -13.4900   32.3750   -9.7570 N.ar  156  HIS156     -0.2268
     64  CD2      -15.6460   32.0350   -9.8500 C.ar  156  HIS156      0.1154
     65  CE1      -13.7630   31.3820   -8.9330 C.ar  156  HIS156      0.1986
     66  NE2      -15.0660   31.1610   -8.9660 N.ar  156  HIS156     -0.2212
     67  N        -14.4080   37.6120  -11.6040 N.am  157  PRO157     -0.2729
     68  CA       -14.3980   38.5750  -12.7160 C.3   157  PRO157      0.1401
     69  C        -13.2160   38.3930  -13.6830 C.2   157  PRO157      0.2269
     70  O        -13.3420   38.6630  -14.8910 O.2   157  PRO157     -0.2865
     71  CB       -14.3140   39.9390  -12.0040 C.3   157  PRO157      0.0296
     72  CG       -13.6920   39.6380  -10.6600 C.3   157  PRO157      0.0237
     73  CD       -14.1870   38.2590  -10.2940 C.3   157  PRO157      0.0939
     74  N        -11.9430   35.7460  -14.8010 N.3   159  TYR159     -0.1227
     75  CA       -12.1360   34.6110  -15.6980 C.3   159  TYR159      0.1736
     76  C        -12.8730   35.0070  -16.9900 C.2   159  TYR159      0.2595
     77  O        -13.2160   34.1560  -17.8100 O.2   159  TYR159     -0.2718
     78  CB       -12.9260   33.5410  -14.9480 C.3   159  TYR159      0.0548
     79  CG       -13.0690   32.1950  -15.6270 C.ar  159  TYR159     -0.0200
     80  CD1      -11.9850   31.3390  -15.7570 C.ar  159  TYR159     -0.0009
     81  CD2      -14.3110   31.7600  -16.0810 C.ar  159  TYR159     -0.0009
     82  CE1      -12.1380   30.0880  -16.3430 C.ar  159  TYR159      0.0417
     83  CE2      -14.4690   30.5230  -16.6730 C.ar  159  TYR159      0.0417
     84  CZ       -13.3810   29.6890  -16.7970 C.ar  159  TYR159      0.1957
     85  OH       -13.5460   28.4560  -17.3920 O.3   159  TYR159     -0.2866
     86  N        -13.1110   36.2980  -17.1830 N.am  160  ARG160     -0.1980
     87  CA       -13.9690   36.7320  -18.2890 C.3   160  ARG160      0.1597
     88  C        -13.4350   36.3920  -19.6930 C.2   160  ARG160      0.2287
     89  O        -14.2120   36.0940  -20.6070 O.2   160  ARG160     -0.2864
     90  CB       -14.3070   38.2300  -18.1770 C.3   160  ARG160      0.0334
     91  CG       -13.0950   39.1450  -18.1610 C.3   160  ARG160      0.0492
     92  CD       -13.4940   40.6160  -17.9950 C.3   160  ARG160      0.2205
     93  NE       -12.3070   41.4650  -17.9160 N.pl3 160  ARG160     -0.0865
     94  CZ       -11.6290   41.7040  -16.7960 C.cat 160  ARG160      0.5346
     95  NH1      -12.0280   41.1720  -15.6460 N.pl3 160  ARG160      0.1354
     96  NH2      -10.5550   42.4850  -16.8200 N.pl3 160  ARG160      0.1354
     97  N        -13.9880   32.6820  -20.2690 N.3   163  ALA163     -0.1245
     98  CA       -15.4100   32.3900  -20.4410 C.3   163  ALA163      0.1562
     99  C        -15.8660   32.7600  -21.8390 C.2   163  ALA163      0.2260
    100  O        -16.6110   32.0100  -22.4650 O.2   163  ALA163     -0.2867
    101  CB       -16.2660   33.1120  -19.3850 C.3   163  ALA163      0.0290
    102  N        -14.5900   30.1930  -24.3220 N.3   166  ARG166     -0.1231
    103  CA       -15.3020   28.9260  -24.1860 C.3   166  ARG166      0.1694
    104  C        -16.6590   28.9710  -24.8930 C.2   166  ARG166      0.2591
    105  O        -17.1160   27.9680  -25.4520 O.2   166  ARG166     -0.2718
    106  CB       -15.4730   28.5610  -22.7060 C.3   166  ARG166      0.0321
    107  CG       -14.1700   28.1160  -22.0290 C.3   166  ARG166      0.0489
    108  CD       -14.4000   27.8490  -20.5570 C.3   166  ARG166      0.2205
    109  NE       -15.4690   26.8750  -20.3730 N.pl3 166  ARG166     -0.0865
    110  CZ       -16.2980   26.8540  -19.3400 C.cat 166  ARG166      0.5346
    111  NH1      -16.1750   27.7460  -18.3650 N.pl3 166  ARG166      0.1354
    112  NH2      -17.2400   25.9270  -19.2760 N.pl3 166  ARG166      0.1354
    113  N        -17.2990   30.1340  -24.8710 N.am  167  ARG167     -0.1980
    114  CA       -18.5720   30.2970  -25.5710 C.3   167  ARG167      0.1597
    115  C        -18.3520   30.3650  -27.0760 C.2   167  ARG167      0.2287
    116  O        -19.1810   29.8940  -27.8630 O.2   167  ARG167     -0.2864
    117  CB       -19.3010   31.5540  -25.0870 C.3   167  ARG167      0.0334
    118  CG       -19.7440   31.4650  -23.6150 C.3   167  ARG167      0.0492
    119  CD       -20.6790   32.6130  -23.2510 C.3   167  ARG167      0.2205
    120  NE       -20.0830   33.9140  -23.5490 N.pl3 167  ARG167     -0.0865
    121  CZ       -19.4620   34.6780  -22.6500 C.cat 167  ARG167      0.5346
    122  NH1      -19.3660   34.2770  -21.3870 N.pl3 167  ARG167      0.1354
    123  NH2      -18.9470   35.8480  -23.0100 N.pl3 167  ARG167      0.1354
    124  N        -11.7360   23.0280  -19.2250 N.3   175  PHE175     -0.1227
    125  CA       -12.2750   24.1740  -18.4930 C.3   175  PHE175      0.1736
    126  C        -13.6630   23.9190  -17.8930 C.2   175  PHE175      0.2595
    127  O        -14.0260   24.5350  -16.8990 O.2   175  PHE175     -0.2718
    128  CB       -12.2470   25.4500  -19.3410 C.3   175  PHE175      0.0547
    129  CG       -10.8830   26.0850  -19.4190 C.ar  175  PHE175     -0.0202
    130  CD1       -9.8680   25.4900  -20.1540 C.ar  175  PHE175     -0.0042
    131  CD2      -10.6040   27.2590  -18.7350 C.ar  175  PHE175     -0.0042
    132  CE1       -8.5930   26.0620  -20.2170 C.ar  175  PHE175     -0.0003
    133  CE2       -9.3360   27.8410  -18.7990 C.ar  175  PHE175     -0.0003
    134  CZ        -8.3330   27.2360  -19.5470 C.ar  175  PHE175     -0.0000
    135  N        -14.4160   22.9920  -18.4850 N.am  176  ASN176     -0.1974
    136  CA       -15.7080   22.5850  -17.9280 C.3   176  ASN176      0.1688
    137  C        -15.5850   21.9590  -16.5260 C.2   176  ASN176      0.2292
    138  O        -16.5720   21.8980  -15.7800 O.2   176  ASN176     -0.2864
    139  CB       -16.4330   21.6400  -18.8960 C.3   176  ASN176      0.1181
    140  CG       -16.9020   22.3480  -20.1610 C.2   176  ASN176      0.2629
    141  OD1      -16.0970   22.8660  -20.9380 O.2   176  ASN176     -0.2716
    142  ND2      -18.2100   22.3730  -20.3720 N.am  176  ASN176     -0.0877
    143  N        -15.5800   24.6790  -12.6950 N.3   179  GLY179     -0.1210
    144  CA       -16.7040   25.1860  -11.9070 C.3   179  GLY179      0.1940
    145  C        -16.8240   24.6090  -10.5090 C.2   179  GLY179      0.2453
    146  O        -16.8070   25.3450   -9.5190 O.2   179  GLY179     -0.2732
    147  N        -16.9540   23.2780  -10.4110 N.am  180  PRO180     -0.2728
    148  CA       -16.9980   22.6290   -9.0960 C.3   180  PRO180      0.1401
    149  C        -15.6730   22.6840   -8.3690 C.2   180  PRO180      0.2269
    150  O        -15.6200   22.5400   -7.1450 O.2   180  PRO180     -0.2865
    151  CB       -17.3630   21.1730   -9.4250 C.3   180  PRO180      0.0296
    152  CG       -17.2250   21.0430  -10.8880 C.3   180  PRO180      0.0237
    153  CD       -17.4190   22.3870  -11.4800 C.3   180  PRO180      0.0939
@<TRIPOS>BOND
     1   116   115    2
     2   115   114    1
     3   114   117    1
     4   114   113    1
     5   105   104    2
     6   117   118    1
     7   104   113   am
     8   104   103    1
     9   102   103    1
    10   103   106    1
    11   118   119    1
    12   120   119    1
    13   120   121    2
    14   123   121    1
    15   106   107    1
    16   121   122    1
    17   100    99    2
    18   107   108    1
    19    99    98    1
    20   141   140    2
    21    89    88    2
    22   108   109    1
    23    98    97    1
    24    98   101    1
    25   109   110    2
    26   142   140   am
    27   132   130   ar
    28   132   134   ar
    29   140   139    1
    30   130   129   ar
    31    88    87    1
    32   134   133   ar
    33   129   128    1
    34   129   131   ar
    35   128   125    1
    36   110   112    1
    37   110   111    1
    38   124   125    1
    39   139   136    1
    40   133   131   ar
    41   125   126    1
    42   135   136    1
    43   135   126   am
    44    87    90    1
    45    87    86    1
    46    90    91    1
    47    91    92    1
    48    92    93    1
    49   136   137    1
    50    93    94    2
    51   126   127    2
    52    77    76    2
    53    85    84    1
    54    86    76   am
    55    76    75    1
    56    96    94    1
    57    19    18    2
    58    84    83   ar
    59    84    82   ar
    60    94    95    1
    61    83    81   ar
    62   137   138    2
    63    44    42   am
    64    82    80   ar
    65    81    79   ar
    66    18    17    1
    67    80    79   ar
    68    75    78    1
    69    75    74    1
    70    79    78    1
    71    42    43    2
    72    42    41    1
    73    21    20    1
    74    70    69    2
    75    41    38    1
    76    20    17    1
    77    20    22    1
    78    40    39    2
    79    39    38    1
    80    17    16    1
    81    55    54    1
    82    55    56    1
    83    38    37    1
    84    54    51    1
    85    69    68    1
    86    60    59    2
    87    37    35   am
    88    56    50    1
    89    51    50    1
    90    51    52    1
    91     7     8    1
    92     7     6    1
    93    68    71    1
    94    68    67    1
    95   143   144    1
    96    50    47   am
    97    71    72    1
    98    53    52    2
    99    49    46    1
   100   144   145    1
   101    59    67   am
   102    59    58    1
   103    35    36    2
   104    35    34    1
   105    67    73    1
   106     6     5    1
   107   153   152    1
   108   153   147    1
   109     5     2    1
   110    47    48    2
   111    47    46    1
   112    61    58    1
   113    61    62    1
   114    34    33    2
   115   152   151    1
   116    46    45    1
   117     2     1    1
   118     2     3    1
   119    58    57    1
   120    72    73    1
   121   145   147   am
   122   145   146    2
   123   147   148    1
   124    62    64   ar
   125    62    63   ar
   126    15    13    1
   127    64    66   ar
   128    63    65   ar
   129    33    25    1
   130    11    12    2
   131    11    10    1
   132    31    32   ar
   133    31    29   ar
   134    26    25    2
   135   151   148    1
   136     3     4    2
   137    32    30   ar
   138   148   149    1
   139    25    24    1
   140    66    65   ar
   141    29    28   ar
   142    13    10    1
   143    13    14    1
   144    10     9    1
   145    30    28   ar
   146   149   150    2
   147    28    27    1
   148    24    27    1
   149    24    23    1
