@<TRIPOS>MOLECULE
tmp/4m0yA01.pdb
 158 153 0 0 0
SMALL
GASTEIGER

@<TRIPOS>ATOM
      1  N         -5.7370   18.2330   11.2440 N.3    48  PHE48      -0.1241
      2  CA        -5.7570   16.9920   12.0160 C.3    48  PHE48       0.1605
      3  C         -7.1020   16.8040   12.7440 C.2    48  PHE48       0.2264
      4  O         -7.7690   15.7900   12.5390 O.2    48  PHE48      -0.2867
      5  CB        -4.5630   16.9690   12.9890 C.3    48  PHE48       0.0534
      6  CG        -4.4510   15.6920   13.7850 C.ar   48  PHE48      -0.0203
      7  CD1       -3.8830   14.5530   13.2260 C.ar   48  PHE48      -0.0042
      8  CD2       -4.9070   15.6310   15.0960 C.ar   48  PHE48      -0.0042
      9  CE1       -3.7960   13.3670   13.9650 C.ar   48  PHE48      -0.0003
     10  CE2       -4.8120   14.4490   15.8300 C.ar   48  PHE48      -0.0003
     11  CZ        -4.2760   13.3210   15.2540 C.ar   48  PHE48      -0.0000
     12  N        -10.2500   15.7390   10.6920 N.3    51  GLU51      -0.1231
     13  CA       -10.3530   14.3540   10.2440 C.3    51  GLU51       0.1699
     14  C        -10.6020   13.3430   11.3550 C.2    51  GLU51       0.2592
     15  O        -10.7710   12.1550   11.0560 O.2    51  GLU51      -0.2718
     16  CB        -9.1200   13.9610    9.4190 C.3    51  GLU51       0.0402
     17  CG        -9.1170   14.5880    8.0290 C.3    51  GLU51       0.1161
     18  CD        -8.3520   13.8330    6.9590 C.2    51  GLU51       0.3649
     19  OE1       -7.3640   13.1440    7.3000 O.co2  51  GLU51      -0.2457
     20  OE2       -8.7400   13.9380    5.7730 O.co2  51  GLU51      -0.2457
     21  N        -10.6430   13.8030   12.6270 N.am   52  ALA52      -0.1980
     22  CA       -10.8420   12.9140   13.7810 C.3    52  ALA52       0.1597
     23  C        -12.1400   12.1080   13.7190 C.2    52  ALA52       0.2287
     24  O        -12.0910   10.9030   13.9510 O.2    52  ALA52      -0.2864
     25  CB       -10.7470   13.6920   15.0850 C.3    52  ALA52       0.0319
     26  N        -11.2980    9.1650   11.1970 N.3    55  MET55      -0.1230
     27  CA       -10.0790    8.4260   11.5550 C.3    55  MET55       0.1702
     28  C        -10.0870    7.7670   12.9300 C.2    55  MET55       0.2592
     29  O         -9.4770    6.7130   13.0870 O.2    55  MET55      -0.2718
     30  CB        -8.8240    9.2770   11.3400 C.3    55  MET55       0.0401
     31  CG        -8.5910    9.6520    9.8770 C.3    55  MET55       0.0596
     32  SD        -8.3980    8.2150    8.7760 S.3    55  MET55      -0.1393
     33  CE        -6.7170    7.9590    8.9250 C.3    55  MET55       0.0692
     34  N        -10.7770    8.3660   13.9180 N.am   56  MET56      -0.1979
     35  CA       -10.8280    7.8130   15.2790 C.3    56  MET56       0.1605
     36  C        -11.5870    6.4950   15.3860 C.2    56  MET56       0.2287
     37  O        -11.4080    5.7680   16.3690 O.2    56  MET56      -0.2864
     38  CB       -11.3770    8.8370   16.2730 C.3    56  MET56       0.0413
     39  CG       -10.4430    9.9850   16.5170 C.3    56  MET56       0.0598
     40  SD        -8.9130    9.4260   17.2670 S.3    56  MET56      -0.1393
     41  CE        -9.3120    9.6200   18.9300 C.3    56  MET56       0.0692
     42  N        -11.1190    3.9610   13.3330 N.3    58  LEU58      -0.1245
     43  CA       -10.2010    2.8600   12.9720 C.3    58  LEU58       0.1561
     44  C         -9.7490    2.1350   14.2390 C.2    58  LEU58       0.2260
     45  O         -9.2740    2.7740   15.1810 O.2    58  LEU58      -0.2867
     46  CB        -8.9790    3.3340   12.1510 C.3    58  LEU58       0.0270
     47  CG        -9.2390    3.9610   10.7700 C.3    58  LEU58       0.0019
     48  CD1       -8.0480    4.7590   10.3150 C.3    58  LEU58       0.0001
     49  CD2       -9.5590    2.9110    9.7320 C.3    58  LEU58       0.0001
     50  N         -3.0600   -2.4610   15.6730 N.3    63  LEU63      -0.1231
     51  CA        -2.8620   -1.0210   15.4950 C.3    63  LEU63       0.1693
     52  C         -2.8480   -0.3820   16.8800 C.2    63  LEU63       0.2592
     53  O         -3.7070   -0.7120   17.7070 O.2    63  LEU63      -0.2718
     54  CB        -3.9940   -0.3650   14.6890 C.3    63  LEU63       0.0284
     55  CG        -4.1830   -0.7330   13.2090 C.3    63  LEU63       0.0019
     56  CD1       -5.2420    0.1460   12.5920 C.3    63  LEU63       0.0001
     57  CD2       -2.8870   -0.6470   12.4060 C.3    63  LEU63       0.0001
     58  N         -1.9030    0.5390   17.1270 N.am   64  VAL64      -0.1966
     59  CA        -1.8400    1.2830   18.3940 C.3    64  VAL64       0.1727
     60  C         -3.0540    2.2360   18.4110 C.2    64  VAL64       0.2616
     61  O         -3.2300    3.0270   17.4810 O.2    64  VAL64      -0.2715
     62  CB        -0.4880    2.0470   18.5710 C.3    64  VAL64       0.0290
     63  CG1       -0.5100    2.9520   19.8120 C.3    64  VAL64       0.0023
     64  CG2        0.6990    1.0830   18.6260 C.3    64  VAL64       0.0023
     65  N         -3.9170    2.1280   19.4400 N.am   65  GLN65      -0.1963
     66  CA        -5.1000    2.9840   19.5050 C.3    65  GLN65       0.1733
     67  C         -4.7380    4.4010   19.9530 C.2    65  GLN65       0.2616
     68  O         -4.0380    4.5700   20.9680 O.2    65  GLN65      -0.2715
     69  CB        -6.1410    2.3890   20.4780 C.3    65  GLN65       0.0408
     70  CG        -7.5150    3.0790   20.4410 C.3    65  GLN65       0.0908
     71  CD        -8.3060    2.7680   19.1920 C.2    65  GLN65       0.2608
     72  OE1       -8.7370    1.6310   18.9680 O.2    65  GLN65      -0.2717
     73  NE2       -8.5380    3.7780   18.3620 N.am   65  GLN65      -0.0878
     74  N         -5.1920    5.4010   19.1690 N.am   66  LEU66      -0.1977
     75  CA        -5.1300    6.8110   19.5370 C.3    66  LEU66       0.1596
     76  C         -6.4710    7.0550   20.2600 C.2    66  LEU66       0.2287
     77  O         -7.5440    6.9210   19.6530 O.2    66  LEU66      -0.2864
     78  CB        -4.9660    7.7430   18.3280 C.3    66  LEU66       0.0297
     79  CG        -5.0490    9.2770   18.6450 C.3    66  LEU66       0.0022
     80  CD1       -3.9110    9.7460   19.5830 C.3    66  LEU66       0.0001
     81  CD2       -5.0510   10.0950   17.3840 C.3    66  LEU66       0.0001
     82  N         -7.3290   13.6430   21.8580 N.3    69  VAL69      -0.1245
     83  CA        -6.4550   14.8090   21.8040 C.3    69  VAL69       0.1561
     84  C         -6.7860   15.7890   22.9400 C.2    69  VAL69       0.2260
     85  O         -7.9590   16.0780   23.1820 O.2    69  VAL69      -0.2867
     86  CB        -6.5870   15.4930   20.4100 C.3    69  VAL69       0.0252
     87  CG1       -5.6820   16.7170   20.2950 C.3    69  VAL69       0.0019
     88  CG2       -6.3050   14.5050   19.2630 C.3    69  VAL69       0.0019
     89  N         -2.3430    7.9670   23.6490 N.3    80  PHE80      -0.1241
     90  CA        -2.3000    6.6450   23.0390 C.3    80  PHE80       0.1605
     91  C         -2.3270    5.5180   24.0510 C.2    80  PHE80       0.2264
     92  O         -1.9140    5.6760   25.2160 O.2    80  PHE80      -0.2867
     93  CB        -0.9760    6.4790   22.2550 C.3    80  PHE80       0.0534
     94  CG        -0.7110    7.4320   21.1180 C.ar   80  PHE80      -0.0203
     95  CD1       -1.0150    7.0770   19.8120 C.ar   80  PHE80      -0.0042
     96  CD2       -0.1080    8.6670   21.3480 C.ar   80  PHE80      -0.0042
     97  CE1       -0.7360    7.9460   18.7500 C.ar   80  PHE80      -0.0003
     98  CE2        0.1470    9.5460   20.2910 C.ar   80  PHE80      -0.0003
     99  CZ        -0.1630    9.1780   18.9950 C.ar   80  PHE80      -0.0000
    100  N          1.8500    2.1240   14.2780 N.3   144  SER144     -0.1202
    101  CA         1.4240    3.4290   14.7790 C.3   144  SER144      0.2020
    102  C          1.8170    4.5510   13.7910 C.2   144  SER144      0.2619
    103  O          2.6040    4.3210   12.8630 O.2   144  SER144     -0.2717
    104  CB         2.0400    3.6770   16.1560 C.3   144  SER144      0.2103
    105  OG         1.5690    4.8960   16.7180 O.3   144  SER144     -0.2182
    106  N          1.2450    5.7600   13.9810 N.am  145  ASP145     -0.1959
    107  CA         1.5550    6.9560   13.1780 C.3   145  ASP145      0.1840
    108  C          1.1440    6.9350   11.6970 C.2   145  ASP145      0.2622
    109  O          1.6550    7.7390   10.9040 O.2   145  ASP145     -0.2715
    110  CB         3.0330    7.3630   13.3290 C.3   145  ASP145      0.1450
    111  CG         3.4210    7.8820   14.7000 C.2   145  ASP145      0.3671
    112  OD1        2.8030    7.4470   15.7030 O.co2 145  ASP145     -0.2456
    113  OD2        4.3810    8.6710   14.7790 O.co2 145  ASP145     -0.2456
    114  N          0.2310    6.0320   11.3130 N.am  146  PHE146     -0.1960
    115  CA        -0.2590    5.9490    9.9320 C.3   146  PHE146      0.1771
    116  C         -0.9240    7.2560    9.5150 C.2   146  PHE146      0.2620
    117  O         -1.7250    7.7970   10.2740 O.2   146  PHE146     -0.2715
    118  CB        -1.2300    4.7570    9.7400 C.3   146  PHE146      0.0574
    119  CG        -2.1500    4.4620   10.9050 C.ar  146  PHE146     -0.0200
    120  CD1       -3.4360    4.9910   10.9500 C.ar  146  PHE146     -0.0042
    121  CD2       -1.7430    3.6300   11.9390 C.ar  146  PHE146     -0.0042
    122  CE1       -4.3020    4.6850   12.0150 C.ar  146  PHE146     -0.0003
    123  CE2       -2.6090    3.3240   12.9980 C.ar  146  PHE146     -0.0003
    124  CZ        -3.8850    3.8390   13.0160 C.ar  146  PHE146     -0.0000
    125  N         -0.5180    7.7840    8.3570 N.am  147  GLY147     -0.1940
    126  CA        -1.0590    9.0230    7.7970 C.3   147  GLY147      0.2014
    127  C         -0.5720   10.3150    8.4350 C.2   147  GLY147      0.2638
    128  O         -0.9570   11.4010    7.9820 O.2   147  GLY147     -0.2714
    129  N          0.2830   10.2260    9.4910 N.am  148  MET148     -0.1976
    130  CA         0.7380   11.4260   10.1910 C.3   148  MET148      0.1605
    131  C          1.5640   12.3900    9.3530 C.2   148  MET148      0.2287
    132  O          1.4890   13.6060    9.6020 O.2   148  MET148     -0.2864
    133  CB         1.3990   11.0990   11.5410 C.3   148  MET148      0.0413
    134  CG         0.4490   10.4460   12.5480 C.3   148  MET148      0.0598
    135  SD        -1.0800   11.3600   12.9200 S.3   148  MET148     -0.1393
    136  CE        -0.3940   12.8890   13.5900 C.3   148  MET148      0.0692
    137  N          1.0080   13.5290    6.4880 N.3   150  ARG150     -0.1231
    138  CA         0.0900   14.4410    5.7750 C.3   150  ARG150      0.1694
    139  C         -0.0850   15.7620    6.5660 C.2   150  ARG150      0.2592
    140  O         -0.4830   16.7610    5.9760 O.2   150  ARG150     -0.2718
    141  CB        -1.2990   13.7940    5.6410 C.3   150  ARG150      0.0321
    142  CG        -1.4040   12.7580    4.5310 C.3   150  ARG150      0.0489
    143  CD        -2.7310   12.0230    4.5820 C.3   150  ARG150      0.2205
    144  NE        -3.8700   12.8900    4.2760 N.pl3 150  ARG150     -0.0865
    145  CZ        -4.9960   12.9180    4.9820 C.cat 150  ARG150      0.5346
    146  NH1       -5.1450   12.1300    6.0400 N.pl3 150  ARG150      0.1354
    147  NH2       -5.9830   13.7300    4.6320 N.pl3 150  ARG150      0.1354
    148  N          0.2250   15.7580    7.8850 N.am  151  PHE151     -0.1976
    149  CA         0.0330   16.9130    8.7730 C.3   151  PHE151      0.1639
    150  C          1.3360   17.5780    9.2370 C.2   151  PHE151      0.2290
    151  O          1.2830   18.6600    9.8230 O.2   151  PHE151     -0.2864
    152  CB        -0.8360   16.4920    9.9860 C.3   151  PHE151      0.0560
    153  CG        -2.1090   15.7940    9.5730 C.ar  151  PHE151     -0.0200
    154  CD1       -3.2330   16.5240    9.2030 C.ar  151  PHE151     -0.0042
    155  CD2       -2.1780   14.4020    9.5300 C.ar  151  PHE151     -0.0042
    156  CE1       -4.3980   15.8770    8.7750 C.ar  151  PHE151     -0.0003
    157  CE2       -3.3360   13.7620    9.0880 C.ar  151  PHE151     -0.0003
    158  CZ        -4.4350   14.5020    8.7110 C.ar  151  PHE151     -0.0000
@<TRIPOS>BOND
     1   144   143    1
     2   144   145    2
     3   142   143    1
     4   142   141    1
     5   147   145    1
     6   145   146    1
     7   141   138    1
     8    20    18   ar
     9   138   137    1
    10   138   139    1
    11   140   139    2
    12   139   148   am
    13    18    19   ar
    14    18    17    1
    15   126   125    1
    16   126   127    1
    17   148   149    1
    18   128   127    2
    19    17    16    1
    20   125   116   am
    21   127   129   am
    22   158   156   ar
    23   158   157   ar
    24   149   150    1
    25   149   152    1
    26   156   154   ar
    27    32    33    1
    28    32    31    1
    29   157   155   ar
    30   154   153   ar
    31   150   151    2
    32   131   132    2
    33   131   130    1
    34    16    13    1
    35   129   130    1
    36   116   115    1
    37   116   117    2
    38   155   153   ar
    39   153   152    1
    40    49    47    1
    41   118   115    1
    42   118   119    1
    43    31    30    1
    44   115   114    1
    45   130   133    1
    46    13    12    1
    47    13    14    1
    48    48    47    1
    49    47    46    1
    50   109   108    2
    51   119   120   ar
    52   119   121   ar
    53   120   122   ar
    54    15    14    2
    55    26    27    1
    56     1     2    1
    57   114   108   am
    58    30    27    1
    59    14    21   am
    60   133   134    1
    61    27    28    1
    62   108   107    1
    63   121   123   ar
    64   122   124   ar
    65     2     3    1
    66     2     5    1
    67    46    43    1
    68    57    55    1
    69     4     3    2
    70   134   135    1
    71    56    55    1
    72    21    22    1
    73   103   102    2
    74   135   136    1
    75    28    29    2
    76    28    34   am
    77    43    42    1
    78    43    44    1
    79     5     6    1
    80   123   124   ar
    81   107   110    1
    82   107   106    1
    83    55    54    1
    84     7     6   ar
    85     7     9   ar
    86   110   111    1
    87    23    22    1
    88    23    24    2
    89    22    25    1
    90     6     8   ar
    91   102   106   am
    92   102   101    1
    93    34    35    1
    94     9    11   ar
    95    44    45    2
    96   100   101    1
    97    54    51    1
    98   111   113   ar
    99   111   112   ar
   100   101   104    1
   101     8    10   ar
   102    11    10   ar
   103    35    36    1
   104    35    38    1
   105    36    37    2
   106    51    50    1
   107    51    52    1
   108   104   105    1
   109    38    39    1
   110    39    40    1
   111    52    58   am
   112    52    53    2
   113    58    59    1
   114    40    41    1
   115    81    79    1
   116    61    60    2
   117    78    79    1
   118    78    75    1
   119    73    71   am
   120    59    60    1
   121    59    62    1
   122    60    65   am
   123    62    64    1
   124    62    63    1
   125    79    80    1
   126    97    99   ar
   127    97    95   ar
   128    72    71    2
   129    99    98   ar
   130    74    75    1
   131    74    67   am
   132    71    70    1
   133    88    86    1
   134    65    66    1
   135    66    67    1
   136    66    69    1
   137    75    76    1
   138    77    76    2
   139    95    94   ar
   140    67    68    2
   141    98    96   ar
   142    87    86    1
   143    86    83    1
   144    70    69    1
   145    94    96   ar
   146    94    93    1
   147    83    82    1
   148    83    84    1
   149    93    90    1
   150    84    85    2
   151    90    89    1
   152    90    91    1
   153    91    92    2
