@<TRIPOS>MOLECULE
tmp/4m0yA00.pdb
 162 156 0 0 0
SMALL
GASTEIGER

@<TRIPOS>ATOM
      1  N          9.1260    9.2600   29.5090 N.3    14  ILE14      -0.1231
      2  CA         9.7060    8.0380   28.9670 C.3    14  ILE14       0.1692
      3  C         10.7360    8.2780   27.8640 C.2    14  ILE14       0.2593
      4  O         11.5080    7.3740   27.5380 O.2    14  ILE14      -0.2718
      5  CB         8.7190    6.8590   28.7610 C.3    14  ILE14       0.0266
      6  CG1        7.4710    7.2760   27.9500 C.3    14  ILE14       0.0019
      7  CG2        8.3480    6.2550   30.1320 C.3    14  ILE14       0.0020
      8  CD1        6.4550    6.1430   27.6040 C.3    14  ILE14       0.0001
      9  N         10.8010    9.5180   27.3750 N.am   15  GLY15      -0.1942
     10  CA        11.7660    9.9250   26.3590 C.3    15  GLY15       0.2014
     11  C         11.3610   11.1380   25.5480 C.2    15  GLY15       0.2640
     12  O         10.3970   11.8300   25.8840 O.2    15  GLY15      -0.2714
     13  N         12.1190   11.4020   24.4740 N.am   16  SER16      -0.1935
     14  CA        11.9100   12.5150   23.5570 C.3    16  SER16       0.2055
     15  C         11.6970   11.9900   22.1490 C.2    16  SER16       0.2644
     16  O         12.5060   11.1970   21.6500 O.2    16  SER16      -0.2714
     17  CB        13.1000   13.4720   23.5840 C.3    16  SER16       0.2130
     18  OG        13.1880   14.1580   24.8220 O.3    16  SER16      -0.2179
     19  N         10.5870   12.4060   21.5440 N.am   17  GLY17      -0.1939
     20  CA        10.2140   12.0390   20.1840 C.3    17  GLY17       0.2014
     21  C         10.6020   13.1000   19.1760 C.2    17  GLY17       0.2638
     22  O         11.3640   14.0190   19.4950 O.2    17  GLY17      -0.2714
     23  N         10.0750   12.9820   17.9500 N.am   18  GLN18      -0.1977
     24  CA        10.3430   13.9280   16.8600 C.3    18  GLN18       0.1601
     25  C          9.7460   15.3200   17.1520 C.2    18  GLN18       0.2287
     26  O         10.3690   16.3300   16.8200 O.2    18  GLN18      -0.2864
     27  CB         9.7930   13.3650   15.5280 C.3    18  GLN18       0.0394
     28  CG        10.0990   14.1900   14.2690 C.3    18  GLN18       0.0908
     29  CD        11.5590   14.1900   13.8800 C.2    18  GLN18       0.2608
     30  OE1       12.2770   15.1750   14.0820 O.2    18  GLN18      -0.2717
     31  NE2       12.0260   13.0950   13.2910 N.am   18  GLN18      -0.0878
     32  N          7.4940   12.4890   25.5310 N.3    22  VAL22      -0.1245
     33  CA         6.5470   11.3750   25.6400 C.3    22  VAL22       0.1561
     34  C          6.5100   10.9920   27.1230 C.2    22  VAL22       0.2260
     35  O          7.5740   10.7790   27.7330 O.2    22  VAL22      -0.2867
     36  CB         6.8970   10.1590   24.7400 C.3    22  VAL22       0.0252
     37  CG1        5.8190    9.0720   24.8390 C.3    22  VAL22       0.0019
     38  CG2        7.0890   10.5830   23.2810 C.3    22  VAL22       0.0019
     39  N          0.1710    6.5230   27.0780 N.3    34  ALA34      -0.1245
     40  CA         1.3860    7.2140   26.6440 C.3    34  ALA34       0.1562
     41  C          0.8700    8.5460   26.0920 C.2    34  ALA34       0.2260
     42  O         -0.0830    8.5570   25.3000 O.2    34  ALA34      -0.2867
     43  CB         2.1000    6.4400   25.5470 C.3    34  ALA34       0.0290
     44  N          1.9240   12.0560   24.1120 N.3    36  LYS36      -0.1245
     45  CA         2.9420   12.7190   23.2870 C.3    36  LYS36       0.1561
     46  C          2.6090   14.1920   23.1690 C.2    36  LYS36       0.2260
     47  O          1.5500   14.5220   22.6460 O.2    36  LYS36      -0.2867
     48  CB         3.0470   12.0740   21.8840 C.3    36  LYS36       0.0271
     49  CG         3.4890   10.6060   21.8990 C.3    36  LYS36       0.0035
     50  CD         3.6250   10.0240   20.4960 C.3    36  LYS36       0.0206
     51  CE         5.0580    9.8300   20.0780 C.3    36  LYS36       0.1093
     52  NZ         5.1470    9.3110   18.6870 N.3    36  LYS36      -0.1314
     53  N         -1.9030    0.5390   17.1270 N.3    64  VAL64      -0.1245
     54  CA        -1.8400    1.2830   18.3940 C.3    64  VAL64       0.1561
     55  C         -3.0540    2.2360   18.4110 C.2    64  VAL64       0.2260
     56  O         -3.2300    3.0270   17.4810 O.2    64  VAL64      -0.2867
     57  CB        -0.4880    2.0470   18.5710 C.3    64  VAL64       0.0252
     58  CG1       -0.5100    2.9520   19.8120 C.3    64  VAL64       0.0019
     59  CG2        0.6990    1.0830   18.6260 C.3    64  VAL64       0.0019
     60  N         -2.3430    7.9670   23.6490 N.3    80  PHE80      -0.1227
     61  CA        -2.3000    6.6450   23.0390 C.3    80  PHE80       0.1736
     62  C         -2.3270    5.5180   24.0510 C.2    80  PHE80       0.2598
     63  O         -1.9140    5.6760   25.2160 O.2    80  PHE80      -0.2717
     64  CB        -0.9760    6.4790   22.2550 C.3    80  PHE80       0.0547
     65  CG        -0.7110    7.4320   21.1180 C.ar   80  PHE80      -0.0202
     66  CD1       -1.0150    7.0770   19.8120 C.ar   80  PHE80      -0.0042
     67  CD2       -0.1080    8.6670   21.3480 C.ar   80  PHE80      -0.0042
     68  CE1       -0.7360    7.9460   18.7500 C.ar   80  PHE80      -0.0003
     69  CE2        0.1470    9.5460   20.2910 C.ar   80  PHE80      -0.0003
     70  CZ        -0.1630    9.1780   18.9950 C.ar   80  PHE80      -0.0000
     71  N         -2.6870    4.3220   23.5400 N.am   81  GLU81      -0.1920
     72  CA        -2.5910    3.0430   24.2160 C.3    81  GLU81       0.1949
     73  C         -1.1020    2.8750   24.6540 C.2    81  GLU81       0.2659
     74  O         -0.1890    3.1780   23.8680 O.2    81  GLU81      -0.2711
     75  CB        -2.9830    1.9720   23.1830 C.2    81  GLU81       0.0111
     76  CG        -2.6800    0.5330   23.5440 C.2    81  GLU81       0.0838
     77  CD        -3.0440   -0.5020   22.4930 C.2    81  GLU81       0.3877
     78  OE1       -3.5830   -0.1320   21.4200 O.co2  81  GLU81      -0.2406
     79  OE2       -2.8400   -1.7040   22.7810 O.co2  81  GLU81      -0.2406
     80  N         -0.8650    2.4850   25.9100 N.am   82  PHE82      -0.1957
     81  CA         0.5090    2.2980   26.3990 C.3    82  PHE82       0.1771
     82  C          1.0880    0.9610   25.9330 C.2    82  PHE82       0.2619
     83  O          0.4620   -0.0780   26.1380 O.2    82  PHE82      -0.2715
     84  CB         0.5740    2.3970   27.9310 C.3    82  PHE82       0.0574
     85  CG         1.9540    2.1350   28.4940 C.ar   82  PHE82      -0.0200
     86  CD1        3.0050    3.0090   28.2380 C.ar   82  PHE82      -0.0042
     87  CD2        2.2030    1.0150   29.2760 C.ar   82  PHE82      -0.0042
     88  CE1        4.2810    2.7700   28.7620 C.ar   82  PHE82      -0.0003
     89  CE2        3.4810    0.7720   29.7960 C.ar   82  PHE82      -0.0003
     90  CZ         4.5070    1.6570   29.5400 C.ar   82  PHE82      -0.0000
     91  N          2.2940    0.9940   25.3310 N.am   83  MET83      -0.1963
     92  CA         2.9850   -0.2070   24.8250 C.3    83  MET83       0.1736
     93  C          4.2360   -0.4240   25.7020 C.2    83  MET83       0.2616
     94  O          5.2280    0.2910   25.5580 O.2    83  MET83      -0.2715
     95  CB         3.3420   -0.0310   23.3320 C.3    83  MET83       0.0427
     96  CG         2.1260    0.2500   22.4390 C.3    83  MET83       0.0599
     97  SD         0.9680   -1.1350   22.3410 S.3    83  MET83      -0.1393
     98  CE         1.9660   -2.3380   21.3510 C.3    83  MET83       0.0692
     99  N          4.1640   -1.4010   26.6050 N.am   84  GLU84      -0.1963
    100  CA         5.2070   -1.6860   27.6070 C.3    84  GLU84       0.1733
    101  C          6.6770   -1.7860   27.1620 C.2    84  GLU84       0.2616
    102  O          7.5620   -1.4140   27.9420 O.2    84  GLU84      -0.2715
    103  CB         4.7950   -2.8160   28.5660 C.3    84  GLU84       0.0429
    104  CG         4.8810   -4.2220   28.0070 C.3    84  GLU84       0.1163
    105  CD         4.6110   -5.2990   29.0390 C.2    84  GLU84       0.3649
    106  OE1        5.5180   -5.5930   29.8520 O.co2  84  GLU84      -0.2457
    107  OE2        3.4850   -5.8470   29.0380 O.co2  84  GLU84      -0.2457
    108  N          6.9420   -2.3020   25.9390 N.am   85  HIS85      -0.1959
    109  CA         8.3210   -2.4880   25.4740 C.3    85  HIS85       0.1787
    110  C          8.9110   -1.4300   24.5140 C.2    85  HIS85       0.2621
    111  O         10.0430   -1.5860   24.0550 O.2    85  HIS85      -0.2715
    112  CB         8.5640   -3.9360   25.0090 C.3    85  HIS85       0.0785
    113  CG         8.3310   -4.9610   26.0770 C.ar   85  HIS85       0.0821
    114  ND1        7.2600   -5.8330   26.0190 N.ar   85  HIS85      -0.2267
    115  CD2        9.0300   -5.2030   27.2110 C.ar   85  HIS85       0.1154
    116  CE1        7.3540   -6.5920   27.1010 C.ar   85  HIS85       0.1986
    117  NE2        8.3910   -6.2360   27.8570 N.ar   85  HIS85      -0.2212
    118  N          8.1630   -0.3600   24.2500 N.am   86  GLY86      -0.1940
    119  CA         8.6300    0.7390   23.4080 C.3    86  GLY86       0.2014
    120  C          8.7680    0.4390   21.9300 C.2    86  GLY86       0.2639
    121  O          8.1040   -0.4650   21.4120 O.2    86  GLY86      -0.2714
    122  N          9.6100    1.2250   21.2300 N.am   87  CYS87      -0.1967
    123  CA         9.7780    1.1070   19.7740 C.3    87  CYS87       0.1712
    124  C         10.4390   -0.1860   19.3170 C.2    87  CYS87       0.2296
    125  O         11.3910   -0.6610   19.9420 O.2    87  CYS87      -0.2864
    126  CB        10.4680    2.3360   19.1860 C.3    87  CYS87       0.0983
    127  SG         9.6420    3.9010   19.5830 S.3    87  CYS87      -0.0798
    128  N         10.8680    1.9970   13.4350 N.3   131  ARG131     -0.1231
    129  CA        10.7970    3.0990   14.4110 C.3   131  ARG131      0.1694
    130  C          9.3450    3.5340   14.7280 C.2   131  ARG131      0.2592
    131  O          9.1200    4.1590   15.7670 O.2   131  ARG131     -0.2718
    132  CB        11.6890    4.2900   13.9830 C.3   131  ARG131      0.0321
    133  CG        11.2770    4.8840   12.6520 C.3   131  ARG131      0.0489
    134  CD        11.9750    6.1900   12.3150 C.3   131  ARG131      0.2205
    135  NE        11.3660    6.8040   11.1310 N.pl3 131  ARG131     -0.0865
    136  CZ        11.6560    6.4590    9.8800 C.cat 131  ARG131      0.5346
    137  NH1       12.5570    5.5200    9.6370 N.pl3 131  ARG131      0.1354
    138  NH2       11.0420    7.0490    8.8640 N.pl3 131  ARG131      0.1354
    139  N          8.3710    3.2190   13.8240 N.am  132  ASN132     -0.1974
    140  CA         6.9530    3.5560   13.9930 C.3   132  ASN132      0.1688
    141  C          6.0990    2.3930   14.5030 C.2   132  ASN132      0.2292
    142  O          4.8780    2.5400   14.6040 O.2   132  ASN132     -0.2864
    143  CB         6.3700    4.1210   12.6950 C.3   132  ASN132      0.1181
    144  CG         6.6810    5.5830   12.4920 C.2   132  ASN132      0.2629
    145  OD1        6.7150    6.3910   13.4360 O.2   132  ASN132     -0.2716
    146  ND2        6.8900    5.9640   11.2490 N.am  132  ASN132     -0.0877
    147  N          5.3680   -0.5180   17.5790 N.3   134  LEU134     -0.1245
    148  CA         5.5470   -0.6340   19.0260 C.3   134  LEU134      0.1561
    149  C          5.4200   -2.0710   19.4970 C.2   134  LEU134      0.2260
    150  O          4.7160   -2.8540   18.8570 O.2   134  LEU134     -0.2867
    151  CB         4.5550    0.2770   19.7710 C.3   134  LEU134      0.0270
    152  CG         4.8220    1.8140   19.8270 C.3   134  LEU134      0.0019
    153  CD1        6.0470    2.1890   20.6850 C.3   134  LEU134      0.0001
    154  CD2        4.7740    2.4880   18.4780 C.3   134  LEU134      0.0001
    155  N          1.2450    5.7600   13.9810 N.3   145  ASP145     -0.1239
    156  CA         1.5550    6.9560   13.1780 C.3   145  ASP145      0.1674
    157  C          1.1440    6.9350   11.6970 C.2   145  ASP145      0.2266
    158  O          1.6550    7.7390   10.9040 O.2   145  ASP145     -0.2867
    159  CB         3.0330    7.3630   13.3290 C.3   145  ASP145      0.1410
    160  CG         3.4210    7.8820   14.7000 C.2   145  ASP145      0.3668
    161  OD1        2.8030    7.4470   15.7030 O.co2 145  ASP145     -0.2456
    162  OD2        4.3810    8.6710   14.7790 O.co2 145  ASP145     -0.2456
@<TRIPOS>BOND
     1   138   136    1
     2   137   136    1
     3   136   135    2
     4   158   157    2
     5   135   134    1
     6   146   144   am
     7   157   156    1
     8   134   133    1
     9   144   143    1
    10   144   145    2
    11   133   132    1
    12   143   140    1
    13   156   159    1
    14   156   155    1
    15    31    29   am
    16   159   160    1
    17   128   129    1
    18   139   140    1
    19   139   130   am
    20    29    30    2
    21    29    28    1
    22   132   129    1
    23   140   141    1
    24    28    27    1
    25   129   130    1
    26   141   142    2
    27   160   162   ar
    28   160   161   ar
    29   130   131    2
    30    27    24    1
    31    26    25    2
    32    24    25    1
    33    24    23    1
    34    53    54    1
    35    56    55    2
    36   147   148    1
    37    23    21   am
    38    54    55    1
    39    54    57    1
    40   154   152    1
    41    57    59    1
    42    57    58    1
    43    52    51    1
    44    68    70   ar
    45    68    66   ar
    46   150   149    2
    47    70    69   ar
    48   148   149    1
    49   148   151    1
    50    21    22    2
    51    21    20    1
    52   126   127    1
    53   126   123    1
    54   124   123    1
    55   124   125    2
    56   151   152    1
    57   123   122    1
    58    66    65   ar
    59   152   153    1
    60    51    50    1
    61    20    19    1
    62    69    67   ar
    63    50    49    1
    64    65    67   ar
    65    65    64    1
    66   122   120   am
    67    98    97    1
    68   121   120    2
    69    78    77   ar
    70    19    15   am
    71    16    15    2
    72    48    49    1
    73    48    45    1
    74   120   119    1
    75    15    14    1
    76    64    61    1
    77    97    96    1
    78    96    95    1
    79    77    79   ar
    80    77    76    1
    81    47    46    2
    82    61    60    1
    83    61    62    1
    84    46    45    1
    85    75    76    2
    86    75    72    1
    87    38    36    1
    88    45    44    1
    89    95    92    1
    90   119   118    1
    91    71    62   am
    92    71    72    1
    93    14    17    1
    94    14    13    1
    95    17    18    1
    96    74    73    2
    97    62    63    2
    98   111   110    2
    99    72    73    1
   100   118   110   am
   101    13    11   am
   102   110   109    1
   103    73    80   am
   104    36    37    1
   105    36    33    1
   106    92    91    1
   107    92    93    1
   108   112   109    1
   109   112   113    1
   110    42    41    2
   111    91    82   am
   112   109   108    1
   113    32    33    1
   114    43    40    1
   115    11    12    2
   116    11    10    1
   117    94    93    2
   118    33    34    1
   119    93    99   am
   120    80    81    1
   121    82    83    2
   122    82    81    1
   123   108   101   am
   124   114   113   ar
   125   114   116   ar
   126   113   115   ar
   127    41    40    1
   128    10     9    1
   129    81    84    1
   130    99   100    1
   131    40    39    1
   132   116   117   ar
   133    34    35    2
   134   101   100    1
   135   101   102    2
   136   115   117   ar
   137     9     3   am
   138     4     3    2
   139     8     6    1
   140   100   103    1
   141     3     2    1
   142    84    85    1
   143     6     5    1
   144   104   103    1
   145   104   105    1
   146    86    85   ar
   147    86    88   ar
   148    85    87   ar
   149     5     2    1
   150     5     7    1
   151    88    90   ar
   152     2     1    1
   153   107   105   ar
   154   105   106   ar
   155    87    89   ar
   156    90    89   ar
