@<TRIPOS>MOLECULE
tmp/4m10A04.pdb
 182 172 0 0 0
SMALL
GASTEIGER

@<TRIPOS>ATOM
      1  N        149.9230   49.4250   39.1640 N.3    82  MET82      -0.1245
      2  CA       148.7970   48.5580   39.4870 C.3    82  MET82       0.1570
      3  C        147.9750   49.1440   40.6310 C.2    82  MET82       0.2261
      4  O        146.7520   49.0400   40.6510 O.2    82  MET82      -0.2867
      5  CB       149.2620   47.1430   39.8440 C.3    82  MET82       0.0387
      6  CG       148.1250   46.1690   40.0300 C.3    82  MET82       0.0595
      7  SD       147.2800   45.9280   38.4510 S.3    82  MET82      -0.1393
      8  CE       145.7040   45.1940   38.9170 C.3    82  MET82       0.0692
      9  N        145.9140   51.7180   39.0460 N.3    85  VAL85      -0.1231
     10  CA       144.8820   51.0380   38.2790 C.3    85  VAL85       0.1692
     11  C        143.7180   50.6580   39.1980 C.2    85  VAL85       0.2591
     12  O        142.5540   50.8990   38.8820 O.2    85  VAL85      -0.2718
     13  CB       145.4380   49.7660   37.5890 C.3    85  VAL85       0.0266
     14  CG1      144.2970   48.8640   37.1320 C.3    85  VAL85       0.0020
     15  CG2      146.3420   50.1340   36.4080 C.3    85  VAL85       0.0020
     16  N        144.0490   50.0960   40.3540 N.am   86  LEU86      -0.1980
     17  CA       143.0460   49.6230   41.2820 C.3    86  LEU86       0.1596
     18  C        142.1520   50.7520   41.7840 C.2    86  LEU86       0.2287
     19  O        140.9230   50.6370   41.7590 O.2    86  LEU86      -0.2864
     20  CB       143.7220   48.9050   42.4500 C.3    86  LEU86       0.0297
     21  CG       144.2560   47.5110   42.1130 C.3    86  LEU86       0.0022
     22  CD1      145.0500   46.9390   43.2850 C.3    86  LEU86       0.0001
     23  CD2      143.1210   46.6100   41.7430 C.3    86  LEU86       0.0001
     24  N        139.8920   52.4640   39.2220 N.3    89  ARG89      -0.1245
     25  CA       138.8290   51.6040   38.7230 C.3    89  ARG89       0.1563
     26  C        137.7770   51.3380   39.7850 C.2    89  ARG89       0.2260
     27  O        136.8160   50.6090   39.5600 O.2    89  ARG89      -0.2867
     28  CB       139.4140   50.2730   38.2570 C.3    89  ARG89       0.0307
     29  CG       139.8790   50.2760   36.8070 C.3    89  ARG89       0.0489
     30  CD       138.7330   50.6550   35.9210 C.3    89  ARG89       0.2205
     31  NE       138.9900   50.3160   34.5340 N.pl3  89  ARG89      -0.0865
     32  CZ       138.2890   50.8010   33.5170 C.cat  89  ARG89       0.5346
     33  NH1      137.2930   51.6560   33.7510 N.pl3  89  ARG89       0.1354
     34  NH2      138.5890   50.4400   32.2710 N.pl3  89  ARG89       0.1354
     35  N        142.9490   37.4950   37.0810 N.3   314  ILE314     -0.1245
     36  CA       143.5840   38.7860   36.8730 C.3   314  ILE314      0.1561
     37  C        144.7670   38.7110   35.9130 C.2   314  ILE314      0.2260
     38  O        144.8250   39.4350   34.9110 O.2   314  ILE314     -0.2867
     39  CB       144.0250   39.3990   38.2200 C.3   314  ILE314      0.0252
     40  CG1      142.7760   39.7720   39.0220 C.3   314  ILE314      0.0019
     41  CG2      144.9260   40.6410   38.0080 C.3   314  ILE314      0.0019
     42  CD1      143.0900   40.3400   40.4020 C.3   314  ILE314      0.0001
     43  N        141.9140   38.1510   32.5450 N.3   318  VAL318     -0.1245
     44  CA       141.6910   39.5690   32.2960 C.3   318  VAL318      0.1561
     45  C        142.8870   40.1660   31.5340 C.2   318  VAL318      0.2260
     46  O        142.7210   41.0350   30.6770 O.2   318  VAL318     -0.2867
     47  CB       141.4090   40.3330   33.5990 C.3   318  VAL318      0.0252
     48  CG1      141.4060   41.8300   33.3380 C.3   318  VAL318      0.0019
     49  CG2      140.0450   39.8860   34.1950 C.3   318  VAL318      0.0019
     50  N        142.2210   39.4780   27.8080 N.3   321  LEU321     -0.1231
     51  CA       141.0870   40.1460   27.1640 C.3   321  LEU321      0.1693
     52  C        141.2810   41.6670   27.0720 C.2   321  LEU321      0.2592
     53  O        140.7990   42.3130   26.1380 O.2   321  LEU321     -0.2718
     54  CB       139.7420   39.7760   27.8120 C.3   321  LEU321      0.0284
     55  CG       139.4580   40.2310   29.2420 C.3   321  LEU321      0.0019
     56  CD1      138.9020   41.6760   29.2720 C.3   321  LEU321      0.0001
     57  CD2      138.4780   39.2850   29.9200 C.3   321  LEU321      0.0001
     58  N        141.9900   42.2270   28.0460 N.am  322  SER322     -0.1952
     59  CA       142.2850   43.6490   28.0570 C.3   322  SER322      0.1924
     60  C        143.1310   44.0820   26.8600 C.2   322  SER322      0.2314
     61  O        143.0010   45.2010   26.3780 O.2   322  SER322     -0.2863
     62  CB       143.0440   44.0100   29.3330 C.3   322  SER322      0.2116
     63  OG       144.3910   43.5550   29.2690 O.3   322  SER322     -0.2180
     64  N        146.2040   44.7070   27.1880 N.3   324  TYR324     -0.1241
     65  CA       147.1810   45.6710   27.6850 C.3   324  TYR324      0.1605
     66  C        148.5780   45.0910   27.5830 C.2   324  TYR324      0.2264
     67  O        148.7690   43.8700   27.7230 O.2   324  TYR324     -0.2867
     68  CB       146.8940   46.0360   29.1490 C.3   324  TYR324      0.0534
     69  CG       145.5340   46.6490   29.3950 C.ar  324  TYR324     -0.0201
     70  CD1      144.7950   47.1900   28.3550 C.ar  324  TYR324     -0.0009
     71  CD2      145.0070   46.7210   30.6760 C.ar  324  TYR324     -0.0009
     72  CE1      143.5540   47.7610   28.5790 C.ar  324  TYR324      0.0417
     73  CE2      143.7720   47.2760   30.9040 C.ar  324  TYR324      0.0417
     74  CZ       143.0450   47.7930   29.8520 C.ar  324  TYR324      0.1957
     75  OH       141.8040   48.3470   30.0860 O.3   324  TYR324     -0.2866
     76  N        149.2130   43.2230   34.4550 N.3   328  LEU328     -0.1245
     77  CA       148.3540   43.2690   35.6370 C.3   328  LEU328      0.1561
     78  C        148.8680   42.3460   36.7330 C.2   328  LEU328      0.2260
     79  O        149.5040   41.3080   36.4500 O.2   328  LEU328     -0.2867
     80  CB       146.9130   42.8970   35.2820 C.3   328  LEU328      0.0270
     81  CG       146.2530   43.8110   34.2490 C.3   328  LEU328      0.0019
     82  CD1      144.9640   43.1550   33.7180 C.3   328  LEU328      0.0001
     83  CD2      145.9490   45.1930   34.8070 C.3   328  LEU328      0.0001
     84  N        125.8690   42.0640   30.4290 N.3   353  LEU353     -0.1231
     85  CA       126.9880   42.3800   29.5320 C.3   353  LEU353      0.1693
     86  C        127.8810   41.1710   29.2760 C.2   353  LEU353      0.2592
     87  O        128.5980   41.1270   28.2640 O.2   353  LEU353     -0.2718
     88  CB       127.8320   43.5590   30.0580 C.3   353  LEU353      0.0284
     89  CG       128.6600   43.3860   31.3360 C.3   353  LEU353      0.0019
     90  CD1      130.0220   42.7590   31.0170 C.3   353  LEU353      0.0001
     91  CD2      128.8330   44.7290   32.0690 C.3   353  LEU353      0.0001
     92  N        127.8390   40.1970   30.1850 N.am  354  TYR354     -0.1976
     93  CA       128.7250   39.0380   30.1120 C.3   354  TYR354      0.1639
     94  C        128.1520   37.8950   29.2640 C.2   354  TYR354      0.2290
     95  O        128.6980   36.7880   29.2430 O.2   354  TYR354     -0.2864
     96  CB       129.0480   38.5230   31.5250 C.3   354  TYR354      0.0560
     97  CG       130.5430   38.3510   31.7740 C.ar  354  TYR354     -0.0198
     98  CD1      131.2970   37.4160   31.0430 C.ar  354  TYR354     -0.0009
     99  CD2      131.2070   39.1330   32.7230 C.ar  354  TYR354     -0.0009
    100  CE1      132.6660   37.2700   31.2490 C.ar  354  TYR354      0.0417
    101  CE2      132.5730   38.9820   32.9420 C.ar  354  TYR354      0.0417
    102  CZ       133.2990   38.0500   32.2130 C.ar  354  TYR354      0.1957
    103  OH       134.6640   37.9400   32.4400 O.3   354  TYR354     -0.2866
    104  N        128.5310   36.4960   26.4550 N.3   356  TRP356     -0.1241
    105  CA       129.5140   36.5500   25.3800 C.3   356  TRP356      0.1605
    106  C        129.3650   35.3940   24.3900 C.2   356  TRP356      0.2264
    107  O        130.3580   34.8430   23.9140 O.2   356  TRP356     -0.2867
    108  CB       130.9330   36.5730   25.9530 C.3   356  TRP356      0.0550
    109  CG       131.2570   37.8020   26.7010 C.ar  356  TRP356      0.0003
    110  CD1      130.4790   38.9350   26.8190 C.ar  356  TRP356      0.0946
    111  CD2      132.4380   38.0420   27.4740 C.ar  356  TRP356      0.0152
    112  NE1      131.1260   39.8630   27.5890 N.ar  356  TRP356     -0.2442
    113  CE2      132.3100   39.3260   28.0390 C.ar  356  TRP356      0.0810
    114  CE3      133.5920   37.2830   27.7480 C.ar  356  TRP356      0.0012
    115  CZ2      133.3050   39.8930   28.8540 C.ar  356  TRP356      0.0191
    116  CZ3      134.5760   37.8400   28.5540 C.ar  356  TRP356      0.0001
    117  CH2      134.4240   39.1350   29.1030 C.ar  356  TRP356      0.0015
    118  N        136.2610   43.6210   22.1160 N.3   487  PHE487     -0.1241
    119  CA       135.1540   44.3790   22.7110 C.3   487  PHE487      0.1605
    120  C        135.2150   45.8450   22.3170 C.2   487  PHE487      0.2264
    121  O        136.2670   46.3580   21.9600 O.2   487  PHE487     -0.2867
    122  CB       135.1770   44.3300   24.2530 C.3   487  PHE487      0.0534
    123  CG       135.1310   42.9470   24.8400 C.ar  487  PHE487     -0.0203
    124  CD1      134.1500   42.0570   24.4650 C.ar  487  PHE487     -0.0042
    125  CD2      136.0540   42.5540   25.7980 C.ar  487  PHE487     -0.0042
    126  CE1      134.1040   40.7920   25.0070 C.ar  487  PHE487     -0.0003
    127  CE2      136.0110   41.2950   26.3420 C.ar  487  PHE487     -0.0003
    128  CZ       135.0410   40.4120   25.9510 C.ar  487  PHE487     -0.0000
    129  N        131.5970   47.8960   26.7660 N.3   491  MET491     -0.1230
    130  CA       131.8160   46.5920   27.3750 C.3   491  MET491      0.1702
    131  C        132.9510   46.6110   28.4000 C.2   491  MET491      0.2592
    132  O        132.7860   46.1290   29.5190 O.2   491  MET491     -0.2718
    133  CB       132.1110   45.5430   26.2980 C.3   491  MET491      0.0401
    134  CG       132.2440   44.1170   26.8520 C.3   491  MET491      0.0596
    135  SD       130.6360   43.3750   27.3240 S.3   491  MET491     -0.1393
    136  CE       130.1490   42.7050   25.7150 C.3   491  MET491      0.0692
    137  N        134.1060   47.1290   27.9990 N.am  492  VAL492     -0.1980
    138  CA       135.2420   47.2730   28.9010 C.3   492  VAL492      0.1595
    139  C        134.9630   48.2050   30.0870 C.2   492  VAL492      0.2287
    140  O        135.2640   47.8620   31.2240 O.2   492  VAL492     -0.2864
    141  CB       136.4780   47.8040   28.1610 C.3   492  VAL492      0.0276
    142  CG1      137.6530   47.9000   29.1240 C.3   492  VAL492      0.0022
    143  CG2      136.8270   46.8800   26.9590 C.3   492  VAL492      0.0022
    144  N        132.3090   46.4800   32.3820 N.3   495  GLY495     -0.1210
    145  CA       132.7590   45.1960   32.8940 C.3   495  GLY495      0.1956
    146  C        133.8830   45.2940   33.9060 C.2   495  GLY495      0.2611
    147  O        133.8820   44.5750   34.9100 O.2   495  GLY495     -0.2717
    148  N        134.8200   46.2050   33.6610 N.am  496  ALA496     -0.1979
    149  CA       136.0150   46.3130   34.4940 C.3   496  ALA496      0.1597
    150  C        135.7210   46.6030   35.9880 C.2   496  ALA496      0.2287
    151  O        136.1210   45.8050   36.8550 O.2   496  ALA496     -0.2864
    152  CB       137.0450   47.3110   33.8910 C.3   496  ALA496      0.0319
    153  N        134.0050   43.7230   37.7260 N.3   499  SER499     -0.1202
    154  CA       134.8750   42.5550   37.8050 C.3   499  SER499      0.2020
    155  C        135.8650   42.7390   38.9450 C.2   499  SER499      0.2618
    156  O        136.0920   41.8240   39.7440 O.2   499  SER499     -0.2717
    157  CB       135.6150   42.3570   36.4860 C.3   499  SER499      0.2103
    158  OG       136.6670   41.4230   36.6300 O.3   499  SER499     -0.2182
    159  N        136.4390   43.9330   39.0150 N.am  500  LEU500     -0.1979
    160  CA       137.3760   44.2930   40.0700 C.3   500  LEU500      0.1596
    161  C        136.7770   44.0440   41.4670 C.2   500  LEU500      0.2287
    162  O        137.3890   43.3890   42.3090 O.2   500  LEU500     -0.2864
    163  CB       137.7580   45.7650   39.9010 C.3   500  LEU500      0.0297
    164  CG       138.6600   46.3790   40.9640 C.3   500  LEU500      0.0022
    165  CD1      139.7810   45.4530   41.1830 C.3   500  LEU500      0.0001
    166  CD2      139.2110   47.7120   40.4790 C.3   500  LEU500      0.0001
    167  N        136.4480   40.5130   42.5400 N.3   503  LEU503     -0.1231
    168  CA       137.7240   39.8550   42.7970 C.3   503  LEU503      0.1693
    169  C        138.4320   40.4130   44.0440 C.2   503  LEU503      0.2591
    170  O        138.7310   39.6810   44.9970 O.2   503  LEU503     -0.2718
    171  CB       138.6180   39.9730   41.5520 C.3   503  LEU503      0.0284
    172  CG       138.1030   39.2580   40.2910 C.3   503  LEU503      0.0019
    173  CD1      138.7390   39.8420   39.0290 C.3   503  LEU503      0.0001
    174  CD2      138.3850   37.7760   40.3780 C.3   503  LEU503      0.0001
    175  N        138.6740   41.7190   44.0590 N.am  504  MET504     -0.1979
    176  CA       139.3910   42.3000   45.1840 C.3   504  MET504      0.1605
    177  C        138.5070   42.3710   46.4390 C.2   504  MET504      0.2287
    178  O        139.0330   42.3950   47.5560 O.2   504  MET504     -0.2864
    179  CB       139.9650   43.6800   44.8350 C.3   504  MET504      0.0413
    180  CG       140.9820   43.6640   43.6530 C.3   504  MET504      0.0598
    181  SD       142.2750   42.3900   43.6780 S.3   504  MET504     -0.1393
    182  CE       143.2680   42.9390   45.0720 C.3   504  MET504      0.0692
@<TRIPOS>BOND
     1   121   120    2
     2   118   119    1
     3   120   119    1
     4   119   122    1
     5   107   106    2
     6   122   123    1
     7   106   105    1
     8   124   123   ar
     9   124   126   ar
    10   123   125   ar
    11   126   128   ar
    12   105   108    1
    13   105   104    1
    14   136   135    1
    15   125   127   ar
    16   128   127   ar
    17   108   109    1
    18    53    52    2
    19   133   134    1
    20   133   130    1
    21    61    60    2
    22   109   110   ar
    23   109   111   ar
    24   129   130    1
    25   110   112   ar
    26   134   135    1
    27    60    59    1
    28   143   141    1
    29    52    51    1
    30    52    58   am
    31    51    50    1
    32    51    54    1
    33    64    65    1
    34   130   131    1
    35   111   114   ar
    36   111   113   ar
    37    66    65    1
    38    66    67    2
    39   112   113   ar
    40    65    68    1
    41   114   116   ar
    42    54    55    1
    43   137   131   am
    44   137   138    1
    45   113   115   ar
    46    58    59    1
    47    59    62    1
    48   141   138    1
    49   141   142    1
    50    87    86    2
    51    70    72   ar
    52    70    69   ar
    53   131   132    2
    54   116   117   ar
    55    72    74   ar
    56   115   117   ar
    57   138   139    1
    58    68    69    1
    59    55    56    1
    60    55    57    1
    61    95    94    2
    62    94    93    1
    63    63    62    1
    64    86    85    1
    65    86    92   am
    66    69    71   ar
    67    85    88    1
    68    85    84    1
    69    74    75    1
    70    74    73   ar
    71    88    89    1
    72   139   140    2
    73    93    92    1
    74    93    96    1
    75    71    73   ar
    76    46    45    2
    77    90    89    1
    78    98   100   ar
    79    98    97   ar
    80   100   102   ar
    81    89    91    1
    82    96    97    1
    83    45    44    1
    84    97    99   ar
    85   102   103    1
    86   102   101   ar
    87    34    32    1
    88    44    43    1
    89    44    47    1
    90   144   145    1
    91    99   101   ar
    92   145   146    1
    93    48    47    1
    94    32    33    1
    95    32    31    2
    96    47    49    1
    97   148   146   am
    98   148   149    1
    99    82    81    1
   100   152   149    1
   101   146   147    2
   102    81    83    1
   103    81    80    1
   104    76    77    1
   105   149   150    1
   106    31    30    1
   107    38    37    2
   108    80    77    1
   109    77    78    1
   110    37    36    1
   111    30    29    1
   112   150   151    2
   113    15    13    1
   114    79    78    2
   115   157   158    1
   116   157   154    1
   117    29    28    1
   118    36    35    1
   119    36    39    1
   120    14    13    1
   121    13    10    1
   122   153   154    1
   123   154   155    1
   124    41    39    1
   125    39    40    1
   126    28    25    1
   127    10     9    1
   128    10    11    1
   129     7     8    1
   130     7     6    1
   131    25    24    1
   132    25    26    1
   133    12    11    2
   134   155   159   am
   135   155   156    2
   136   159   160    1
   137    40    42    1
   138   173   172    1
   139     1     2    1
   140    11    16   am
   141     2     5    1
   142     2     3    1
   143    27    26    2
   144     5     6    1
   145   163   160    1
   146   163   164    1
   147   160   161    1
   148   172   174    1
   149   172   171    1
   150    16    17    1
   151   166   164    1
   152     3     4    2
   153   164   165    1
   154    17    18    1
   155    17    20    1
   156   161   162    2
   157   171   168    1
   158    23    21    1
   159    19    18    2
   160    21    20    1
   161    21    22    1
   162   167   168    1
   163   168   169    1
   164   180   181    1
   165   180   179    1
   166   181   182    1
   167   169   175   am
   168   169   170    2
   169   175   176    1
   170   179   176    1
   171   176   177    1
   172   177   178    2
