@<TRIPOS>MOLECULE
tmp/4m11C04.pdb
 194 185 0 0 0
SMALL
GASTEIGER

@<TRIPOS>ATOM
      1  N         88.3840   17.7070   56.6130 N.3    82  MET82      -0.1245
      2  CA        87.2370   18.5500   56.2820 C.3    82  MET82       0.1570
      3  C         86.4270   17.9560   55.1370 C.2    82  MET82       0.2261
      4  O         85.2010   18.0610   55.1130 O.2    82  MET82      -0.2867
      5  CB        87.6790   19.9710   55.9280 C.3    82  MET82       0.0387
      6  CG        86.5250   20.9560   55.8510 C.3    82  MET82       0.0595
      7  SD        85.7240   21.1820   57.4540 S.3    82  MET82      -0.1393
      8  CE        84.2050   22.0130   56.9930 C.3    82  MET82       0.0692
      9  N         84.2340   15.2100   56.7500 N.3    85  VAL85      -0.1231
     10  CA        83.1010   15.6880   57.5450 C.3    85  VAL85       0.1692
     11  C         82.0420   16.2750   56.6310 C.2    85  VAL85       0.2591
     12  O         80.8560   16.2820   56.9570 O.2    85  VAL85      -0.2718
     13  CB        83.4840   16.7300   58.6450 C.3    85  VAL85       0.0266
     14  CG1       84.9670   16.6940   58.9620 C.3    85  VAL85       0.0020
     15  CG2       83.0450   18.1390   58.2570 C.3    85  VAL85       0.0020
     16  N         82.4850   16.7450   55.4720 N.am   86  LEU86      -0.1980
     17  CA        81.6180   17.4330   54.5350 C.3    86  LEU86       0.1596
     18  C         80.6680   16.4390   53.8840 C.2    86  LEU86       0.2287
     19  O         79.4720   16.6970   53.7670 O.2    86  LEU86      -0.2864
     20  CB        82.4710   18.1220   53.4770 C.3    86  LEU86       0.0297
     21  CG        82.1160   19.5500   53.0860 C.3    86  LEU86       0.0022
     22  CD1       81.7380   20.3670   54.3000 C.3    86  LEU86       0.0001
     23  CD2       83.3010   20.1700   52.3740 C.3    86  LEU86       0.0001
     24  N         78.0540   14.4500   56.3190 N.3    89  ARG89      -0.1245
     25  CA        76.9160   15.1810   56.7550 C.3    89  ARG89       0.1563
     26  C         76.0990   15.6520   55.5710 C.2    89  ARG89       0.2260
     27  O         75.7200   16.7910   55.4820 O.2    89  ARG89      -0.2867
     28  CB        77.3560   16.3190   57.6730 C.3    89  ARG89       0.0307
     29  CG        76.7330   16.2300   59.0510 C.3    89  ARG89       0.0489
     30  CD        77.7120   16.4490   60.1770 C.3    89  ARG89       0.2205
     31  NE        76.9830   16.5400   61.4280 N.pl3  89  ARG89      -0.0865
     32  CZ        77.5270   16.4430   62.6190 C.cat  89  ARG89       0.5346
     33  NH1       78.8190   16.2440   62.7360 N.pl3  89  ARG89       0.1354
     34  NH2       76.7850   16.5570   63.6950 N.pl3  89  ARG89       0.1354
     35  N         81.2260   29.6150   58.8960 N.3   314  ILE314     -0.1245
     36  CA        81.8750   28.3220   59.0970 C.3   314  ILE314      0.1561
     37  C         83.0720   28.3600   60.0580 C.2   314  ILE314      0.2260
     38  O         83.1490   27.5560   60.9850 O.2   314  ILE314     -0.2867
     39  CB        82.3120   27.6870   57.7610 C.3   314  ILE314      0.0252
     40  CG1       81.0950   27.3830   56.8910 C.3   314  ILE314      0.0019
     41  CG2       83.1130   26.4150   58.0100 C.3   314  ILE314      0.0019
     42  CD1       81.4590   26.8890   55.5060 C.3   314  ILE314      0.0001
     43  N         81.7850   31.3270   63.5820 N.3   317  TYR317     -0.1227
     44  CA        80.5020   31.1030   64.2310 C.3   317  TYR317      0.1736
     45  C         80.2720   29.6260   64.5280 C.2   317  TYR317      0.2595
     46  O         80.1420   29.2350   65.6870 O.2   317  TYR317     -0.2718
     47  CB        79.3850   31.6660   63.3500 C.3   317  TYR317      0.0548
     48  CG        77.9730   31.3830   63.8110 C.ar  317  TYR317     -0.0200
     49  CD1       77.3870   32.1410   64.8120 C.ar  317  TYR317     -0.0009
     50  CD2       77.2140   30.3810   63.2170 C.ar  317  TYR317     -0.0009
     51  CE1       76.0910   31.9000   65.2250 C.ar  317  TYR317      0.0417
     52  CE2       75.9170   30.1360   63.6210 C.ar  317  TYR317      0.0417
     53  CZ        75.3610   30.8990   64.6280 C.ar  317  TYR317      0.1957
     54  OH        74.0730   30.6690   65.0510 O.3   317  TYR317     -0.2866
     55  N         80.2230   28.8060   63.4840 N.am  318  VAL318     -0.1980
     56  CA        80.0260   27.3770   63.6680 C.3   318  VAL318      0.1595
     57  C         81.2150   26.7560   64.4040 C.2   318  VAL318      0.2287
     58  O         81.0530   25.8210   65.1820 O.2   318  VAL318     -0.2864
     59  CB        79.7890   26.6590   62.3320 C.3   318  VAL318      0.0276
     60  CG1       79.7330   25.1910   62.5460 C.3   318  VAL318      0.0022
     61  CG2       78.4840   27.1060   61.7160 C.3   318  VAL318      0.0022
     62  N         80.4310   27.3590   68.2390 N.3   321  LEU321     -0.1231
     63  CA        79.3230   26.6320   68.8530 C.3   321  LEU321      0.1693
     64  C         79.5510   25.1200   68.8580 C.2   321  LEU321      0.2592
     65  O         79.0300   24.4080   69.7220 O.2   321  LEU321     -0.2718
     66  CB        77.9740   27.0060   68.2140 C.3   321  LEU321      0.0284
     67  CG        77.6920   26.7100   66.7380 C.3   321  LEU321      0.0019
     68  CD1       77.2030   25.2740   66.5330 C.3   321  LEU321      0.0001
     69  CD2       76.6880   27.7100   66.1680 C.3   321  LEU321      0.0001
     70  N         80.3380   24.6360   67.9000 N.am  322  SER322     -0.1952
     71  CA        80.6200   23.2090   67.7980 C.3   322  SER322      0.1924
     72  C         81.5010   22.7440   68.9430 C.2   322  SER322      0.2314
     73  O         81.4380   21.5870   69.3490 O.2   322  SER322     -0.2863
     74  CB        81.3270   22.8930   66.4870 C.3   322  SER322      0.2116
     75  OG        82.6920   23.2640   66.5610 O.3   322  SER322     -0.2180
     76  N         84.5200   22.2470   68.6930 N.3   324  TYR324     -0.1241
     77  CA        85.5060   21.3310   68.1250 C.3   324  TYR324      0.1605
     78  C         86.9210   21.8900   68.2230 C.2   324  TYR324      0.2264
     79  O         87.1230   23.1000   68.1130 O.2   324  TYR324     -0.2867
     80  CB        85.1890   21.0400   66.6580 C.3   324  TYR324      0.0534
     81  CG        83.8840   20.3200   66.4170 C.ar  324  TYR324     -0.0201
     82  CD1       83.2000   19.6950   67.4550 C.ar  324  TYR324     -0.0009
     83  CD2       83.3410   20.2530   65.1420 C.ar  324  TYR324     -0.0009
     84  CE1       82.0020   19.0310   67.2250 C.ar  324  TYR324      0.0417
     85  CE2       82.1530   19.5920   64.9000 C.ar  324  TYR324      0.0417
     86  CZ        81.4860   18.9850   65.9390 C.ar  324  TYR324      0.1957
     87  OH        80.3000   18.3350   65.6810 O.3   324  TYR324     -0.2866
     88  N         87.5980   23.9120   61.4300 N.3   328  LEU328     -0.1245
     89  CA        86.7260   23.8160   60.2640 C.3   328  LEU328      0.1561
     90  C         87.2170   24.7210   59.1350 C.2   328  LEU328      0.2260
     91  O         87.8240   25.7660   59.3810 O.2   328  LEU328     -0.2867
     92  CB        85.2830   24.1560   60.6450 C.3   328  LEU328      0.0270
     93  CG        84.6120   23.1950   61.6290 C.3   328  LEU328      0.0019
     94  CD1       83.2600   23.7250   62.0680 C.3   328  LEU328      0.0001
     95  CD2       84.4650   21.8230   61.0080 C.3   328  LEU328      0.0001
     96  N         64.2290   24.5650   65.4780 N.3   353  LEU353     -0.1231
     97  CA        65.3570   24.2830   66.3580 C.3   353  LEU353      0.1693
     98  C         66.2370   25.5030   66.6250 C.2   353  LEU353      0.2592
     99  O         67.0170   25.5130   67.5730 O.2   353  LEU353     -0.2718
    100  CB        66.2040   23.1310   65.8060 C.3   353  LEU353      0.0284
    101  CG        67.0640   23.3260   64.5600 C.3   353  LEU353      0.0019
    102  CD1       68.4600   23.8600   64.9010 C.3   353  LEU353      0.0001
    103  CD2       67.1600   22.0150   63.7900 C.3   353  LEU353      0.0001
    104  N         66.1200   26.5260   65.7870 N.am  354  TYR354     -0.1976
    105  CA        67.0240   27.6590   65.8720 C.3   354  TYR354      0.1639
    106  C         66.4570   28.7720   66.7430 C.2   354  TYR354      0.2290
    107  O         67.0030   29.8780   66.7830 O.2   354  TYR354     -0.2864
    108  CB        67.3590   28.1850   64.4760 C.3   354  TYR354      0.0560
    109  CG        68.8420   28.3490   64.2200 C.ar  354  TYR354     -0.0198
    110  CD1       69.5850   29.2990   64.9130 C.ar  354  TYR354     -0.0009
    111  CD2       69.4980   27.5610   63.2810 C.ar  354  TYR354     -0.0009
    112  CE1       70.9430   29.4580   64.6750 C.ar  354  TYR354      0.0417
    113  CE2       70.8530   27.7100   63.0360 C.ar  354  TYR354      0.0417
    114  CZ        71.5720   28.6620   63.7330 C.ar  354  TYR354      0.1957
    115  OH        72.9230   28.8170   63.4970 O.3   354  TYR354     -0.2866
    116  N         66.8240   30.1030   69.5850 N.3   356  TRP356     -0.1241
    117  CA        67.8120   30.0850   70.6580 C.3   356  TRP356      0.1605
    118  C         67.6610   31.2500   71.6340 C.2   356  TRP356      0.2264
    119  O         68.6500   31.8270   72.0880 O.2   356  TRP356     -0.2867
    120  CB        69.2280   30.0930   70.0800 C.3   356  TRP356      0.0550
    121  CG        69.5820   28.8630   69.3040 C.ar  356  TRP356      0.0003
    122  CD1       68.8440   27.7210   69.1960 C.ar  356  TRP356      0.0946
    123  CD2       70.7650   28.6530   68.5200 C.ar  356  TRP356      0.0152
    124  NE1       69.4980   26.8110   68.3970 N.ar  356  TRP356     -0.2442
    125  CE2       70.6780   27.3610   67.9690 C.ar  356  TRP356      0.0810
    126  CE3       71.8910   29.4300   68.2350 C.ar  356  TRP356      0.0012
    127  CZ2       71.6710   26.8320   67.1440 C.ar  356  TRP356      0.0191
    128  CZ3       72.8810   28.8950   67.4210 C.ar  356  TRP356      0.0001
    129  CH2       72.7630   27.6120   66.8880 C.ar  356  TRP356      0.0015
    130  N         74.6760   22.9730   73.8060 N.3   487  PHE487     -0.1241
    131  CA        73.6390   22.2240   73.1110 C.3   487  PHE487      0.1605
    132  C         73.6650   20.7490   73.4640 C.2   487  PHE487      0.2264
    133  O         74.7010   20.2130   73.8390 O.2   487  PHE487     -0.2867
    134  CB        73.8110   22.3560   71.5900 C.3   487  PHE487      0.0534
    135  CG        73.5670   23.7370   71.0640 C.ar  487  PHE487     -0.0203
    136  CD1       72.5330   24.5080   71.5600 C.ar  487  PHE487     -0.0042
    137  CD2       74.3740   24.2640   70.0670 C.ar  487  PHE487     -0.0042
    138  CE1       72.3020   25.7790   71.0700 C.ar  487  PHE487     -0.0003
    139  CE2       74.1550   25.5370   69.5770 C.ar  487  PHE487     -0.0003
    140  CZ        73.1180   26.2970   70.0810 C.ar  487  PHE487     -0.0000
    141  N         69.9700   18.7470   69.1330 N.3   491  MET491     -0.1230
    142  CA        70.1780   20.0690   68.5490 C.3   491  MET491      0.1702
    143  C         71.2880   20.0640   67.5000 C.2   491  MET491      0.2592
    144  O         71.1200   20.5920   66.4100 O.2   491  MET491     -0.2718
    145  CB        70.4890   21.1020   69.6340 C.3   491  MET491      0.0401
    146  CG        70.6370   22.5090   69.1030 C.3   491  MET491      0.0596
    147  SD        69.0820   23.1910   68.4740 S.3   491  MET491     -0.1393
    148  CE        68.3230   23.7220   70.0170 C.3   491  MET491      0.0692
    149  N         72.4200   19.4570   67.8310 N.am  492  VAL492     -0.1980
    150  CA        73.5540   19.4130   66.9140 C.3   492  VAL492      0.1595
    151  C         73.2930   18.5390   65.6930 C.2   492  VAL492      0.2287
    152  O         73.5070   18.9740   64.5650 O.2   492  VAL492     -0.2864
    153  CB        74.8350   18.9190   67.6100 C.3   492  VAL492      0.0276
    154  CG1       75.9950   18.9080   66.6300 C.3   492  VAL492      0.0022
    155  CG2       75.1580   19.7990   68.8010 C.3   492  VAL492      0.0022
    156  N         70.7080   20.3540   63.4230 N.3   495  GLY495     -0.1210
    157  CA        71.1150   21.6440   62.9040 C.3   495  GLY495      0.1956
    158  C         72.2850   21.5780   61.9410 C.2   495  GLY495      0.2611
    159  O         72.3690   22.3710   61.0020 O.2   495  GLY495     -0.2717
    160  N         73.1900   20.6360   62.1760 N.am  496  ALA496     -0.1979
    161  CA        74.3920   20.5070   61.3560 C.3   496  ALA496      0.1597
    162  C         74.1340   20.2300   59.8610 C.2   496  ALA496      0.2287
    163  O         74.6380   20.9630   59.0090 O.2   496  ALA496     -0.2864
    164  CB        75.3590   19.4750   61.9590 C.3   496  ALA496      0.0319
    165  N         72.3210   23.1570   58.2450 N.3   499  SER499     -0.1202
    166  CA        73.2140   24.2990   58.1260 C.3   499  SER499      0.2020
    167  C         74.1950   24.1230   56.9700 C.2   499  SER499      0.2618
    168  O         74.4190   25.0510   56.1890 O.2   499  SER499     -0.2717
    169  CB        73.9640   24.5260   59.4400 C.3   499  SER499      0.2103
    170  OG        74.9760   25.5020   59.2850 O.3   499  SER499     -0.2182
    171  N         74.7700   22.9260   56.8690 N.am  500  LEU500     -0.1979
    172  CA        75.7070   22.6070   55.8000 C.3   500  LEU500      0.1596
    173  C         75.0770   22.8360   54.4200 C.2   500  LEU500      0.2287
    174  O         75.6880   23.4440   53.5470 O.2   500  LEU500     -0.2864
    175  CB        76.2090   21.1670   55.9430 C.3   500  LEU500      0.0297
    176  CG        77.0420   20.5810   54.7930 C.3   500  LEU500      0.0022
    177  CD1       78.1650   21.5080   54.4010 C.3   500  LEU500      0.0001
    178  CD2       77.6190   19.2440   55.1860 C.3   500  LEU500      0.0001
    179  N         74.9160   26.5930   53.5510 N.3   503  LEU503     -0.1231
    180  CA        76.1870   27.2430   53.2500 C.3   503  LEU503      0.1693
    181  C         76.8160   26.6840   51.9730 C.2   503  LEU503      0.2591
    182  O         77.1890   27.4260   51.0610 O.2   503  LEU503     -0.2718
    183  CB        77.1700   27.0450   54.4090 C.3   503  LEU503      0.0284
    184  CG        77.0840   27.8580   55.7100 C.3   503  LEU503      0.0019
    185  CD1       76.0650   28.9860   55.6500 C.3   503  LEU503      0.0001
    186  CD2       76.8330   26.9650   56.9090 C.3   503  LEU503      0.0001
    187  N         76.9410   25.3630   51.9330 N.am  504  MET504     -0.1979
    188  CA        77.6190   24.6780   50.8460 C.3   504  MET504      0.1605
    189  C         76.7520   24.5860   49.5920 C.2   504  MET504      0.2287
    190  O         77.2650   24.5370   48.4790 O.2   504  MET504     -0.2864
    191  CB        78.0400   23.2860   51.3050 C.3   504  MET504      0.0413
    192  CG        79.5330   23.1270   51.5220 C.3   504  MET504      0.0598
    193  SD        80.3720   24.5370   52.2780 S.3   504  MET504     -0.1393
    194  CE        81.7630   24.6690   51.1530 C.3   504  MET504      0.0692
@<TRIPOS>BOND
     1   190   189    2
     2   189   188    1
     3   188   191    1
     4   188   187    1
     5   182   181    2
     6   194   193    1
     7   191   192    1
     8   192   193    1
     9   187   181   am
    10   181   180    1
    11    23    21    1
    12    21    20    1
    13    21    22    1
    14   180   179    1
    15   180   183    1
    16    20    17    1
    17   174   173    2
    18    19    18    2
    19    18    17    1
    20   177   176    1
    21   183   184    1
    22   173   172    1
    23    17    16    1
    24   176   178    1
    25   176   175    1
    26     4     3    2
    27     3     2    1
    28    16    11   am
    29    27    26    2
    30    42    40    1
    31    26    25    1
    32   185   184    1
    33   184   186    1
    34   172   175    1
    35   172   171    1
    36     6     5    1
    37     6     7    1
    38     5     2    1
    39   168   167    2
    40     2     1    1
    41    24    25    1
    42    11    12    2
    43    11    10    1
    44     9    10    1
    45    25    28    1
    46   171   167   am
    47    40    39    1
    48   167   166    1
    49     8     7    1
    50    10    13    1
    51    28    29    1
    52    39    41    1
    53    39    36    1
    54   166   165    1
    55   166   169    1
    56    15    13    1
    57    13    14    1
    58    35    36    1
    59   163   162    2
    60    29    30    1
    61    36    37    1
    62    90    91    2
    63    90    89    1
    64   170   169    1
    65   162   161    1
    66    37    38    2
    67    30    31    1
    68    89    92    1
    69    89    88    1
    70    92    93    1
    71   159   158    2
    72    95    93    1
    73   161   164    1
    74   161   160    1
    75    31    32    2
    76    93    94    1
    77    61    59    1
    78   158   160   am
    79   158   157    1
    80    59    60    1
    81    59    56    1
    82    32    33    1
    83    32    34    1
    84   157   156    1
    85   113   111   ar
    86   113   114   ar
    87    50    52   ar
    88    50    48   ar
    89   111   109   ar
    90    47    48    1
    91    47    44    1
    92    55    56    1
    93    55    45   am
    94   115   114    1
    95    43    44    1
    96    52    53   ar
    97    56    57    1
    98   114   112   ar
    99   103   101    1
   100    48    49   ar
   101   109   108    1
   102   109   110   ar
   103    44    45    1
   104    57    58    2
   105   108   105    1
   106    45    46    2
   107   101   102    1
   108   101   100    1
   109   152   151    2
   110    53    54    1
   111    53    51   ar
   112   112   110   ar
   113    49    51   ar
   114    85    83   ar
   115    85    86   ar
   116    83    81   ar
   117    96    97    1
   118    87    86    1
   119   151   150    1
   120   104   105    1
   121   104    98   am
   122   100    97    1
   123   105   106    1
   124    86    84   ar
   125    69    67    1
   126    97    98    1
   127   144   143    2
   128    81    80    1
   129    81    82   ar
   130    74    75    1
   131    74    71    1
   132    68    67    1
   133    98    99    2
   134   154   153    1
   135    80    77    1
   136    67    66    1
   137   106   107    2
   138   129   127   ar
   139   129   128   ar
   140   150   153    1
   141   150   149    1
   142   127   125   ar
   143    84    82   ar
   144   128   126   ar
   145   143   149   am
   146   143   142    1
   147   153   155    1
   148    71    70    1
   149    71    72    1
   150    70    64   am
   151   125   124   ar
   152   125   123   ar
   153    79    78    2
   154    77    78    1
   155    77    76    1
   156    66    63    1
   157   126   123   ar
   158    62    63    1
   159   124   122   ar
   160   147   146    1
   161   147   148    1
   162   123   121   ar
   163   142   141    1
   164   142   145    1
   165    63    64    1
   166    64    65    2
   167    72    73    2
   168   146   145    1
   169   122   121   ar
   170   121   120    1
   171   139   137   ar
   172   139   140   ar
   173   116   117    1
   174   137   135   ar
   175   120   117    1
   176   140   138   ar
   177   117   118    1
   178   135   136   ar
   179   135   134    1
   180   138   136   ar
   181   134   131    1
   182   118   119    2
   183   131   132    1
   184   131   130    1
   185   132   133    2
