@<TRIPOS>MOLECULE
tmp/4m12A00.pdb
 188 186 0 0 0
SMALL
GASTEIGER

@<TRIPOS>ATOM
      1  N        -13.3890   12.8710   20.3930 N.3     2  TRP2       -0.1241
      2  CA       -11.9410   12.8180   20.3710 C.3     2  TRP2        0.1605
      3  C        -11.2980   13.8840   21.2820 C.2     2  TRP2        0.2264
      4  O        -10.1270   13.7450   21.6050 O.2     2  TRP2       -0.2867
      5  CB       -11.4770   12.9820   18.9170 C.3     2  TRP2        0.0550
      6  CG       -12.1880   14.0890   18.2050 C.ar    2  TRP2        0.0003
      7  CD1      -13.4030   14.0240   17.5820 C.ar    2  TRP2        0.0946
      8  CD2      -11.7440   15.4400   18.0820 C.ar    2  TRP2        0.0152
      9  NE1      -13.7400   15.2560   17.0750 N.ar    2  TRP2       -0.2442
     10  CE2      -12.7370   16.1450   17.3640 C.ar    2  TRP2        0.0810
     11  CE3      -10.5880   16.1260   18.4930 C.ar    2  TRP2        0.0012
     12  CZ2      -12.6260   17.5090   17.0800 C.ar    2  TRP2        0.0191
     13  CZ3      -10.4680   17.4740   18.1930 C.ar    2  TRP2        0.0001
     14  CH2      -11.4850   18.1550   17.5130 C.ar    2  TRP2        0.0015
     15  N         -5.3930   18.2990   10.9870 N.3    49  PHE49      -0.1241
     16  CA        -5.4150   17.0760   11.7580 C.3    49  PHE49       0.1605
     17  C         -6.7730   16.8790   12.4580 C.2    49  PHE49       0.2264
     18  O         -7.4450   15.8790   12.1840 O.2    49  PHE49      -0.2867
     19  CB        -4.2240   17.0380   12.7280 C.3    49  PHE49       0.0534
     20  CG        -4.1470   15.7690   13.5400 C.ar   49  PHE49      -0.0203
     21  CD1       -3.6200   14.6030   12.9910 C.ar   49  PHE49      -0.0042
     22  CD2       -4.6170   15.7320   14.8510 C.ar   49  PHE49      -0.0042
     23  CE1       -3.5760   13.4210   13.7380 C.ar   49  PHE49      -0.0003
     24  CE2       -4.5530   14.5520   15.5990 C.ar   49  PHE49      -0.0003
     25  CZ        -4.0410   13.4070   15.0340 C.ar   49  PHE49      -0.0000
     26  N         -9.9700   15.5580   10.5830 N.3    52  GLU52      -0.1231
     27  CA       -10.0840   14.1420   10.2630 C.3    52  GLU52       0.1699
     28  C        -10.3960   13.2980   11.4900 C.2    52  GLU52       0.2592
     29  O        -10.6610   12.1200   11.3340 O.2    52  GLU52      -0.2718
     30  CB        -8.8180   13.6230    9.5570 C.3    52  GLU52       0.0402
     31  CG        -8.8160   13.8860    8.0550 C.3    52  GLU52       0.1161
     32  CD        -7.4840   13.6830    7.3610 C.2    52  GLU52       0.3649
     33  OE1       -6.9250   12.5680    7.4550 O.co2  52  GLU52      -0.2457
     34  OE2       -7.0030   14.6380    6.7130 O.co2  52  GLU52      -0.2457
     35  N        -10.3880   13.8970   12.7060 N.am   53  ALA53      -0.1980
     36  CA       -10.6040   13.1690   13.9560 C.3    53  ALA53       0.1597
     37  C        -11.8470   12.3290   14.0430 C.2    53  ALA53       0.2287
     38  O        -11.7420   11.1840   14.4530 O.2    53  ALA53      -0.2864
     39  CB       -10.4850   14.0910   15.1580 C.3    53  ALA53       0.0319
     40  N        -11.3570    9.3370   11.5020 N.3    56  MET56      -0.1230
     41  CA       -10.1410    8.5870   11.8270 C.3    56  MET56       0.1702
     42  C        -10.1130    7.8990   13.1660 C.2    56  MET56       0.2592
     43  O         -9.4810    6.8490   13.2590 O.2    56  MET56      -0.2718
     44  CB        -8.8660    9.4180   11.5840 C.3    56  MET56       0.0401
     45  CG        -8.6470    9.8010   10.1250 C.3    56  MET56       0.0596
     46  SD        -8.5360    8.4010    8.9710 S.3    56  MET56      -0.1393
     47  CE        -6.8310    8.0170    9.0950 C.3    56  MET56       0.0692
     48  N        -10.7510    8.4710   14.2050 N.am   57  MET57      -0.1979
     49  CA       -10.7890    7.8530   15.5460 C.3    57  MET57       0.1605
     50  C        -11.5110    6.4970   15.5260 C.2    57  MET57       0.2287
     51  O        -11.2320    5.6460   16.3750 O.2    57  MET57      -0.2864
     52  CB       -11.3840    8.7980   16.6150 C.3    57  MET57       0.0413
     53  CG       -12.8940    8.9770   16.5140 C.3    57  MET57       0.0598
     54  SD       -13.5940   10.1240   17.7300 S.3    57  MET57      -0.1393
     55  CE       -15.2670   10.1410   17.1910 C.3    57  MET57       0.0692
     56  N        -11.0720    4.0720   13.3750 N.3    59  LEU59      -0.1245
     57  CA       -10.1180    3.0210   12.9920 C.3    59  LEU59       0.1561
     58  C         -9.6120    2.3140   14.2500 C.2    59  LEU59       0.2260
     59  O         -9.1230    2.9620   15.1770 O.2    59  LEU59      -0.2867
     60  CB        -8.9240    3.5760   12.1890 C.3    59  LEU59       0.0270
     61  CG        -9.1740    4.1660   10.7940 C.3    59  LEU59       0.0019
     62  CD1       -7.9660    4.8850   10.3160 C.3    59  LEU59       0.0001
     63  CD2       -9.4950    3.1150    9.7820 C.3    59  LEU59       0.0001
     64  N         -2.9680   -2.1990   15.5240 N.3    64  LEU64      -0.1231
     65  CA        -2.7120   -0.7650   15.3570 C.3    64  LEU64       0.1693
     66  C         -2.7050   -0.1460   16.7500 C.2    64  LEU64       0.2592
     67  O         -3.5600   -0.4980   17.5850 O.2    64  LEU64      -0.2718
     68  CB        -3.8130   -0.0940   14.5420 C.3    64  LEU64       0.0284
     69  CG        -4.1060   -0.5460   13.1010 C.3    64  LEU64       0.0019
     70  CD1       -5.2160    0.2940   12.5270 C.3    64  LEU64       0.0001
     71  CD2       -2.8700   -0.4470   12.1800 C.3    64  LEU64       0.0001
     72  N         -1.7620    0.7870   16.9990 N.am   65  VAL65      -0.1966
     73  CA        -1.6980    1.5300   18.2630 C.3    65  VAL65       0.1727
     74  C         -2.8670    2.4970   18.2050 C.2    65  VAL65       0.2616
     75  O         -2.9470    3.2930   17.2700 O.2    65  VAL65      -0.2715
     76  CB        -0.3420    2.2800   18.4920 C.3    65  VAL65       0.0290
     77  CG1       -0.3920    3.1660   19.7410 C.3    65  VAL65       0.0023
     78  CG2        0.8400    1.3210   18.5530 C.3    65  VAL65       0.0023
     79  N         -3.7840    2.4110   19.1790 N.am   66  GLN66      -0.1963
     80  CA        -4.9430    3.2890   19.1910 C.3    66  GLN66       0.1733
     81  C         -4.6010    4.6940   19.6610 C.2    66  GLN66       0.2616
     82  O         -3.9570    4.8600   20.6820 O.2    66  GLN66      -0.2715
     83  CB        -6.0890    2.7040   20.0220 C.3    66  GLN66       0.0408
     84  CG        -7.4010    2.6780   19.2410 C.3    66  GLN66       0.0908
     85  CD        -8.6110    2.7030   20.1290 C.2    66  GLN66       0.2608
     86  OE1       -8.9280    1.7310   20.8220 O.2    66  GLN66      -0.2717
     87  NE2       -9.3280    3.8160   20.1110 N.am   66  GLN66      -0.0878
     88  N         -5.0300    5.7010   18.8960 N.am   67  LEU67      -0.1963
     89  CA        -4.8800    7.1210   19.2430 C.3    67  LEU67       0.1728
     90  C         -6.3060    7.4950   19.7160 C.2    67  LEU67       0.2616
     91  O         -7.2360    7.5570   18.9200 O.2    67  LEU67      -0.2715
     92  CB        -4.3910    7.9650   18.0480 C.3    67  LEU67       0.0311
     93  CG        -4.4570    9.5320   18.0730 C.3    67  LEU67       0.0022
     94  CD1       -3.8960   10.1400   19.3590 C.3    67  LEU67       0.0001
     95  CD2       -3.6950   10.1230   16.8560 C.3    67  LEU67       0.0001
     96  N         -6.4760    7.6060   21.0250 N.am   68  TYR68      -0.1960
     97  CA        -7.7520    7.8670   21.7050 C.3    68  TYR68       0.1771
     98  C         -8.3840    9.2370   21.5210 C.2    68  TYR68       0.2620
     99  O         -9.6110    9.3560   21.3820 O.2    68  TYR68      -0.2715
    100  CB        -7.5930    7.5830   23.1770 C.3    68  TYR68       0.0574
    101  CG        -7.2780    6.1340   23.4780 C.ar   68  TYR68      -0.0198
    102  CD1       -8.0920    5.1090   23.0030 C.ar   68  TYR68      -0.0009
    103  CD2       -6.2110    5.7920   24.3000 C.ar   68  TYR68      -0.0009
    104  CE1       -7.8510    3.7760   23.3470 C.ar   68  TYR68       0.0417
    105  CE2       -5.9660    4.4660   24.6590 C.ar   68  TYR68       0.0417
    106  CZ        -6.7830    3.4610   24.1730 C.ar   68  TYR68       0.1957
    107  OH        -6.5300    2.1600   24.5270 O.3    68  TYR68      -0.2866
    108  N         -7.5420   10.2540   21.5230 N.am   69  GLY69      -0.1940
    109  CA        -8.0090   11.6120   21.3780 C.3    69  GLY69       0.2014
    110  C         -6.9140   12.6360   21.4590 C.2    69  GLY69       0.2638
    111  O         -5.7280   12.2950   21.4810 O.2    69  GLY69      -0.2714
    112  N         -7.3370   13.9110   21.4800 N.am   70  VAL70      -0.1977
    113  CA        -6.4650   15.0740   21.4890 C.3    70  VAL70       0.1596
    114  C         -6.8380   16.0120   22.6430 C.2    70  VAL70       0.2287
    115  O         -8.0040   16.3900   22.7790 O.2    70  VAL70      -0.2864
    116  CB        -6.5280   15.8190   20.1210 C.3    70  VAL70       0.0276
    117  CG1       -5.6440   17.0730   20.1200 C.3    70  VAL70       0.0022
    118  CG2       -6.1700   14.8910   18.9480 C.3    70  VAL70       0.0022
    119  N         -2.4390    8.1790   23.2910 N.3    81  PHE81      -0.1241
    120  CA        -2.3680    6.8500   22.6670 C.3    81  PHE81       0.1605
    121  C         -2.4660    5.7120   23.6740 C.2    81  PHE81       0.2264
    122  O         -2.2220    5.9220   24.8670 O.2    81  PHE81      -0.2867
    123  CB        -1.0020    6.6820   21.9840 C.3    81  PHE81       0.0534
    124  CG        -0.6450    7.6190   20.8620 C.ar   81  PHE81      -0.0203
    125  CD1       -0.8170    7.2380   19.5400 C.ar   81  PHE81      -0.0042
    126  CD2       -0.0890    8.8670   21.1250 C.ar   81  PHE81      -0.0042
    127  CE1       -0.4570    8.0950   18.4950 C.ar   81  PHE81      -0.0003
    128  CE2        0.2890    9.7140   20.0820 C.ar   81  PHE81      -0.0003
    129  CZ         0.1000    9.3240   18.7750 C.ar   81  PHE81      -0.0000
    130  N          1.7900    2.3730   14.0970 N.3   145  SER145     -0.1202
    131  CA         1.4300    3.6780   14.6030 C.3   145  SER145      0.2020
    132  C          1.8520    4.7450   13.6040 C.2   145  SER145      0.2619
    133  O          2.5590    4.4370   12.6530 O.2   145  SER145     -0.2717
    134  CB         2.1100    3.9030   15.9520 C.3   145  SER145      0.2103
    135  OG         1.5670    5.0310   16.6130 O.3   145  SER145     -0.2182
    136  N          1.4100    5.9930   13.8130 N.am  146  ASP146     -0.1959
    137  CA         1.7340    7.1940   13.0190 C.3   146  ASP146      0.1840
    138  C          1.3430    7.1710   11.5410 C.2   146  ASP146      0.2622
    139  O          1.9190    7.8940   10.7240 O.2   146  ASP146     -0.2715
    140  CB         3.1900    7.6580   13.2470 C.3   146  ASP146      0.1450
    141  CG         3.5690    7.9660   14.6940 C.2   146  ASP146      0.3671
    142  OD1        2.6920    7.8620   15.5830 O.co2 146  ASP146     -0.2456
    143  OD2        4.7450    8.2700   14.9410 O.co2 146  ASP146     -0.2456
    144  N          0.3200    6.3770   11.2020 N.am  147  PHE147     -0.1960
    145  CA        -0.1710    6.2900    9.8290 C.3   147  PHE147      0.1771
    146  C         -0.8170    7.6020    9.4130 C.2   147  PHE147      0.2620
    147  O         -1.4770    8.2340   10.2350 O.2   147  PHE147     -0.2715
    148  CB        -1.1080    5.0920    9.6310 C.3   147  PHE147      0.0574
    149  CG        -2.0320    4.7350   10.7630 C.ar  147  PHE147     -0.0200
    150  CD1       -3.3230    5.2540   10.8190 C.ar  147  PHE147     -0.0042
    151  CD2       -1.6460    3.8150   11.7330 C.ar  147  PHE147     -0.0042
    152  CE1       -4.1960    4.8950   11.8500 C.ar  147  PHE147     -0.0003
    153  CE2       -2.5250    3.4480   12.7640 C.ar  147  PHE147     -0.0003
    154  CZ        -3.7950    3.9840   12.8060 C.ar  147  PHE147     -0.0000
    155  N         -0.5380    8.0360    8.1840 N.am  148  GLY148     -0.1940
    156  CA        -1.0360    9.2850    7.6210 C.3   148  GLY148      0.2014
    157  C         -0.4920   10.5760    8.2150 C.2   148  GLY148      0.2638
    158  O         -0.8730   11.6570    7.7610 O.2   148  GLY148     -0.2714
    159  N          0.4140   10.4920    9.2140 N.am  149  MET149     -0.1976
    160  CA         0.9550   11.6580    9.9470 C.3   149  MET149      0.1605
    161  C          1.7870   12.6460    9.1390 C.2   149  MET149      0.2287
    162  O          1.8420   13.8300    9.5000 O.2   149  MET149     -0.2864
    163  CB         1.6880   11.2520   11.2410 C.3   149  MET149      0.0413
    164  CG         0.7870   10.5950   12.2820 C.3   149  MET149      0.0598
    165  SD        -0.6590   11.5720   12.7190 S.3   149  MET149     -0.1393
    166  CE         0.0730   12.7200   13.8810 C.3   149  MET149      0.0692
    167  N          1.0410   13.9460    6.4600 N.3   151  ARG151     -0.1231
    168  CA         0.1370   14.8650    5.7540 C.3   151  ARG151      0.1694
    169  C         -0.1270   16.1310    6.5650 C.2   151  ARG151      0.2592
    170  O         -0.7670   17.0680    6.0680 O.2   151  ARG151     -0.2718
    171  CB        -1.1840   14.1680    5.4130 C.3   151  ARG151      0.0321
    172  CG        -1.1070   13.3230    4.1300 C.3   151  ARG151      0.0489
    173  CD        -2.4710   12.8010    3.7150 C.3   151  ARG151      0.2205
    174  NE        -3.0910   12.0040    4.7720 N.pl3 151  ARG151     -0.0865
    175  CZ        -4.1910   12.3380    5.4440 C.cat 151  ARG151      0.5346
    176  NH1       -4.8260   13.4700    5.1730 N.pl3 151  ARG151      0.1354
    177  NH2       -4.6700   11.5360    6.3830 N.pl3 151  ARG151      0.1354
    178  N          0.4100   16.1590    7.7980 N.am  152  PHE152     -0.1976
    179  CA         0.2640   17.2200    8.7930 C.3   152  PHE152      0.1639
    180  C          1.6050   17.7610    9.2480 C.2   152  PHE152      0.2290
    181  O          1.6300   18.8250    9.8570 O.2   152  PHE152     -0.2864
    182  CB        -0.5390   16.6840   10.0110 C.3   152  PHE152      0.0560
    183  CG        -1.8010   15.9680    9.5910 C.ar  152  PHE152     -0.0200
    184  CD1       -2.8720   16.6720    9.0440 C.ar  152  PHE152     -0.0042
    185  CD2       -1.8990   14.5850    9.6890 C.ar  152  PHE152     -0.0042
    186  CE1       -4.0140   16.0010    8.5970 C.ar  152  PHE152     -0.0003
    187  CE2       -3.0530   13.9230    9.2720 C.ar  152  PHE152     -0.0003
    188  CZ        -4.0990   14.6340    8.7210 C.ar  152  PHE152     -0.0000
@<TRIPOS>BOND
     1   173   172    1
     2   173   174    1
     3   172   171    1
     4   174   175    2
     5   176   175    1
     6   171   168    1
     7   175   177    1
     8   168   167    1
     9   168   169    1
    10   170   169    2
    11   169   178   am
    12    34    32   ar
    13    32    33   ar
    14    32    31    1
    15   156   155    1
    16   156   157    1
    17   158   157    2
    18   178   179    1
    19    31    30    1
    20   155   146   am
    21   157   159   am
    22   186   188   ar
    23   186   184   ar
    24   188   187   ar
    25   179   180    1
    26   179   182    1
    27    46    47    1
    28    46    45    1
    29   184   183   ar
    30   161   162    2
    31   161   160    1
    32   159   160    1
    33   180   181    2
    34   187   185   ar
    35   146   145    1
    36   146   147    2
    37    30    27    1
    38   183   185   ar
    39   183   182    1
    40   148   145    1
    41   148   149    1
    42    63    61    1
    43   145   144    1
    44   160   163    1
    45    45    44    1
    46    27    26    1
    47    27    28    1
    48    62    61    1
    49   139   138    2
    50   149   150   ar
    51   149   151   ar
    52    61    60    1
    53   150   152   ar
    54    15    16    1
    55   144   138   am
    56   163   164    1
    57    29    28    2
    58    28    35   am
    59    40    41    1
    60   138   137    1
    61    44    41    1
    62   151   153   ar
    63    16    17    1
    64    16    19    1
    65    41    42    1
    66   152   154   ar
    67    71    69    1
    68    18    17    2
    69    60    57    1
    70   164   165    1
    71    70    69    1
    72   133   132    2
    73    35    36    1
    74   165   166    1
    75    19    20    1
    76   153   154   ar
    77    21    20   ar
    78    21    23   ar
    79    57    56    1
    80    57    58    1
    81   137   140    1
    82   137   136    1
    83    69    68    1
    84    42    43    2
    85    42    48   am
    86   140   141    1
    87    20    22   ar
    88   132   136   am
    89   132   131    1
    90    23    25   ar
    91    36    37    1
    92    36    39    1
    93    37    38    2
    94   130   131    1
    95    48    49    1
    96    58    59    2
    97    68    65    1
    98   131   134    1
    99   141   143   ar
   100   141   142   ar
   101    22    24   ar
   102    25    24   ar
   103    65    64    1
   104    65    66    1
   105    50    49    1
   106    50    51    2
   107    49    52    1
   108   134   135    1
   109    53    52    1
   110    53    54    1
   111    66    72   am
   112    66    67    2
   113    95    93    1
   114    72    73    1
   115     9    10   ar
   116     9     7   ar
   117    12    10   ar
   118    12    14   ar
   119    55    54    1
   120    75    74    2
   121    10     8   ar
   122    14    13   ar
   123     7     6   ar
   124    92    93    1
   125    92    89    1
   126    93    94    1
   127     8     6   ar
   128     8    11   ar
   129    13    11   ar
   130     6     5    1
   131    74    73    1
   132    74    79   am
   133    73    76    1
   134    76    78    1
   135    76    77    1
   136   127   129   ar
   137   127   125   ar
   138   129   128   ar
   139    88    89    1
   140    88    81   am
   141     5     2    1
   142    91    90    2
   143   118   116    1
   144    79    80    1
   145    80    81    1
   146    80    83    1
   147    84    83    1
   148    84    85    1
   149    89    90    1
   150   125   124   ar
   151    81    82    2
   152    90    96   am
   153   128   126   ar
   154    87    85   am
   155   117   116    1
   156   116   113    1
   157    85    86    2
   158     2     1    1
   159     2     3    1
   160   124   126   ar
   161   124   123    1
   162    96    97    1
   163     3     4    2
   164   109   110    1
   165   109   108    1
   166    99    98    2
   167   110   112   am
   168   110   111    2
   169   112   113    1
   170   113   114    1
   171    98   108   am
   172    98    97    1
   173    97   100    1
   174   123   120    1
   175   114   115    2
   176   120   119    1
   177   120   121    1
   178   102   104   ar
   179   102   101   ar
   180   100   101    1
   181   104   106   ar
   182   101   103   ar
   183   121   122    2
   184   106   107    1
   185   106   105   ar
   186   103   105   ar
