@<TRIPOS>MOLECULE
tmp/4m14A00.pdb
 145 139 0 0 0
SMALL
GASTEIGER

@<TRIPOS>ATOM
      1  N          8.6310    9.5000   29.8760 N.3    15  ILE15      -0.1231
      2  CA         9.0850    8.3240   29.1560 C.3    15  ILE15       0.1692
      3  C         10.3470    8.7440   28.3820 C.2    15  ILE15       0.2593
      4  O         11.3710    8.0660   28.4640 O.2    15  ILE15      -0.2718
      5  CB         7.9060    7.8180   28.2700 C.3    15  ILE15       0.0266
      6  CG1        7.0400    6.7850   29.0120 C.3    15  ILE15       0.0019
      7  CG2        8.3570    7.2900   26.9470 C.3    15  ILE15       0.0020
      8  CD1        5.7430    6.3540   28.2250 C.3    15  ILE15       0.0001
      9  N         10.2790    9.8850   27.7040 N.am   16  GLY16      -0.1942
     10  CA        11.4160   10.4080   26.9540 C.3    16  GLY16       0.2014
     11  C         11.0890   11.6280   26.1280 C.2    16  GLY16       0.2640
     12  O          9.9890   12.1730   26.2190 O.2    16  GLY16      -0.2714
     13  N         12.0660   12.0690   25.3220 N.am   17  SER17      -0.1935
     14  CA        11.9140   13.2240   24.4490 C.3    17  SER17       0.2055
     15  C         11.8230   12.7170   23.0150 C.2    17  SER17       0.2643
     16  O         12.7820   12.1420   22.5020 O.2    17  SER17      -0.2714
     17  CB        13.1020   14.1720   24.6090 C.3    17  SER17       0.2130
     18  OG        13.3120   14.5550   25.9600 O.3    17  SER17      -0.2179
     19  N         10.6590   12.9020   22.4000 N.am   18  GLY18      -0.1954
     20  CA        10.3950   12.5020   21.0220 C.3    18  GLY18       0.1869
     21  C         10.7990   13.5630   20.0120 C.2    18  GLY18       0.2309
     22  O         11.5070   14.5210   20.3570 O.2    18  GLY18      -0.2863
     23  N          7.2080   12.7980   25.8020 N.3    23  VAL23      -0.1245
     24  CA         6.2990   11.6560   25.8360 C.3    23  VAL23       0.1561
     25  C          6.2230   11.2700   27.3080 C.2    23  VAL23       0.2260
     26  O          7.2570   11.1200   27.9730 O.2    23  VAL23      -0.2867
     27  CB         6.7400   10.4520   24.9720 C.3    23  VAL23       0.0252
     28  CG1        5.6940    9.3310   25.0190 C.3    23  VAL23       0.0019
     29  CG2        7.0070   10.8700   23.5230 C.3    23  VAL23       0.0019
     30  N         -0.0340    6.6450   26.7840 N.3    35  ALA35      -0.1245
     31  CA         1.1860    7.3640   26.4150 C.3    35  ALA35       0.1562
     32  C          0.6930    8.7120   25.9000 C.2    35  ALA35       0.2260
     33  O         -0.2500    8.7660   25.0960 O.2    35  ALA35      -0.2867
     34  CB         1.9470    6.6310   25.3180 C.3    35  ALA35       0.0290
     35  N          1.7310   12.2730   24.0940 N.3    37  LYS37      -0.1245
     36  CA         2.7710   12.9440   23.3230 C.3    37  LYS37       0.1561
     37  C          2.4240   14.4190   23.2280 C.2    37  LYS37       0.2260
     38  O          1.3770   14.7700   22.6860 O.2    37  LYS37      -0.2867
     39  CB         2.9380   12.3320   21.9210 C.3    37  LYS37       0.0271
     40  CG         3.3420   10.8650   21.9460 C.3    37  LYS37       0.0035
     41  CD         3.8610   10.4230   20.5960 C.3    37  LYS37       0.0206
     42  CE         4.4990    9.0680   20.6900 C.3    37  LYS37       0.1093
     43  NZ         5.2070    8.7070   19.4290 N.3    37  LYS37      -0.1314
     44  N         -1.9030    0.7130   16.8770 N.3    65  VAL65      -0.1245
     45  CA        -1.8660    1.4790   18.1380 C.3    65  VAL65       0.1561
     46  C         -3.0690    2.4550   18.1120 C.2    65  VAL65       0.2260
     47  O         -3.1720    3.2900   17.2020 O.2    65  VAL65      -0.2867
     48  CB        -0.5170    2.2260   18.3320 C.3    65  VAL65       0.0252
     49  CG1       -0.5490    3.1030   19.5920 C.3    65  VAL65       0.0019
     50  CG2        0.6750    1.2690   18.3860 C.3    65  VAL65       0.0019
     51  N         -2.3840    8.1810   23.3760 N.3    81  PHE81      -0.1227
     52  CA        -2.3490    6.8660   22.7530 C.3    81  PHE81       0.1736
     53  C         -2.4430    5.7360   23.7580 C.2    81  PHE81       0.2595
     54  O         -2.0960    5.8850   24.9330 O.2    81  PHE81      -0.2718
     55  CB        -0.9840    6.6790   22.0490 C.3    81  PHE81       0.0547
     56  CG        -0.6670    7.6180   20.9060 C.ar   81  PHE81      -0.0202
     57  CD1       -0.9250    7.2450   19.5940 C.ar   81  PHE81      -0.0042
     58  CD2       -0.0380    8.8370   21.1400 C.ar   81  PHE81      -0.0042
     59  CE1       -0.5880    8.0980   18.5290 C.ar   81  PHE81      -0.0003
     60  CE2        0.2650    9.7120   20.0770 C.ar   81  PHE81      -0.0003
     61  CZ         0.0230    9.3160   18.7800 C.ar   81  PHE81      -0.0000
     62  N         -2.7710    4.5450   23.2410 N.am   82  GLU82      -0.1965
     63  CA        -2.6750    3.2810   23.9410 C.3    82  GLU82       0.1733
     64  C         -1.1710    3.1480   24.3540 C.2    82  GLU82       0.2616
     65  O         -0.2840    3.4730   23.5430 O.2    82  GLU82      -0.2715
     66  CB        -3.0660    2.2110   22.9050 C.3    82  GLU82       0.0429
     67  CG        -2.7550    0.7930   23.2450 C.3    82  GLU82       0.1163
     68  CD        -3.1380   -0.1940   22.1590 C.2    82  GLU82       0.3649
     69  OE1       -3.6570    0.2010   21.0800 O.co2  82  GLU82      -0.2457
     70  OE2       -2.9490   -1.3940   22.4360 O.co2  82  GLU82      -0.2457
     71  N         -0.8900    2.7050   25.5980 N.am   83  PHE83      -0.1960
     72  CA         0.4960    2.5670   26.0450 C.3    83  PHE83       0.1771
     73  C          1.0780    1.2380   25.5620 C.2    83  PHE83       0.2619
     74  O          0.4590    0.1850   25.7560 O.2    83  PHE83      -0.2715
     75  CB         0.6170    2.6820   27.5780 C.3    83  PHE83       0.0574
     76  CG         2.0080    2.4340   28.1070 C.ar   83  PHE83      -0.0200
     77  CD1        3.0690    3.2570   27.7400 C.ar   83  PHE83      -0.0042
     78  CD2        2.2510    1.4040   29.0010 C.ar   83  PHE83      -0.0042
     79  CE1        4.3600    3.0340   28.2520 C.ar   83  PHE83      -0.0003
     80  CE2        3.5340    1.1900   29.5180 C.ar   83  PHE83      -0.0003
     81  CZ         4.5740    2.0130   29.1460 C.ar   83  PHE83      -0.0000
     82  N          2.2470    1.3240   24.9260 N.am   84  MET84      -0.1963
     83  CA         2.9600    0.1830   24.3340 C.3    84  MET84       0.1736
     84  C          4.2170   -0.0050   25.1800 C.2    84  MET84       0.2616
     85  O          5.2060    0.7000   24.9960 O.2    84  MET84      -0.2715
     86  CB         3.2720    0.4720   22.8590 C.3    84  MET84       0.0427
     87  CG         2.0140    0.6620   21.9970 C.3    84  MET84       0.0599
     88  SD         0.9280   -0.7810   21.9840 S.3    84  MET84      -0.1393
     89  CE         1.9510   -1.9070   20.9470 C.3    84  MET84       0.0692
     90  N          4.1600   -0.9650   26.0770 N.am   85  GLU85      -0.1963
     91  CA         5.1800   -1.1840   27.1200 C.3    85  GLU85       0.1733
     92  C          6.6200   -1.3540   26.6950 C.2    85  GLU85       0.2616
     93  O          7.5280   -0.9520   27.4310 O.2    85  GLU85      -0.2715
     94  CB         4.7450   -2.2490   28.1470 C.3    85  GLU85       0.0429
     95  CG         4.6790   -3.6680   27.6350 C.3    85  GLU85       0.1163
     96  CD         4.3130   -4.6790   28.7070 C.2    85  GLU85       0.3649
     97  OE1        5.1450   -4.9220   29.6120 O.co2  85  GLU85      -0.2457
     98  OE2        3.1910   -5.2300   28.6410 O.co2  85  GLU85      -0.2457
     99  N          6.8440   -1.9600   25.5190 N.am   86  HIS86      -0.1959
    100  CA         8.2260   -2.1890   25.0820 C.3    86  HIS86       0.1787
    101  C          8.8040   -1.1870   24.0940 C.2    86  HIS86       0.2621
    102  O          9.9080   -1.3990   23.5880 O.2    86  HIS86      -0.2715
    103  CB         8.4450   -3.6380   24.6440 C.3    86  HIS86       0.0785
    104  CG         8.2770   -4.6120   25.7580 C.ar   86  HIS86       0.0821
    105  ND1        7.1840   -5.4540   25.8190 N.ar   86  HIS86      -0.2267
    106  CD2        9.0460   -4.8090   26.8520 C.ar   86  HIS86       0.1154
    107  CE1        7.3350   -6.1580   26.9300 C.ar   86  HIS86       0.1986
    108  NE2        8.4320   -5.7990   27.5910 N.ar   86  HIS86      -0.2212
    109  N          8.0640   -0.1180   23.8030 N.am   87  GLY87      -0.1940
    110  CA         8.5490    0.9450   22.9390 C.3    87  GLY87       0.2014
    111  C          8.6580    0.6220   21.4690 C.2    87  GLY87       0.2639
    112  O          7.9820   -0.2840   20.9780 O.2    87  GLY87      -0.2714
    113  N          9.4890    1.3970   20.7450 N.am   88  CYS88      -0.1967
    114  CA         9.5660    1.1970   19.3010 C.3    88  CYS88       0.1712
    115  C         10.2680   -0.0700   18.8880 C.2    88  CYS88       0.2296
    116  O         11.2280   -0.5170   19.5290 O.2    88  CYS88      -0.2864
    117  CB        10.0830    2.4260   18.5560 C.3    88  CYS88       0.0983
    118  SG        11.8630    2.6830   18.7170 S.3    88  CYS88      -0.0798
    119  N         14.2500   -0.0140   18.1910 N.3    91  ASP91      -0.1239
    120  CA        15.0960   -0.1200   19.3890 C.3    91  ASP91       0.1674
    121  C         14.9950   -1.5030   20.0350 C.2    91  ASP91       0.2266
    122  O         15.9920   -2.0320   20.5340 O.2    91  ASP91      -0.2867
    123  CB        14.7160    0.9600   20.4170 C.3    91  ASP91       0.1410
    124  CG        15.0790    2.3680   19.9840 C.2    91  ASP91       0.3668
    125  OD1       15.9650    2.5130   19.1160 O.co2  91  ASP91      -0.2456
    126  OD2       14.4710    3.3210   20.5070 O.co2  91  ASP91      -0.2456
    127  N         10.7410    2.0290   13.1100 N.3   132  ARG132     -0.1245
    128  CA        10.7090    3.1450   14.0920 C.3   132  ARG132      0.1563
    129  C          9.2920    3.5960   14.4240 C.2   132  ARG132      0.2260
    130  O          9.1020    4.1800   15.4870 O.2   132  ARG132     -0.2867
    131  CB        11.5760    4.3330   13.6190 C.3   132  ARG132      0.0307
    132  CG        11.1640    4.8870   12.2530 C.3   132  ARG132      0.0489
    133  CD        12.1110    5.9400   11.6630 C.3   132  ARG132      0.2205
    134  NE        12.0290    5.9640   10.1890 N.pl3 132  ARG132     -0.0865
    135  CZ        11.0320    6.5090    9.4880 C.cat 132  ARG132      0.5346
    136  NH1       10.0310    7.1270   10.1090 N.pl3 132  ARG132      0.1354
    137  NH2       11.0400    6.4570    8.1660 N.pl3 132  ARG132      0.1354
    138  N          5.2300   -0.2880   17.2210 N.3   135  LEU135     -0.1245
    139  CA         5.4260   -0.3770   18.6630 C.3   135  LEU135      0.1561
    140  C          5.2070   -1.7760   19.1790 C.2   135  LEU135      0.2260
    141  O          4.4890   -2.5680   18.5610 O.2   135  LEU135     -0.2867
    142  CB         4.5630    0.6900   19.4130 C.3   135  LEU135      0.0270
    143  CG         4.7800    2.1510   18.9190 C.3   135  LEU135      0.0019
    144  CD1        3.8220    3.1350   19.5690 C.3   135  LEU135      0.0001
    145  CD2        6.1910    2.6270   19.1970 C.3   135  LEU135      0.0001
@<TRIPOS>BOND
     1   137   135    1
     2   135   136    1
     3   135   134    2
     4   134   133    1
     5   133   132    1
     6   132   131    1
     7   127   128    1
     8   131   128    1
     9   128   129    1
    10   129   130    2
    11    44    45    1
    12    47    46    2
    13   138   139    1
    14    46    45    1
    15    45    48    1
    16   119   120    1
    17    48    50    1
    18    48    49    1
    19    59    61   ar
    20    59    57   ar
    21   117   118    1
    22   117   114    1
    23   141   140    2
    24   139   140    1
    25   139   142    1
    26    61    60   ar
    27   115   114    1
    28   115   116    2
    29   143   145    1
    30   143   142    1
    31   143   144    1
    32   125   124   ar
    33   114   113    1
    34   120   121    1
    35   120   123    1
    36    43    42    1
    37    57    56   ar
    38   124   123    1
    39   124   126   ar
    40    21    22    2
    41    21    20    1
    42   121   122    2
    43    60    58   ar
    44    41    42    1
    45    41    40    1
    46   113   111   am
    47    56    58   ar
    48    56    55    1
    49    89    88    1
    50   112   111    2
    51    20    19    1
    52    69    68   ar
    53   111   110    1
    54    39    40    1
    55    39    36    1
    56    88    87    1
    57    87    86    1
    58    55    52    1
    59    68    70   ar
    60    68    67    1
    61    19    15   am
    62    16    15    2
    63    38    37    2
    64    52    51    1
    65    52    53    1
    66    86    83    1
    67    66    67    1
    68    66    63    1
    69   110   109    1
    70    15    14    1
    71    37    36    1
    72    62    53   am
    73    62    63    1
    74    36    35    1
    75    29    27    1
    76    65    64    2
    77   102   101    2
    78    53    54    2
    79   109   101   am
    80    63    64    1
    81   101   100    1
    82    83    82    1
    83    83    84    1
    84    64    71   am
    85    14    17    1
    86    14    13    1
    87    17    18    1
    88   103   100    1
    89   103   104    1
    90    82    73   am
    91    27    28    1
    92    27    24    1
    93    85    84    2
    94   100    99    1
    95    33    32    2
    96    84    90   am
    97    34    31    1
    98    13    11   am
    99    99    92   am
   100    73    74    2
   101    73    72    1
   102    71    72    1
   103   104   105   ar
   104   104   106   ar
   105    23    24    1
   106   105   107   ar
   107    24    25    1
   108    32    31    1
   109    72    75    1
   110    90    91    1
   111    11    12    2
   112    11    10    1
   113    31    30    1
   114    92    91    1
   115    92    93    2
   116   106   108   ar
   117   107   108   ar
   118     7     5    1
   119    10     9    1
   120    91    94    1
   121    25    26    2
   122    75    76    1
   123    95    94    1
   124    95    96    1
   125     9     3   am
   126    77    76   ar
   127    77    79   ar
   128    76    78   ar
   129     8     6    1
   130    79    81   ar
   131     5     6    1
   132     5     2    1
   133     3     4    2
   134     3     2    1
   135    98    96   ar
   136    96    97   ar
   137    78    80   ar
   138    81    80   ar
   139     2     1    1
