@<TRIPOS>MOLECULE
tmp/4m15A01.pdb
 162 154 0 0 0
SMALL
GASTEIGER

@<TRIPOS>ATOM
      1  N          8.7690    9.2800   29.3730 N.3    15  ILE15      -0.1231
      2  CA         9.1340    8.0640   28.6390 C.3    15  ILE15       0.1692
      3  C         10.3360    8.3940   27.7610 C.2    15  ILE15       0.2593
      4  O         11.3070    7.6430   27.7400 O.2    15  ILE15      -0.2718
      5  CB         7.9520    7.5400   27.7610 C.3    15  ILE15       0.0266
      6  CG1        6.8240    6.9740   28.6190 C.3    15  ILE15       0.0019
      7  CG2        8.4480    6.4870   26.7430 C.3    15  ILE15       0.0020
      8  CD1        5.6400    6.4730   27.8450 C.3    15  ILE15       0.0001
      9  N         10.2560    9.5080   27.0420 N.am   16  GLY16      -0.1942
     10  CA        11.3470    9.9270   26.1760 C.3    16  GLY16       0.2014
     11  C         11.0400   11.1770   25.3870 C.2    16  GLY16       0.2640
     12  O         10.0320   11.8330   25.6260 O.2    16  GLY16      -0.2714
     13  N         11.9580   11.5350   24.4830 N.am   17  SER17      -0.1935
     14  CA        11.8420   12.6960   23.6070 C.3    17  SER17       0.2055
     15  C         11.6460   12.2240   22.1820 C.2    17  SER17       0.2644
     16  O         12.3140   11.2950   21.7240 O.2    17  SER17      -0.2714
     17  CB        13.0920   13.5680   23.6940 C.3    17  SER17       0.2130
     18  OG        13.0360   14.4530   24.7990 O.3    17  SER17      -0.2179
     19  N         10.6990   12.8460   21.5060 N.am   18  GLY18      -0.1939
     20  CA        10.3980   12.5680   20.1130 C.3    18  GLY18       0.2014
     21  C         10.8140   13.7300   19.2370 C.2    18  GLY18       0.2639
     22  O         11.3750   14.7190   19.7310 O.2    18  GLY18      -0.2714
     23  N         10.5260   13.6090   17.9310 N.am   19  GLN19      -0.1963
     24  CA        10.8110   14.6150   16.9070 C.3    19  GLN19       0.1733
     25  C         10.1670   15.9650   17.2660 C.2    19  GLN19       0.2616
     26  O         10.8040   17.0110   17.1280 O.2    19  GLN19      -0.2715
     27  CB        10.2450   14.1300   15.5540 C.3    19  GLN19       0.0408
     28  CG        11.0780   14.5220   14.3380 C.3    19  GLN19       0.0908
     29  CD        10.6390   13.7960   13.0820 C.2    19  GLN19       0.2608
     30  OE1       10.4260   12.5750   13.0710 O.2    19  GLN19      -0.2717
     31  NE2       10.5350   14.5260   11.9800 N.am   19  GLN19      -0.0878
     32  N          8.9160   15.9320   17.7490 N.am   20  PHE20      -0.1974
     33  CA         8.1800   17.1570   18.0390 C.3    20  PHE20       0.1639
     34  C          7.8850   17.4720   19.5010 C.2    20  PHE20       0.2290
     35  O          7.2510   18.4810   19.8070 O.2    20  PHE20      -0.2864
     36  CB         6.9400   17.2610   17.1340 C.3    20  PHE20       0.0560
     37  CG         7.2420   16.9090   15.6900 C.ar   20  PHE20      -0.0200
     38  CD1        8.1730   17.6420   14.9550 C.ar   20  PHE20      -0.0042
     39  CD2        6.6230   15.8290   15.0800 C.ar   20  PHE20      -0.0042
     40  CE1        8.4670   17.3050   13.6300 C.ar   20  PHE20      -0.0003
     41  CE2        6.9140   15.4950   13.7510 C.ar   20  PHE20      -0.0003
     42  CZ         7.8340   16.2360   13.0360 C.ar   20  PHE20      -0.0000
     43  N          7.3120   12.6770   25.4470 N.3    23  VAL23      -0.1245
     44  CA         6.3410   11.5830   25.5710 C.3    23  VAL23       0.1561
     45  C          6.3410   11.2100   27.0410 C.2    23  VAL23       0.2260
     46  O          7.4200   11.0110   27.6290 O.2    23  VAL23      -0.2867
     47  CB         6.6810   10.3540   24.7180 C.3    23  VAL23       0.0252
     48  CG1        5.5460    9.3230   24.8070 C.3    23  VAL23       0.0019
     49  CG2        6.9290   10.7530   23.2600 C.3    23  VAL23       0.0019
     50  N          0.1210    6.6760   26.7780 N.3    35  ALA35      -0.1245
     51  CA         1.3410    7.4130   26.4080 C.3    35  ALA35       0.1562
     52  C          0.8410    8.7650   25.8610 C.2    35  ALA35       0.2260
     53  O         -0.0080    8.7980   24.9630 O.2    35  ALA35      -0.2867
     54  CB         2.0930    6.6600   25.3280 C.3    35  ALA35       0.0290
     55  N          1.8340   12.3420   24.0040 N.3    37  LYS37      -0.1245
     56  CA         2.8840   12.9970   23.2240 C.3    37  LYS37       0.1561
     57  C          2.5440   14.4770   23.1560 C.2    37  LYS37       0.2260
     58  O          1.4880   14.8280   22.6440 O.2    37  LYS37      -0.2867
     59  CB         2.9720   12.4110   21.8100 C.3    37  LYS37       0.0271
     60  CG         3.4230   10.9580   21.7650 C.3    37  LYS37       0.0035
     61  CD         3.8780   10.5830   20.3530 C.3    37  LYS37       0.0206
     62  CE         3.9830    9.0990   20.1580 C.3    37  LYS37       0.1093
     63  NZ         4.1820    8.7410   18.7250 N.3    37  LYS37      -0.1314
     64  N         -1.8930    0.7040   16.9540 N.3    65  VAL65      -0.1245
     65  CA        -1.8570    1.4680   18.2090 C.3    65  VAL65       0.1561
     66  C         -3.0270    2.4640   18.1610 C.2    65  VAL65       0.2260
     67  O         -3.1040    3.2840   17.2300 O.2    65  VAL65      -0.2867
     68  CB        -0.5150    2.2230   18.3680 C.3    65  VAL65       0.0252
     69  CG1       -0.5340    3.1130   19.6210 C.3    65  VAL65       0.0019
     70  CG2        0.6700    1.2500   18.4400 C.3    65  VAL65       0.0019
     71  N         -2.2750    8.2360   23.3770 N.3    81  PHE81      -0.1227
     72  CA        -2.2240    6.9420   22.7200 C.3    81  PHE81       0.1736
     73  C         -2.3140    5.7930   23.7030 C.2    81  PHE81       0.2595
     74  O         -1.9850    5.9080   24.8870 O.2    81  PHE81      -0.2718
     75  CB        -0.8380    6.7750   22.0280 C.3    81  PHE81       0.0547
     76  CG        -0.5560    7.6940   20.8600 C.ar   81  PHE81      -0.0202
     77  CD1       -0.8410    7.2970   19.5620 C.ar   81  PHE81      -0.0042
     78  CD2        0.0650    8.9250   21.0580 C.ar   81  PHE81      -0.0042
     79  CE1       -0.5440    8.1310   18.4710 C.ar   81  PHE81      -0.0003
     80  CE2        0.3350    9.7810   19.9700 C.ar   81  PHE81      -0.0003
     81  CZ         0.0480    9.3700   18.6790 C.ar   81  PHE81      -0.0000
     82  N         -2.6470    4.6300   23.1600 N.am   82  GLU82      -0.1965
     83  CA        -2.5580    3.3770   23.8720 C.3    82  GLU82       0.1733
     84  C         -1.0710    3.1910   24.3210 C.2    82  GLU82       0.2616
     85  O         -0.1650    3.4220   23.5190 O.2    82  GLU82      -0.2715
     86  CB        -2.9230    2.3020   22.8290 C.3    82  GLU82       0.0429
     87  CG        -2.8220    0.8780   23.2910 C.3    82  GLU82       0.1163
     88  CD        -3.0860   -0.1520   22.2060 C.2    82  GLU82       0.3649
     89  OE1       -3.6250    0.1870   21.1160 O.co2  82  GLU82      -0.2457
     90  OE2       -2.8350   -1.3320   22.5190 O.co2  82  GLU82      -0.2457
     91  N         -0.8370    2.7700   25.5890 N.am   83  PHE83      -0.1960
     92  CA         0.5100    2.5760   26.0830 C.3    83  PHE83       0.1771
     93  C          1.0770    1.2410   25.6060 C.2    83  PHE83       0.2619
     94  O          0.4410    0.1930   25.8100 O.2    83  PHE83      -0.2715
     95  CB         0.5440    2.6670   27.6250 C.3    83  PHE83       0.0574
     96  CG         1.9110    2.4210   28.2020 C.ar   83  PHE83      -0.0200
     97  CD1        2.9460    3.3270   27.9970 C.ar   83  PHE83      -0.0042
     98  CD2        2.1660    1.2860   28.9460 C.ar   83  PHE83      -0.0042
     99  CE1        4.2200    3.0900   28.5380 C.ar   83  PHE83      -0.0003
    100  CE2        3.4300    1.0500   29.4840 C.ar   83  PHE83      -0.0003
    101  CZ         4.4430    1.9630   29.2850 C.ar   83  PHE83      -0.0000
    102  N          2.2700    1.2970   24.9920 N.am   84  MET84      -0.1977
    103  CA         2.9670    0.1140   24.4350 C.3    84  MET84       0.1605
    104  C          4.2010   -0.1200   25.3020 C.2    84  MET84       0.2287
    105  O          5.1940    0.6000   25.1740 O.2    84  MET84      -0.2864
    106  CB         3.3020    0.3330   22.9380 C.3    84  MET84       0.0413
    107  CG         2.0520    0.6120   22.0820 C.3    84  MET84       0.0598
    108  SD         0.8870   -0.7610   22.0500 S.3    84  MET84      -0.1393
    109  CE         1.8630   -1.9420   21.0980 C.3    84  MET84       0.0692
    110  N          8.0130   -0.2290   23.9690 N.3    87  GLY87      -0.1210
    111  CA         8.5190    0.8390   23.1180 C.3    87  GLY87       0.1956
    112  C          8.6530    0.5370   21.6410 C.2    87  GLY87       0.2612
    113  O          7.9530   -0.3330   21.1130 O.2    87  GLY87      -0.2717
    114  N          9.4830    1.3180   20.9430 N.am   88  CYS88      -0.1970
    115  CA         9.5550    1.1230   19.4990 C.3    88  CYS88       0.1712
    116  C         10.2730   -0.1270   19.0640 C.2    88  CYS88       0.2296
    117  O         11.2020   -0.6060   19.7190 O.2    88  CYS88      -0.2864
    118  CB        10.0260    2.3630   18.7550 C.3    88  CYS88       0.0983
    119  SG        11.7920    2.6790   18.9110 S.3    88  CYS88      -0.0798
    120  N         14.2850   -0.0570   18.3430 N.3    91  ASP91      -0.1239
    121  CA        15.0760   -0.1690   19.5790 C.3    91  ASP91       0.1674
    122  C         14.9590   -1.5580   20.2110 C.2    91  ASP91       0.2266
    123  O         15.9540   -2.1110   20.6950 O.2    91  ASP91      -0.2867
    124  CB        14.6240    0.8970   20.5890 C.3    91  ASP91       0.1410
    125  CG        14.9770    2.3220   20.2200 C.2    91  ASP91       0.3668
    126  OD1       15.9060    2.5150   19.4140 O.co2  91  ASP91      -0.2456
    127  OD2       14.3460    3.2460   20.7700 O.co2  91  ASP91      -0.2456
    128  N         10.7250    1.9840   13.1380 N.3   132  ARG132     -0.1231
    129  CA        10.6780    3.0730   14.1510 C.3   132  ARG132      0.1694
    130  C          9.2350    3.5080   14.4580 C.2   132  ARG132      0.2592
    131  O          8.9890    4.0860   15.5180 O.2   132  ARG132     -0.2718
    132  CB        11.5330    4.2690   13.7090 C.3   132  ARG132      0.0321
    133  CG        11.0870    4.8890   12.4020 C.3   132  ARG132      0.0489
    134  CD        12.0840    5.8840   11.8210 C.3   132  ARG132      0.2205
    135  NE        12.0650    5.8420   10.3500 N.pl3 132  ARG132     -0.0865
    136  CZ        11.1530    6.4440    9.5940 C.cat 132  ARG132      0.5346
    137  NH1       10.1710    7.1430   10.1530 N.pl3 132  ARG132      0.1354
    138  NH2       11.2080    6.3440    8.2780 N.pl3 132  ARG132      0.1354
    139  N          8.2910    3.2490   13.5250 N.am  133  ASN133     -0.1974
    140  CA         6.8750    3.5990   13.6970 C.3   133  ASN133      0.1688
    141  C          5.9880    2.4440   14.1550 C.2   133  ASN133      0.2292
    142  O          4.7500    2.5440   14.1180 O.2   133  ASN133     -0.2864
    143  CB         6.3140    4.2300   12.4240 C.3   133  ASN133      0.1181
    144  CG         6.7270    5.6460   12.2680 C.2   133  ASN133      0.2629
    145  OD1        6.8730    6.3710   13.2540 O.2   133  ASN133     -0.2716
    146  ND2        6.9580    6.0690   11.0420 N.am  133  ASN133     -0.0877
    147  N          5.3040   -0.3240   17.3550 N.3   135  LEU135     -0.1245
    148  CA         5.4970   -0.4200   18.7970 C.3   135  LEU135      0.1561
    149  C          5.2690   -1.8210   19.3000 C.2   135  LEU135      0.2260
    150  O          4.5390   -2.6060   18.6710 O.2   135  LEU135     -0.2867
    151  CB         4.6010    0.6050   19.5040 C.3   135  LEU135      0.0270
    152  CG         5.0370    2.0710   19.2810 C.3   135  LEU135      0.0019
    153  CD1        3.8780    3.0360   19.4280 C.3   135  LEU135      0.0001
    154  CD2        6.0800    2.4930   20.3020 C.3   135  LEU135      0.0001
    155  N          1.2650    5.9280   13.7910 N.3   146  ASP146     -0.1239
    156  CA         1.6850    7.1010   13.0330 C.3   146  ASP146      0.1674
    157  C          1.2780    7.1170   11.5520 C.2   146  ASP146      0.2266
    158  O          1.7640    7.9320   10.7600 O.2   146  ASP146     -0.2867
    159  CB         3.2020    7.3750   13.2080 C.3   146  ASP146      0.1410
    160  CG         3.6500    7.7800   14.6040 C.2   146  ASP146      0.3668
    161  OD1        2.8690    7.5840   15.5680 O.co2 146  ASP146     -0.2456
    162  OD2        4.8090    8.2170   14.7470 O.co2 146  ASP146     -0.2456
@<TRIPOS>BOND
     1   138   136    1
     2   136   137    1
     3   136   135    2
     4   135   134    1
     5   158   157    2
     6   146   144   am
     7   157   156    1
     8   134   133    1
     9    31    29   am
    10   144   143    1
    11   144   145    2
    12   133   132    1
    13   143   140    1
    14   156   159    1
    15   156   155    1
    16    42    40   ar
    17    42    41   ar
    18    30    29    2
    19    29    28    1
    20   128   129    1
    21   159   160    1
    22   139   140    1
    23   139   130   am
    24    40    38   ar
    25   140   141    1
    26   132   129    1
    27    41    39   ar
    28   142   141    2
    29   129   130    1
    30    28    27    1
    31   130   131    2
    32   160   162   ar
    33   160   161   ar
    34    38    37   ar
    35    39    37   ar
    36    27    24    1
    37    37    36    1
    38    24    25    1
    39    24    23    1
    40    64    65    1
    41    26    25    2
    42    36    33    1
    43    67    66    2
    44    25    32   am
    45   147   148    1
    46    32    33    1
    47    23    21   am
    48    33    34    1
    49    66    65    1
    50    65    68    1
    51   120   121    1
    52    68    70    1
    53    68    69    1
    54    79    81   ar
    55    79    77   ar
    56   150   149    2
    57    81    80   ar
    58    63    62    1
    59   118   119    1
    60   118   115    1
    61   148   149    1
    62   148   151    1
    63   116   115    1
    64   116   117    2
    65    21    22    2
    66    21    20    1
    67   152   153    1
    68   152   151    1
    69   152   154    1
    70   126   125   ar
    71   115   114    1
    72    34    35    2
    73    77    76   ar
    74   121   122    1
    75   121   124    1
    76    80    78   ar
    77    20    19    1
    78    62    61    1
    79   122   123    2
    80   125   124    1
    81   125   127   ar
    82    61    60    1
    83    76    78   ar
    84    76    75    1
    85   114   112   am
    86   109   108    1
    87   113   112    2
    88    89    88   ar
    89    19    15   am
    90   112   111    1
    91    16    15    2
    92    60    59    1
    93    59    56    1
    94    75    72    1
    95   108   107    1
    96   107   106    1
    97    15    14    1
    98    88    90   ar
    99    88    87    1
   100    58    57    2
   101    72    71    1
   102    72    73    1
   103    86    87    1
   104    86    83    1
   105   106   103    1
   106   111   110    1
   107    57    56    1
   108    82    73   am
   109    82    83    1
   110    56    55    1
   111    49    47    1
   112    85    84    2
   113    14    17    1
   114    14    13    1
   115    17    18    1
   116    73    74    2
   117    83    84    1
   118    84    91   am
   119   103   102    1
   120   103   104    1
   121    13    11   am
   122    47    48    1
   123    47    44    1
   124    53    52    2
   125   102    93   am
   126   105   104    2
   127    54    51    1
   128    11    12    2
   129    11    10    1
   130    43    44    1
   131    44    45    1
   132    91    92    1
   133    93    94    2
   134    93    92    1
   135    52    51    1
   136    92    95    1
   137    10     9    1
   138    51    50    1
   139     7     5    1
   140    45    46    2
   141     9     3   am
   142    95    96    1
   143     4     3    2
   144     5     6    1
   145     5     2    1
   146     3     2    1
   147     8     6    1
   148    97    96   ar
   149    97    99   ar
   150    96    98   ar
   151    99   101   ar
   152     2     1    1
   153    98   100   ar
   154   101   100   ar
