@<TRIPOS>MOLECULE
tmp/4m18J00.pdb
 94 86 0 0 0
SMALL
GASTEIGER

@<TRIPOS>ATOM
      1  N       -107.9920  -36.7090  -52.0930 N.3   108  GLU108     -0.1245
      2  CA      -107.6450  -35.4090  -52.6590 C.3   108  GLU108      0.1567
      3  C       -107.3860  -35.5020  -54.1680 C.2   108  GLU108      0.2260
      4  O       -106.9870  -36.5550  -54.6670 O.2   108  GLU108     -0.2867
      5  CB      -106.4160  -34.8440  -51.9380 C.3   108  GLU108      0.0388
      6  CG      -106.5260  -34.8500  -50.4130 C.3   108  GLU108      0.1160
      7  CD      -107.5740  -33.8820  -49.8760 C.2   108  GLU108      0.3649
      8  OE1     -107.9790  -32.9510  -50.6080 O.co2 108  GLU108     -0.2457
      9  OE2     -107.9910  -34.0550  -48.7110 O.co2 108  GLU108     -0.2457
     10  N       -110.1900  -32.4680  -53.2530 N.3   110  ASN110     -0.1240
     11  CA      -111.6190  -32.4980  -52.9520 C.3   110  ASN110      0.1653
     12  C       -112.3140  -31.1370  -53.0120 C.2   110  ASN110      0.2266
     13  O       -113.5450  -31.0660  -52.9790 O.2   110  ASN110     -0.2867
     14  CB      -111.8610  -33.1620  -51.5890 C.3   110  ASN110      0.1155
     15  CG      -111.0870  -32.4930  -50.4570 C.2   110  ASN110      0.2627
     16  OD1     -110.4060  -31.4840  -50.6550 O.2   110  ASN110     -0.2716
     17  ND2     -111.1840  -33.0660  -49.2620 N.am  110  ASN110     -0.0877
     18  N       -112.5120  -28.8080  -50.7290 N.3   112  ALA112     -0.1245
     19  CA      -113.3250  -28.7140  -49.5170 C.3   112  ALA112      0.1562
     20  C       -113.8810  -27.3090  -49.2920 C.2   112  ALA112      0.2260
     21  O       -113.1370  -26.3260  -49.2960 O.2   112  ALA112     -0.2867
     22  CB      -112.5240  -29.1710  -48.3040 C.3   112  ALA112      0.0290
     23  N       -110.8240  -24.4210  -52.1370 N.3   116  GLU116     -0.1245
     24  CA      -109.4540  -24.9060  -52.0270 C.3   116  GLU116      0.1567
     25  C       -108.8160  -24.9380  -53.4080 C.2   116  GLU116      0.2260
     26  O       -109.0780  -25.8420  -54.2070 O.2   116  GLU116     -0.2867
     27  CB      -109.4010  -26.2820  -51.3620 C.3   116  GLU116      0.0388
     28  CG      -109.7170  -26.2450  -49.8770 C.3   116  GLU116      0.1160
     29  CD      -109.4350  -27.5590  -49.1730 C.2   116  GLU116      0.3649
     30  OE1     -109.5220  -28.6290  -49.8180 O.co2 116  GLU116     -0.2457
     31  OE2     -109.1150  -27.5140  -47.9680 O.co2 116  GLU116     -0.2457
     32  N       -100.6820  -28.1290  -51.1740 N.3   120  GLU120     -0.1245
     33  CA       -99.6310  -28.2430  -50.1730 C.3   120  GLU120      0.1567
     34  C        -99.0420  -29.6450  -50.1950 C.2   120  GLU120      0.2260
     35  O        -99.7060  -30.6010  -50.6060 O.2   120  GLU120     -0.2867
     36  CB      -100.1720  -27.9290  -48.7790 C.3   120  GLU120      0.0388
     37  CG      -101.2100  -28.9240  -48.2850 C.3   120  GLU120      0.1160
     38  CD      -101.6580  -28.6430  -46.8670 C.2   120  GLU120      0.3649
     39  OE1     -100.9390  -27.9250  -46.1400 O.co2 120  GLU120     -0.2457
     40  OE2     -102.7330  -29.1440  -46.4800 O.co2 120  GLU120     -0.2457
     41  N        -97.1960  -32.5880  -47.7760 N.3   122  PHE122     -0.1241
     42  CA       -96.9950  -33.0070  -46.3940 C.3   122  PHE122      0.1605
     43  C        -95.6220  -33.6320  -46.2010 C.2   122  PHE122      0.2264
     44  O        -94.8460  -33.7640  -47.1520 O.2   122  PHE122     -0.2867
     45  CB       -98.0780  -34.0030  -45.9790 C.3   122  PHE122      0.0534
     46  CG       -99.4660  -33.4460  -46.0450 C.ar  122  PHE122     -0.0203
     47  CD1      -99.7570  -32.2090  -45.4970 C.ar  122  PHE122     -0.0042
     48  CD2     -100.4800  -34.1510  -46.6730 C.ar  122  PHE122     -0.0042
     49  CE1     -101.0360  -31.6900  -45.5630 C.ar  122  PHE122     -0.0003
     50  CE2     -101.7610  -33.6380  -46.7450 C.ar  122  PHE122     -0.0003
     51  CZ      -102.0390  -32.4060  -46.1900 C.ar  122  PHE122     -0.0000
     52  N       -102.2300  -32.1430  -51.1840 N.3   128  ASN128     -0.1225
     53  CA      -103.5820  -31.8240  -50.7440 C.3   128  ASN128      0.1785
     54  C       -103.9720  -30.4280  -51.1880 C.2   128  ASN128      0.2597
     55  O       -103.2410  -29.4660  -50.9480 O.2   128  ASN128     -0.2718
     56  CB      -103.7010  -31.9250  -49.2230 C.3   128  ASN128      0.1169
     57  CG      -104.9990  -31.3280  -48.6960 C.2   128  ASN128      0.2627
     58  OD1     -106.0720  -31.5390  -49.2640 O.2   128  ASN128     -0.2716
     59  ND2     -104.9020  -30.5660  -47.6110 N.am  128  ASN128     -0.0877
     60  N       -105.1300  -30.3160  -51.8250 N.am  129  ASP129     -0.1960
     61  CA      -105.6440  -29.0090  -52.1910 C.3   129  ASP129      0.1840
     62  C       -106.1410  -28.2920  -50.9380 C.2   129  ASP129      0.2621
     63  O       -106.9720  -28.8180  -50.1940 O.2   129  ASP129     -0.2715
     64  CB      -106.7390  -29.1260  -53.2550 C.3   129  ASP129      0.1450
     65  CG      -107.9250  -29.9440  -52.7890 C.2   129  ASP129      0.3671
     66  OD1     -107.7430  -30.8400  -51.9410 O.co2 129  ASP129     -0.2456
     67  OD2     -109.0430  -29.6890  -53.2750 O.co2 129  ASP129     -0.2456
     68  N       -105.6140  -27.0920  -50.7090 N.am  130  VAL130     -0.1977
     69  CA      -105.8780  -26.3520  -49.4790 C.3   130  VAL130      0.1596
     70  C       -106.1720  -24.8870  -49.7920 C.2   130  VAL130      0.2287
     71  O       -105.7620  -24.3810  -50.8370 O.2   130  VAL130     -0.2864
     72  CB      -104.6710  -26.4600  -48.5050 C.3   130  VAL130      0.0276
     73  CG1     -103.4660  -25.7010  -49.0480 C.3   130  VAL130      0.0022
     74  CG2     -105.0370  -25.9690  -47.1090 C.3   130  VAL130      0.0022
     75  N       -104.2350  -19.8830  -46.1730 N.3   134  GLU134     -0.1245
     76  CA      -103.5250  -20.5650  -45.0980 C.3   134  GLU134      0.1567
     77  C       -102.0290  -20.2780  -45.1560 C.2   134  GLU134      0.2260
     78  O       -101.4750  -20.0390  -46.2270 O.2   134  GLU134     -0.2867
     79  CB      -103.7700  -22.0760  -45.1740 C.3   134  GLU134      0.0388
     80  CG      -105.2110  -22.4940  -44.9180 C.3   134  GLU134      0.1160
     81  CD      -105.6130  -22.3380  -43.4640 C.2   134  GLU134      0.3649
     82  OE1     -104.7310  -22.4670  -42.5890 O.co2 134  GLU134     -0.2457
     83  OE2     -106.8070  -22.0770  -43.1990 O.co2 134  GLU134     -0.2457
     84  N        -98.4200  -21.6060  -45.0870 N.3   136  ARG136     -0.1245
     85  CA       -97.6280  -22.8180  -45.2570 C.3   136  ARG136      0.1563
     86  C        -96.1700  -22.4600  -45.5310 C.2   136  ARG136      0.2260
     87  O        -95.8450  -21.3000  -45.8010 O.2   136  ARG136     -0.2867
     88  CB       -98.1860  -23.6860  -46.3850 C.3   136  ARG136      0.0307
     89  CG       -99.5870  -24.2140  -46.1300 C.3   136  ARG136      0.0489
     90  CD       -99.6460  -25.0920  -44.8890 C.3   136  ARG136      0.2205
     91  NE      -100.9900  -25.6260  -44.6840 N.pl3 136  ARG136     -0.0865
     92  CZ      -101.9190  -25.0460  -43.9290 C.cat 136  ARG136      0.5346
     93  NH1     -101.6520  -23.9120  -43.2970 N.pl3 136  ARG136      0.1354
     94  NH2     -103.1170  -25.6000  -43.8020 N.pl3 136  ARG136      0.1354
@<TRIPOS>BOND
     1     4     3    2
     2    26    25    2
     3     3     2    1
     4    25    24    1
     5    67    65   ar
     6    64    65    1
     7    64    61    1
     8    10    11    1
     9    12    13    2
    10    12    11    1
    11    11    14    1
    12    65    66   ar
    13     2     1    1
    14     2     5    1
    15    61    60    1
    16    61    62    1
    17    23    24    1
    18    24    27    1
    19     5     6    1
    20    60    54   am
    21    14    15    1
    22    27    28    1
    23    54    55    2
    24    54    53    1
    25    52    53    1
    26    32    33    1
    27    62    68   am
    28    62    63    2
    29    71    70    2
    30    53    56    1
    31    18    19    1
    32    68    69    1
    33    16    15    2
    34     8     7   ar
    35    35    34    2
    36    15    17   am
    37     6     7    1
    38    34    33    1
    39    33    36    1
    40    28    29    1
    41     7     9   ar
    42    30    29   ar
    43    70    69    1
    44    19    20    1
    45    19    22    1
    46    69    72    1
    47    21    20    2
    48    58    57    2
    49    56    57    1
    50    29    31   ar
    51    73    72    1
    52    36    37    1
    53    57    59   am
    54    72    74    1
    55    37    38    1
    56    41    42    1
    57    44    43    2
    58    38    40   ar
    59    38    39   ar
    60    50    48   ar
    61    50    51   ar
    62    48    46   ar
    63    42    43    1
    64    42    45    1
    65    88    89    1
    66    88    85    1
    67    78    77    2
    68    51    49   ar
    69    75    76    1
    70    89    90    1
    71    46    45    1
    72    46    47   ar
    73    87    86    2
    74    49    47   ar
    75    86    85    1
    76    85    84    1
    77    79    76    1
    78    79    80    1
    79    77    76    1
    80    80    81    1
    81    90    91    1
    82    91    92    2
    83    92    94    1
    84    92    93    1
    85    81    83   ar
    86    81    82   ar
