@<TRIPOS>MOLECULE
tmp/4m18L00.pdb
 98 90 0 0 0
SMALL
GASTEIGER

@<TRIPOS>ATOM
      1  N        -84.8280   14.7860  -38.1110 N.3   109  GLU109     -0.1245
      2  CA       -83.5580   14.0950  -37.9220 C.3   109  GLU109      0.1567
      3  C        -82.5150   14.5970  -38.9180 C.2   109  GLU109      0.2260
      4  O        -82.8650   15.0160  -40.0210 O.2   109  GLU109     -0.2867
      5  CB       -83.7530   12.5860  -38.0870 C.3   109  GLU109      0.0388
      6  CG       -84.8760   11.9950  -37.2490 C.3   109  GLU109      0.1160
      7  CD       -84.5750   12.0040  -35.7620 C.2   109  GLU109      0.3649
      8  OE1      -83.3890   12.1400  -35.3860 O.co2 109  GLU109     -0.2457
      9  OE2      -85.5280   11.8610  -34.9680 O.co2 109  GLU109     -0.2457
     10  N        -81.0910   14.7550  -34.9370 N.3   111  ASN111     -0.1240
     11  CA       -81.3210   15.6860  -33.8400 C.3   111  ASN111      0.1653
     12  C        -80.3160   15.5760  -32.6960 C.2   111  ASN111      0.2266
     13  O        -80.2800   16.4390  -31.8170 O.2   111  ASN111     -0.2867
     14  CB       -82.7500   15.5380  -33.3020 C.3   111  ASN111      0.1155
     15  CG       -83.0780   14.1120  -32.8800 C.2   111  ASN111      0.2627
     16  OD1      -82.2360   13.2160  -32.9470 O.2   111  ASN111     -0.2716
     17  ND2      -84.3110   13.9010  -32.4380 N.am  111  ASN111     -0.0877
     18  N        -80.3100   13.5430  -30.1660 N.3   113  ALA113     -0.1231
     19  CA       -81.1300   13.5390  -28.9580 C.3   113  ALA113      0.1694
     20  C        -80.3340   13.1930  -27.7040 C.2   113  ALA113      0.2592
     21  O        -79.6270   12.1870  -27.6620 O.2   113  ALA113     -0.2718
     22  CB       -82.3070   12.5830  -29.1250 C.3   113  ALA113      0.0304
     23  N        -80.4500   14.0410  -26.6860 N.am  114  GLY114     -0.1957
     24  CA       -79.7160   13.8580  -25.4470 C.3   114  GLY114      0.1869
     25  C        -78.2360   14.1630  -25.5940 C.2   114  GLY114      0.2309
     26  O        -77.4460   13.8970  -24.6900 O.2   114  GLY114     -0.2863
     27  N        -76.3310   10.9100  -29.7590 N.3   117  GLU117     -0.1245
     28  CA       -76.7290   10.0510  -30.8730 C.3   117  GLU117      0.1567
     29  C        -75.7550   10.1740  -32.0420 C.2   117  GLU117      0.2260
     30  O        -75.7900   11.1450  -32.8020 O.2   117  GLU117     -0.2867
     31  CB       -78.1630   10.3520  -31.3200 C.3   117  GLU117      0.0388
     32  CG       -79.2160    9.8750  -30.3290 C.3   117  GLU117      0.1160
     33  CD       -80.6320    9.9350  -30.8780 C.2   117  GLU117      0.3649
     34  OE1      -80.9240   10.8030  -31.7290 O.co2 117  GLU117     -0.2457
     35  OE2      -81.4520    9.0870  -30.4700 O.co2 117  GLU117     -0.2457
     36  N        -79.7570    4.7050  -38.0230 N.3   121  GLU121     -0.1245
     37  CA       -80.6150    3.5620  -38.3030 C.3   121  GLU121      0.1567
     38  C        -81.5530    3.8620  -39.4670 C.2   121  GLU121      0.2260
     39  O        -81.8640    5.0200  -39.7460 O.2   121  GLU121     -0.2867
     40  CB       -81.4330    3.1860  -37.0690 C.3   121  GLU121      0.0388
     41  CG       -82.4260    4.2500  -36.6560 C.3   121  GLU121      0.1160
     42  CD       -83.2860    3.8310  -35.4860 C.2   121  GLU121      0.3649
     43  OE1      -83.3790    2.6170  -35.2080 O.co2 121  GLU121     -0.2457
     44  OE2      -83.8680    4.7230  -34.8400 O.co2 121  GLU121     -0.2457
     45  N        -85.3910    2.8450  -40.9930 N.3   123  PHE123     -0.1241
     46  CA       -86.6760    2.2600  -40.6330 C.3   123  PHE123      0.1605
     47  C        -87.2310    1.4280  -41.7800 C.2   123  PHE123      0.2264
     48  O        -86.6240    1.3450  -42.8490 O.2   123  PHE123     -0.2867
     49  CB       -87.6780    3.3530  -40.2630 C.3   123  PHE123      0.0534
     50  CG       -87.2720    4.1740  -39.0770 C.ar  123  PHE123     -0.0203
     51  CD1      -86.8120    3.5650  -37.9220 C.ar  123  PHE123     -0.0042
     52  CD2      -87.3560    5.5560  -39.1150 C.ar  123  PHE123     -0.0042
     53  CE1      -86.4410    4.3210  -36.8270 C.ar  123  PHE123     -0.0003
     54  CE2      -86.9860    6.3180  -38.0230 C.ar  123  PHE123     -0.0003
     55  CZ       -86.5290    5.6990  -36.8780 C.ar  123  PHE123     -0.0000
     56  N        -82.5790    7.7570  -39.0920 N.3   129  ASN129     -0.1225
     57  CA       -82.6260    8.4010  -37.7880 C.3   129  ASN129      0.1785
     58  C        -81.3200    8.2030  -37.0380 C.2   129  ASN129      0.2597
     59  O        -80.8290    7.0810  -36.9210 O.2   129  ASN129     -0.2718
     60  CB       -83.7800    7.8530  -36.9550 C.3   129  ASN129      0.1169
     61  CG       -83.7070    8.2890  -35.5080 C.2   129  ASN129      0.2627
     62  OD1      -83.4230    9.4490  -35.2110 O.2   129  ASN129     -0.2716
     63  ND2      -83.9420    7.3540  -34.5950 N.am  129  ASN129     -0.0877
     64  N        -80.7490    9.2920  -36.5370 N.am  130  ASP130     -0.1960
     65  CA       -79.5600    9.1840  -35.7040 C.3   130  ASP130      0.1840
     66  C        -79.9530    8.6680  -34.3240 C.2   130  ASP130      0.2621
     67  O        -80.8350    9.2250  -33.6660 O.2   130  ASP130     -0.2715
     68  CB       -78.8040   10.5150  -35.6200 C.3   130  ASP130      0.1450
     69  CG       -79.6190   11.6190  -34.9790 C.2   130  ASP130      0.3671
     70  OD1      -80.8660   11.5760  -35.0560 O.co2 130  ASP130     -0.2456
     71  OD2      -79.0000   12.5420  -34.4100 O.co2 130  ASP130     -0.2456
     72  N        -79.3050    7.5870  -33.9050 N.am  131  VAL131     -0.1977
     73  CA       -79.6660    6.9010  -32.6730 C.3   131  VAL131      0.1596
     74  C        -78.4080    6.5390  -31.8820 C.2   131  VAL131      0.2287
     75  O        -77.3220    6.4280  -32.4540 O.2   131  VAL131     -0.2864
     76  CB       -80.4900    5.6300  -32.9870 C.3   131  VAL131      0.0276
     77  CG1      -79.6170    4.5840  -33.6480 C.3   131  VAL131      0.0022
     78  CG2      -81.1480    5.0740  -31.7330 C.3   131  VAL131      0.0022
     79  N        -77.7000    1.0500  -28.7020 N.3   135  GLU135     -0.1245
     80  CA       -78.9780    0.4140  -28.9920 C.3   135  GLU135      0.1567
     81  C        -78.8260   -0.8390  -29.8530 C.2   135  GLU135      0.2260
     82  O        -77.8900   -0.9540  -30.6440 O.2   135  GLU135     -0.2867
     83  CB       -79.9140    1.4090  -29.6800 C.3   135  GLU135      0.0388
     84  CG       -80.3260    2.5740  -28.7980 C.3   135  GLU135      0.1160
     85  CD       -81.2750    2.1550  -27.6900 C.2   135  GLU135      0.3649
     86  OE1      -82.0310    1.1790  -27.8880 O.co2 135  GLU135     -0.2457
     87  OE2      -81.2630    2.7970  -26.6190 O.co2 135  GLU135     -0.2457
     88  N        -79.9360   -2.9310  -32.8860 N.3   137  ARG137     -0.1245
     89  CA       -80.6250   -2.8170  -34.1680 C.3   137  ARG137      0.1563
     90  C        -80.2360   -3.9580  -35.1080 C.2   137  ARG137      0.2260
     91  O        -79.2750   -4.6820  -34.8480 O.2   137  ARG137     -0.2867
     92  CB       -80.3280   -1.4640  -34.8170 C.3   137  ARG137      0.0307
     93  CG       -80.8450   -0.2630  -34.0310 C.3   137  ARG137      0.0489
     94  CD       -82.3590   -0.3070  -33.8830 C.3   137  ARG137      0.2205
     95  NE       -82.8860    0.8610  -33.1800 N.pl3 137  ARG137     -0.0865
     96  CZ       -83.1090    0.9150  -31.8700 C.cat 137  ARG137      0.5346
     97  NH1      -82.8560   -0.1390  -31.1060 N.pl3 137  ARG137      0.1354
     98  NH2      -83.5920    2.0220  -31.3240 N.pl3 137  ARG137      0.1354
@<TRIPOS>BOND
     1    48    47    2
     2    47    46    1
     3    45    46    1
     4    46    49    1
     5    49    50    1
     6     4     3    2
     7    39    38    2
     8    38    37    1
     9    52    50   ar
    10    52    54   ar
    11    56    57    1
    12    50    51   ar
    13     3     2    1
    14    37    36    1
    15    37    40    1
    16     1     2    1
    17     5     2    1
    18     5     6    1
    19    54    55   ar
    20    51    53   ar
    21    57    58    1
    22    57    60    1
    23     6     7    1
    24    40    41    1
    25    58    59    2
    26    58    64   am
    27    60    61    1
    28    55    53   ar
    29    41    42    1
    30    64    65    1
    31     7     8   ar
    32     7     9   ar
    33    65    68    1
    34    65    66    1
    35    68    69    1
    36    61    62    2
    37    61    63   am
    38    42    43   ar
    39    42    44   ar
    40    90    91    2
    41    90    89    1
    42    70    69   ar
    43    69    71   ar
    44    10    11    1
    45    92    89    1
    46    92    93    1
    47    66    72   am
    48    66    67    2
    49    89    88    1
    50    93    94    1
    51    72    73    1
    52    94    95    1
    53    11    14    1
    54    11    12    1
    55    77    76    1
    56    14    15    1
    57    95    96    2
    58    76    73    1
    59    76    78    1
    60    16    15    2
    61    15    17   am
    62    30    29    2
    63    12    13    2
    64    73    74    1
    65    75    74    2
    66    29    28    1
    67    96    98    1
    68    96    97    1
    69    34    33   ar
    70    31    28    1
    71    31    32    1
    72    33    35   ar
    73    33    32    1
    74    28    27    1
    75    82    81    2
    76    18    19    1
    77    81    80    1
    78    83    80    1
    79    83    84    1
    80    22    19    1
    81    80    79    1
    82    19    20    1
    83    84    85    1
    84    86    85   ar
    85    20    21    2
    86    20    23   am
    87    85    87   ar
    88    23    24    1
    89    25    24    1
    90    25    26    2
