@<TRIPOS>MOLECULE
tmp/4m19A00.pdb
 89 85 0 0 0
SMALL
GASTEIGER

@<TRIPOS>ATOM
      1  N          1.6140    3.3930   36.0270 N.3    49  SER49      -0.1202
      2  CA         1.4060    2.0300   36.4980 C.3    49  SER49       0.2020
      3  C          2.7060    1.3710   36.9470 C.2    49  SER49       0.2618
      4  O          2.7550    0.7180   37.9870 O.2    49  SER49      -0.2717
      5  CB         0.7740    1.1940   35.3840 C.3    49  SER49       0.2103
      6  OG         1.5000    1.3410   34.1740 O.3    49  SER49      -0.2182
      7  N          3.7520    1.5440   36.1490 N.am   50  ALA50      -0.1979
      8  CA         5.0370    0.8990   36.4140 C.3    50  ALA50       0.1597
      9  C          5.6250    1.2100   37.7970 C.2    50  ALA50       0.2287
     10  O          6.2270    0.3420   38.4210 O.2    50  ALA50      -0.2864
     11  CB         6.0440    1.2390   35.3150 C.3    50  ALA50       0.0319
     12  N          3.9450    2.6430   40.5370 N.3    52  LEU52      -0.1231
     13  CA         3.0540    2.4350   41.6730 C.3    52  LEU52       0.1693
     14  C          3.2290    1.0020   42.1740 C.2    52  LEU52       0.2593
     15  O          3.4000    0.0800   41.3830 O.2    52  LEU52      -0.2718
     16  CB         1.5950    2.6500   41.2700 C.3    52  LEU52       0.0284
     17  CG         1.1930    4.0440   40.7810 C.3    52  LEU52       0.0019
     18  CD1       -0.3270    4.1480   40.6410 C.3    52  LEU52       0.0001
     19  CD2        1.7090    5.1090   41.7430 C.3    52  LEU52       0.0001
     20  N          3.2030    0.8150   43.4860 N.am   53  THR53      -0.1939
     21  CA         3.1970   -0.5270   44.0560 C.3    53  THR53       0.2028
     22  C          1.8240   -1.1370   43.8390 C.2    53  THR53       0.2642
     23  O          0.8710   -0.4330   43.4980 O.2    53  THR53      -0.2714
     24  CB         3.4440   -0.4820   45.5670 C.3    53  THR53       0.1808
     25  OG1        2.3850    0.2610   46.1870 O.3    53  THR53      -0.2208
     26  CG2        4.7800    0.1900   45.8680 C.3    53  THR53       0.0379
     27  N          1.7120   -2.4420   44.0550 N.am   54  HIS54      -0.1973
     28  CA         0.4250   -3.1130   43.8940 C.3    54  HIS54       0.1656
     29  C         -0.6710   -2.5310   44.7880 C.2    54  HIS54       0.2291
     30  O         -1.8130   -2.4080   44.3560 O.2    54  HIS54      -0.2864
     31  CB         0.5520   -4.6330   44.0660 C.3    54  HIS54       0.0771
     32  CG         0.8880   -5.3460   42.7890 C.ar   54  HIS54       0.0820
     33  ND1       -0.0320   -5.5350   41.7820 N.ar   54  HIS54      -0.2267
     34  CD2        2.0450   -5.8950   42.3500 C.ar   54  HIS54       0.1154
     35  CE1        0.5410   -6.1750   40.7770 C.ar   54  HIS54       0.1986
     36  NE2        1.8020   -6.4050   41.0970 N.ar   54  HIS54      -0.2212
     37  N         -1.6160    0.9140   43.3810 N.3    57  HIS57      -0.1241
     38  CA        -2.3410    0.6530   42.1470 C.3    57  HIS57       0.1621
     39  C         -3.8120    0.4110   42.4960 C.2    57  HIS57       0.2264
     40  O         -4.7170    0.9900   41.8970 O.2    57  HIS57      -0.2867
     41  CB        -1.6990   -0.5590   41.4520 C.3    57  HIS57       0.0745
     42  CG        -2.1740   -0.8030   40.0520 C.ar   57  HIS57       0.0817
     43  ND1       -1.3310   -1.2470   39.0510 N.ar   57  HIS57      -0.2268
     44  CD2       -3.4000   -0.6940   39.4890 C.ar   57  HIS57       0.1154
     45  CE1       -2.0180   -1.3910   37.9300 C.ar   57  HIS57       0.1986
     46  NE2       -3.2750   -1.0570   38.1660 N.ar   57  HIS57      -0.2212
     47  N         -0.0680   -6.3380   33.1170 N.3    81  SER81      -0.1202
     48  CA         1.2280   -6.7060   33.6760 C.3    81  SER81       0.2020
     49  C          1.9510   -7.5900   32.6750 C.2    81  SER81       0.2618
     50  O          1.3150   -8.1980   31.8110 O.2    81  SER81      -0.2717
     51  CB         1.0610   -7.4800   34.9800 C.3    81  SER81       0.2103
     52  OG         2.3280   -7.9070   35.4620 O.3    81  SER81      -0.2182
     53  N          3.2710   -7.6810   32.7920 N.am   82  ASN82      -0.1974
     54  CA         4.0210   -8.5870   31.9300 C.3    82  ASN82       0.1688
     55  C          4.1210   -9.9730   32.5880 C.2    82  ASN82       0.2292
     56  O          4.7900  -10.8830   32.0770 O.2    82  ASN82      -0.2864
     57  CB         5.4050   -8.0180   31.6090 C.3    82  ASN82       0.1181
     58  CG         6.2440   -7.8110   32.8530 C.2    82  ASN82       0.2629
     59  OD1        5.7220   -7.8190   33.9810 O.2    82  ASN82      -0.2716
     60  ND2        7.5440   -7.6140   32.6630 N.am   82  ASN82      -0.0877
     61  N          0.2120  -11.6570   37.9190 N.3    86  GLU86      -0.1245
     62  CA        -0.0510  -10.2820   38.3500 C.3    86  GLU86       0.1567
     63  C         -1.2390   -9.6640   37.6130 C.2    86  GLU86       0.2260
     64  O         -2.0460   -8.9510   38.2120 O.2    86  GLU86      -0.2867
     65  CB         1.1720   -9.3930   38.1510 C.3    86  GLU86       0.0388
     66  CG         2.3420   -9.7130   39.0560 C.3    86  GLU86       0.1160
     67  CD         3.5010   -8.7660   38.8160 C.2    86  GLU86       0.3649
     68  OE1        4.5140   -9.1910   38.2320 O.co2  86  GLU86      -0.2457
     69  OE2        3.3830   -7.5850   39.1910 O.co2  86  GLU86      -0.2457
     70  N         -4.7290   -8.2960   39.3190 N.3    90  LEU90      -0.1245
     71  CA        -5.2540   -6.9390   39.1410 C.3    90  LEU90       0.1561
     72  C         -6.6560   -6.9550   38.5190 C.2    90  LEU90       0.2260
     73  O         -7.5320   -6.1630   38.8930 O.2    90  LEU90      -0.2867
     74  CB        -4.2910   -6.1140   38.2790 C.3    90  LEU90       0.0270
     75  CG        -3.0500   -5.5930   38.9990 C.3    90  LEU90       0.0019
     76  CD1       -1.9740   -5.2090   37.9930 C.3    90  LEU90       0.0001
     77  CD2       -3.3970   -4.4060   39.9030 C.3    90  LEU90       0.0001
     78  N          5.3220   -6.5650   28.5070 N.3   108  TYR108     -0.1241
     79  CA         6.4880   -5.7920   28.1220 C.3   108  TYR108      0.1605
     80  C          7.7260   -6.5090   28.6300 C.2   108  TYR108      0.2264
     81  O          7.6680   -7.2100   29.6350 O.2   108  TYR108     -0.2867
     82  CB         6.3980   -4.3870   28.7450 C.3   108  TYR108      0.0534
     83  CG         5.7620   -4.4020   30.1200 C.ar  108  TYR108     -0.0201
     84  CD1        6.5360   -4.5130   31.2680 C.ar  108  TYR108     -0.0009
     85  CD2        4.3790   -4.3340   30.2680 C.ar  108  TYR108     -0.0009
     86  CE1        5.9480   -4.5410   32.5240 C.ar  108  TYR108      0.0417
     87  CE2        3.7860   -4.3670   31.5150 C.ar  108  TYR108      0.0417
     88  CZ         4.5740   -4.4730   32.6370 C.ar  108  TYR108      0.1957
     89  OH         3.9830   -4.4930   33.8680 O.3   108  TYR108     -0.2866
@<TRIPOS>BOND
     1    79    78    1
     2    79    80    1
     3    79    82    1
     4    80    81    2
     5    82    83    1
     6    83    85   ar
     7    83    84   ar
     8    85    87   ar
     9    84    86   ar
    10    87    88   ar
    11    57    54    1
    12    57    58    1
    13    50    49    2
    14    54    55    1
    15    54    53    1
    16    56    55    2
    17    86    88   ar
    18    88    89    1
    19    60    58   am
    20    49    53   am
    21    49    48    1
    22    58    59    2
    23    47    48    1
    24    48    51    1
    25     6     5    1
    26    51    52    1
    27    11     8    1
    28     5     2    1
    29     1     2    1
    30     7     8    1
    31     7     3   am
    32     8     9    1
    33     2     3    1
    34     3     4    2
    35    63    64    2
    36    63    62    1
    37     9    10    2
    38    61    62    1
    39    45    46   ar
    40    45    43   ar
    41    76    75    1
    42    65    62    1
    43    65    66    1
    44    46    44   ar
    45    68    67   ar
    46    74    75    1
    47    74    71    1
    48    72    73    2
    49    72    71    1
    50    67    66    1
    51    67    69   ar
    52    75    77    1
    53    43    42   ar
    54    71    70    1
    55    44    42   ar
    56    42    41    1
    57    12    13    1
    58    18    17    1
    59    35    36   ar
    60    35    33   ar
    61    17    16    1
    62    17    19    1
    63    36    34   ar
    64    16    13    1
    65    15    14    2
    66    41    38    1
    67    13    14    1
    68    33    32   ar
    69    40    39    2
    70    38    39    1
    71    38    37    1
    72    14    20   am
    73    34    32   ar
    74    32    31    1
    75    20    21    1
    76    23    22    2
    77    22    27   am
    78    22    21    1
    79    28    27    1
    80    28    31    1
    81    28    29    1
    82    21    24    1
    83    30    29    2
    84    24    26    1
    85    24    25    1
