@<TRIPOS>MOLECULE
tmp/4m1cB00.pdb
 94 90 0 0 0
SMALL
GASTEIGER

@<TRIPOS>ATOM
      1  N         28.4860    3.4220 -148.2060 N.3   288  GLY288     -0.1210
      2  CA        27.3590    3.0480 -147.3730 C.3   288  GLY288      0.1956
      3  C         27.7110    3.0340 -145.8990 C.2   288  GLY288      0.2611
      4  O         26.9290    3.4810 -145.0600 O.2   288  GLY288     -0.2717
      5  N         28.8950    2.5190 -145.5830 N.am  289  HIS289     -0.1975
      6  CA        29.3720    2.4890 -144.2060 C.3   289  HIS289      0.1656
      7  C         29.7350    3.8910 -143.7310 C.2   289  HIS289      0.2291
      8  O         29.6480    4.1950 -142.5420 O.2   289  HIS289     -0.2864
      9  CB        30.5770    1.5570 -144.0730 C.3   289  HIS289      0.0771
     10  CG        31.1500    1.5050 -142.6900 C.ar  289  HIS289      0.0820
     11  ND1       30.3930    1.1890 -141.5830 N.ar  289  HIS289     -0.2267
     12  CD2       32.4060    1.7300 -142.2370 C.ar  289  HIS289      0.1154
     13  CE1       31.1590    1.2210 -140.5060 C.ar  289  HIS289      0.1986
     14  NE2       32.3840    1.5460 -140.8750 N.ar  289  HIS289     -0.2212
     15  N         26.4590    5.6780 -143.1980 N.3   292  GLY292     -0.1210
     16  CA        25.8430    4.8960 -142.1440 C.3   292  GLY292      0.1956
     17  C         26.4200    5.2350 -140.7850 C.2   292  GLY292      0.2611
     18  O         25.7360    5.1410 -139.7670 O.2   292  GLY292     -0.2717
     19  N         27.6870    5.6350 -140.7740 N.am  293  HIS293     -0.1975
     20  CA        28.3740    5.9830 -139.5370 C.3   293  HIS293      0.1656
     21  C         27.9410    7.3470 -139.0100 C.2   293  HIS293      0.2291
     22  O         27.7580    7.5230 -137.8070 O.2   293  HIS293     -0.2864
     23  CB        29.8890    5.9630 -139.7470 C.3   293  HIS293      0.0771
     24  CG        30.6640    6.5570 -138.6130 C.ar  293  HIS293      0.0820
     25  ND1       31.3170    7.7660 -138.7110 N.ar  293  HIS293     -0.2267
     26  CD2       30.8860    6.1100 -137.3540 C.ar  293  HIS293      0.1154
     27  CE1       31.9110    8.0390 -137.5630 C.ar  293  HIS293      0.1986
     28  NE2       31.6650    7.0490 -136.7230 N.ar  293  HIS293     -0.2212
     29  N         23.9430    7.1920 -138.5160 N.3   296  GLY296     -0.1225
     30  CA        23.7010    6.2100 -137.4760 C.3   296  GLY296      0.1811
     31  C         24.5290    6.4410 -136.2250 C.2   296  GLY296      0.2280
     32  O         24.5740    5.5870 -135.3390 O.2   296  GLY296     -0.2866
     33  N         25.6720    8.1100 -132.5850 N.3   298  GLU298     -0.1245
     34  CA        24.8890    8.1900 -131.3590 C.3   298  GLU298      0.1567
     35  C         25.5210    9.1460 -130.3510 C.2   298  GLU298      0.2260
     36  O         24.9720    9.3840 -129.2750 O.2   298  GLU298     -0.2867
     37  CB        24.7350    6.7940 -130.7500 C.3   298  GLU298      0.0388
     38  CG        23.5300    6.6240 -129.8480 C.3   298  GLU298      0.1160
     39  CD        23.3170    5.1830 -129.4260 C.2   298  GLU298      0.3649
     40  OE1       24.3200    4.4640 -129.2290 O.co2 298  GLU298     -0.2457
     41  OE2       22.1470    4.7650 -129.2980 O.co2 298  GLU298     -0.2457
     42  N         17.9400    4.3290 -132.3780 N.3   316  LEU316     -0.1231
     43  CA        18.0830    4.6330 -133.7970 C.3   316  LEU316      0.1693
     44  C         19.0670    3.6880 -134.4780 C.2   316  LEU316      0.2592
     45  O         20.2340    3.6050 -134.0940 O.2   316  LEU316     -0.2718
     46  CB        18.5320    6.0880 -133.9840 C.3   316  LEU316      0.0284
     47  CG        18.6010    6.6890 -135.3930 C.3   316  LEU316      0.0019
     48  CD1       18.3360    8.1840 -135.3280 C.3   316  LEU316      0.0001
     49  CD2       19.9470    6.4290 -136.0600 C.3   316  LEU316      0.0001
     50  N         18.5880    2.9770 -135.4920 N.am  317  VAL317     -0.1966
     51  CA        19.4580    2.1740 -136.3390 C.3   317  VAL317      0.1727
     52  C         19.2640    2.5960 -137.7940 C.2   317  VAL317      0.2617
     53  O         18.2360    2.3150 -138.4110 O.2   317  VAL317     -0.2715
     54  CB        19.1960    0.6560 -136.1650 C.3   317  VAL317      0.0290
     55  CG1       17.7000    0.3600 -136.0790 C.3   317  VAL317      0.0023
     56  CG2       19.8650   -0.1430 -137.2800 C.3   317  VAL317      0.0023
     57  N         20.2540    3.3000 -138.3310 N.am  318  GLY318     -0.1940
     58  CA        20.1650    3.8170 -139.6820 C.3   318  GLY318      0.2014
     59  C         21.1000    3.1080 -140.6390 C.2   318  GLY318      0.2639
     60  O         21.2350    1.8850 -140.6040 O.2   318  GLY318     -0.2714
     61  N         21.7480    3.8830 -141.5010 N.am  319  GLY319     -0.1939
     62  CA        22.6890    3.3310 -142.4540 C.3   319  GLY319      0.2014
     63  C         22.0190    2.7980 -143.7020 C.2   319  GLY319      0.2638
     64  O         21.0100    3.3370 -144.1570 O.2   319  GLY319     -0.2714
     65  N         22.5850    1.7320 -144.2570 N.am  320  GLN320     -0.1977
     66  CA        22.0690    1.1470 -145.4870 C.3   320  GLN320      0.1601
     67  C         21.6330   -0.2980 -145.2870 C.2   320  GLN320      0.2287
     68  O         22.0980   -0.9810 -144.3740 O.2   320  GLN320     -0.2864
     69  CB        23.1220    1.2150 -146.5920 C.3   320  GLN320      0.0394
     70  CG        24.3650    0.3880 -146.3040 C.3   320  GLN320      0.0908
     71  CD        25.3200    0.3410 -147.4790 C.2   320  GLN320      0.2608
     72  OE1       25.0660    0.9380 -148.5250 O.2   320  GLN320     -0.2717
     73  NE2       26.4290   -0.3710 -147.3130 N.am  320  GLN320     -0.0878
     74  N         28.9760    5.1020 -126.5710 N.3   566  TYR566     -0.1241
     75  CA        29.0180    4.8910 -128.0140 C.3   566  TYR566      0.1605
     76  C         30.3440    5.3490 -128.6110 C.2   566  TYR566      0.2264
     77  O         30.7900    4.8220 -129.6310 O.2   566  TYR566     -0.2867
     78  CB        27.8600    5.6190 -128.6980 C.3   566  TYR566      0.0534
     79  CG        27.7510    5.3340 -130.1800 C.ar  566  TYR566     -0.0201
     80  CD1       27.1710    4.1590 -130.6390 C.ar  566  TYR566     -0.0009
     81  CD2       28.2210    6.2430 -131.1190 C.ar  566  TYR566     -0.0009
     82  CE1       27.0650    3.8940 -131.9910 C.ar  566  TYR566      0.0417
     83  CE2       28.1200    5.9860 -132.4740 C.ar  566  TYR566      0.0417
     84  CZ        27.5410    4.8100 -132.9040 C.ar  566  TYR566      0.1957
     85  OH        27.4360    4.5480 -134.2510 O.3   566  TYR566     -0.2866
     86  N         32.2870    2.3670 -128.0800 N.3   569  GLU569     -0.1245
     87  CA        31.7180    1.1820 -128.7110 C.3   569  GLU569      0.1567
     88  C         32.2840    0.9770 -130.1130 C.2   569  GLU569      0.2260
     89  O         32.5420   -0.1520 -130.5300 O.2   569  GLU569     -0.2867
     90  CB        30.1920    1.2850 -128.7640 C.3   569  GLU569      0.0388
     91  CG        29.5000    0.0430 -129.3040 C.3   569  GLU569      0.1160
     92  CD        27.9960    0.0840 -129.1150 C.2   569  GLU569      0.3649
     93  OE1       27.5110    0.9610 -128.3690 O.co2 569  GLU569     -0.2457
     94  OE2       27.2970   -0.7620 -129.7130 O.co2 569  GLU569     -0.2457
@<TRIPOS>BOND
     1    72    71    2
     2     1     2    1
     3    71    73   am
     4    71    70    1
     5     2     3    1
     6    69    70    1
     7    69    66    1
     8     3     5   am
     9     3     4    2
    10     5     6    1
    11    66    67    1
    12    66    65    1
    13    67    68    2
    14    65    63   am
    15     6     9    1
    16     6     7    1
    17    64    63    2
    18     9    10    1
    19     7     8    2
    20    63    62    1
    21    15    16    1
    22    10    12   ar
    23    10    11   ar
    24    62    61    1
    25    12    14   ar
    26    16    17    1
    27    11    13   ar
    28    61    59   am
    29    14    13   ar
    30    17    19   am
    31    17    18    2
    32    19    20    1
    33    59    60    2
    34    59    58    1
    35    23    20    1
    36    23    24    1
    37    58    57    1
    38    20    21    1
    39    21    22    2
    40    25    24   ar
    41    25    27   ar
    42    24    26   ar
    43    29    30    1
    44    53    52    2
    45    57    52   am
    46    52    51    1
    47    27    28   ar
    48    30    31    1
    49    26    28   ar
    50    56    54    1
    51    51    54    1
    52    51    50    1
    53    31    32    2
    54    54    55    1
    55    49    47    1
    56    50    44   am
    57    47    48    1
    58    47    46    1
    59    44    45    2
    60    44    43    1
    61    85    84    1
    62    46    43    1
    63    43    42    1
    64    84    83   ar
    65    84    82   ar
    66    33    34    1
    67    83    81   ar
    68    82    80   ar
    69    34    37    1
    70    34    35    1
    71    81    79   ar
    72    37    38    1
    73    80    79   ar
    74    89    88    2
    75    35    36    2
    76    79    78    1
    77    88    87    1
    78    38    39    1
    79    94    92   ar
    80    77    76    2
    81    39    41   ar
    82    39    40   ar
    83    91    92    1
    84    91    90    1
    85    92    93   ar
    86    90    87    1
    87    87    86    1
    88    78    75    1
    89    76    75    1
    90    75    74    1
