@<TRIPOS>MOLECULE
tmp/4m1cA00.pdb
 227 221 0 0 0
SMALL
GASTEIGER

@<TRIPOS>ATOM
      1  N         11.3220  -23.7750  -45.2340 N.3    54  SER54      -0.1217
      2  CA        12.7570  -23.9840  -45.0830 C.3    54  SER54       0.1889
      3  C         13.3880  -22.9890  -44.1140 C.2    54  SER54       0.2288
      4  O         14.6110  -22.8810  -44.0370 O.2    54  SER54      -0.2866
      5  CB        13.4510  -23.8970  -46.4440 C.3    54  SER54       0.2089
      6  OG        13.2290  -22.6360  -47.0510 O.3    54  SER54      -0.2183
      7  N         13.4630  -28.8060  -47.7610 N.3    66  HIS66      -0.1241
      8  CA        13.3350  -29.0300  -49.1940 C.3    66  HIS66       0.1621
      9  C         13.8000  -30.4320  -49.5640 C.2    66  HIS66       0.2264
     10  O         13.3080  -31.0300  -50.5190 O.2    66  HIS66      -0.2867
     11  CB        14.1360  -27.9830  -49.9720 C.3    66  HIS66       0.0745
     12  CG        14.0740  -28.1570  -51.4580 C.ar   66  HIS66       0.0817
     13  ND1       12.8860  -28.1600  -52.1580 N.ar   66  HIS66      -0.2268
     14  CD2       15.0530  -28.3310  -52.3770 C.ar   66  HIS66       0.1154
     15  CE1       13.1370  -28.3300  -53.4440 C.ar   66  HIS66       0.1986
     16  NE2       14.4430  -28.4370  -53.6030 N.ar   66  HIS66      -0.2212
     17  N         11.2190  -33.1230  -48.7840 N.3    69  GLN69      -0.1231
     18  CA        10.1680  -33.0230  -49.7900 C.3    69  GLN69       0.1698
     19  C         10.3760  -34.0210  -50.9250 C.2    69  GLN69       0.2592
     20  O          9.4200  -34.6130  -51.4280 O.2    69  GLN69      -0.2718
     21  CB        10.1110  -31.5990  -50.3470 C.3    69  GLN69       0.0381
     22  CG         9.2870  -31.4510  -51.6120 C.3    69  GLN69       0.0905
     23  CD         9.4830  -30.1030  -52.2720 C.2    69  GLN69       0.2608
     24  OE1        9.6180  -29.0820  -51.5980 O.2    69  GLN69      -0.2717
     25  NE2        9.5110  -30.0940  -53.5990 N.am   69  GLN69      -0.0878
     26  N         11.6320  -34.2090  -51.3180 N.am   70  HIS70      -0.1976
     27  CA        11.9650  -35.1120  -52.4130 C.3    70  HIS70       0.1656
     28  C         11.9950  -36.5700  -51.9610 C.2    70  HIS70       0.2291
     29  O         11.8660  -37.4830  -52.7770 O.2    70  HIS70      -0.2864
     30  CB        13.3150  -34.7340  -53.0240 C.3    70  HIS70       0.0771
     31  CG        13.3260  -33.3970  -53.6960 C.ar   70  HIS70       0.0820
     32  ND1       12.2140  -32.5850  -53.7610 N.ar   70  HIS70      -0.2267
     33  CD2       14.3160  -32.7290  -54.3350 C.ar   70  HIS70       0.1154
     34  CE1       12.5180  -31.4760  -54.4100 C.ar   70  HIS70       0.1986
     35  NE2       13.7880  -31.5380  -54.7690 N.ar   70  HIS70      -0.2212
     36  N          8.5480  -38.8790  -52.2240 N.3    73  PHE73      -0.1227
     37  CA         8.1410  -39.4760  -53.4920 C.3    73  PHE73       0.1736
     38  C          8.8910  -40.7760  -53.7750 C.2    73  PHE73       0.2595
     39  O          8.7830  -41.3370  -54.8660 O.2    73  PHE73      -0.2718
     40  CB         8.3630  -38.4920  -54.6430 C.3    73  PHE73       0.0547
     41  CG         7.5120  -37.2560  -54.5610 C.ar   73  PHE73      -0.0202
     42  CD1        6.2590  -37.2210  -55.1510 C.ar   73  PHE73      -0.0042
     43  CD2        7.9680  -36.1260  -53.9010 C.ar   73  PHE73      -0.0042
     44  CE1        5.4740  -36.0840  -55.0810 C.ar   73  PHE73      -0.0003
     45  CE2        7.1880  -34.9870  -53.8260 C.ar   73  PHE73      -0.0003
     46  CZ         5.9390  -34.9660  -54.4170 C.ar   73  PHE73      -0.0000
     47  N          9.6480  -41.2540  -52.7910 N.am   74  LEU74      -0.1980
     48  CA        10.4640  -42.4490  -52.9750 C.3    74  LEU74       0.1596
     49  C         10.1140  -43.5550  -51.9830 C.2    74  LEU74       0.2287
     50  O         10.9130  -43.8910  -51.1090 O.2    74  LEU74      -0.2864
     51  CB        11.9490  -42.0970  -52.8580 C.3    74  LEU74       0.0297
     52  CG        12.4760  -41.0580  -53.8500 C.3    74  LEU74       0.0022
     53  CD1       13.9710  -40.8430  -53.6610 C.3    74  LEU74       0.0001
     54  CD2       12.1660  -41.4700  -55.2820 C.3    74  LEU74       0.0001
     55  N          4.7960  -42.1710  -58.8420 N.3    86  SER86      -0.1217
     56  CA         5.0810  -41.5730  -60.1410 C.3    86  SER86       0.1889
     57  C          4.5120  -42.4040  -61.2870 C.2    86  SER86       0.2288
     58  O          3.9760  -41.8600  -62.2530 O.2    86  SER86      -0.2866
     59  CB         6.5900  -41.3990  -60.3250 C.3    86  SER86       0.2089
     60  OG         7.1420  -40.5990  -59.2940 O.3    86  SER86      -0.2183
     61  N          2.4250  -34.6760  -61.1740 N.3    96  SER96      -0.1202
     62  CA         2.5930  -34.2260  -59.7990 C.3    96  SER96       0.2020
     63  C          3.8540  -33.3910  -59.6310 C.2    96  SER96       0.2619
     64  O          4.8430  -33.5890  -60.3360 O.2    96  SER96      -0.2717
     65  CB         2.6330  -35.4220  -58.8460 C.3    96  SER96       0.2103
     66  OG         2.7850  -34.9970  -57.5030 O.3    96  SER96      -0.2182
     67  N          3.8070  -32.4550  -58.6890 N.am   97  ASN97      -0.1960
     68  CA         4.9580  -31.6220  -58.3720 C.3    97  ASN97       0.1819
     69  C          4.8450  -31.0820  -56.9510 C.2    97  ASN97       0.2621
     70  O          3.7830  -31.1630  -56.3320 O.2    97  ASN97      -0.2715
     71  CB         5.0850  -30.4730  -59.3750 C.3    97  ASN97       0.1195
     72  CG         6.4860  -29.8910  -59.4250 C.2    97  ASN97       0.2630
     73  OD1        7.1990  -29.8670  -58.4210 O.2    97  ASN97      -0.2716
     74  ND2        6.8890  -29.4210  -60.5990 N.am   97  ASN97      -0.0877
     75  N          5.9410  -30.5380  -56.4350 N.am   98  ALA98      -0.1963
     76  CA         5.9570  -29.9890  -55.0860 C.3    98  ALA98       0.1728
     77  C          6.9890  -28.8760  -54.9650 C.2    98  ALA98       0.2616
     78  O          7.9450  -28.8220  -55.7370 O.2    98  ALA98      -0.2715
     79  CB         6.2370  -31.0850  -54.0710 C.3    98  ALA98       0.0334
     80  N          6.7930  -27.9870  -53.9950 N.am   99  PHE99      -0.1960
     81  CA         7.7490  -26.9130  -53.7480 C.3    99  PHE99       0.1771
     82  C          7.7310  -26.4670  -52.2900 C.2    99  PHE99       0.2620
     83  O          6.6830  -26.4600  -51.6440 O.2    99  PHE99      -0.2715
     84  CB         7.4710  -25.7180  -54.6690 C.3    99  PHE99       0.0574
     85  CG         6.1510  -25.0400  -54.4140 C.ar   99  PHE99      -0.0200
     86  CD1        5.0020  -25.4660  -55.0580 C.ar   99  PHE99      -0.0042
     87  CD2        6.0650  -23.9640  -53.5440 C.ar   99  PHE99      -0.0042
     88  CE1        3.7900  -24.8390  -54.8310 C.ar   99  PHE99      -0.0003
     89  CE2        4.8570  -23.3340  -53.3120 C.ar   99  PHE99      -0.0003
     90  CZ         3.7180  -23.7720  -53.9570 C.ar   99  PHE99      -0.0000
     91  N          8.9010  -26.0960  -51.7790 N.am  100  THR100     -0.1937
     92  CA         9.0210  -25.6070  -50.4110 C.3   100  THR100      0.2028
     93  C          9.3160  -24.1120  -50.3920 C.2   100  THR100      0.2643
     94  O         10.3430  -23.6650  -50.9030 O.2   100  THR100     -0.2714
     95  CB        10.1270  -26.3490  -49.6350 C.3   100  THR100      0.1808
     96  OG1        9.8430  -27.7530  -49.6150 O.3   100  THR100     -0.2208
     97  CG2       10.2120  -25.8330  -48.2070 C.3   100  THR100      0.0379
     98  N          8.4060  -23.3420  -49.8050 N.am  101  SER101     -0.1935
     99  CA         8.5810  -21.9000  -49.6940 C.3   101  SER101      0.2055
    100  C          9.2780  -21.5480  -48.3860 C.2   101  SER101      0.2643
    101  O          9.8290  -22.4210  -47.7150 O.2   101  SER101     -0.2714
    102  CB         7.2320  -21.1840  -49.7880 C.3   101  SER101      0.2130
    103  OG         7.3870  -19.7800  -49.6750 O.3   101  SER101     -0.2179
    104  N          9.2500  -20.2670  -48.0300 N.am  102  GLY102     -0.1954
    105  CA         9.8570  -19.8000  -46.7960 C.3   102  GLY102      0.1869
    106  C          9.2610  -20.4730  -45.5760 C.2   102  GLY102      0.2309
    107  O          9.9730  -21.0890  -44.7850 O.2   102  GLY102     -0.2863
    108  N          1.0810  -31.1070  -54.6330 N.3   108  TYR108     -0.1241
    109  CA        -0.1240  -31.1550  -55.4570 C.3   108  TYR108      0.1605
    110  C          0.0010  -32.1490  -56.6080 C.2   108  TYR108      0.2264
    111  O          1.1070  -32.5110  -57.0110 O.2   108  TYR108     -0.2867
    112  CB        -0.4520  -29.7620  -56.0030 C.3   108  TYR108      0.0534
    113  CG         0.6810  -29.1030  -56.7610 C.ar  108  TYR108     -0.0201
    114  CD1        0.8410  -29.3060  -58.1250 C.ar  108  TYR108     -0.0009
    115  CD2        1.5840  -28.2700  -56.1130 C.ar  108  TYR108     -0.0009
    116  CE1        1.8720  -28.7040  -58.8220 C.ar  108  TYR108      0.0417
    117  CE2        2.6180  -27.6630  -56.8020 C.ar  108  TYR108      0.0417
    118  CZ         2.7570  -27.8840  -58.1560 C.ar  108  TYR108      0.1957
    119  OH         3.7850  -27.2830  -58.8480 O.3   108  TYR108     -0.2866
    120  N         19.2050  -39.0130  -54.0160 N.3   140  GLU140     -0.1245
    121  CA        18.3780  -37.8140  -54.0120 C.3   140  GLU140      0.1567
    122  C         19.1700  -36.6010  -53.5330 C.2   140  GLU140      0.2260
    123  O         18.8450  -35.4640  -53.8750 O.2   140  GLU140     -0.2867
    124  CB        17.1390  -38.0180  -53.1370 C.3   140  GLU140      0.0388
    125  CG        16.0660  -36.9600  -53.3260 C.3   140  GLU140      0.1160
    126  CD        15.4930  -36.9510  -54.7330 C.2   140  GLU140      0.3649
    127  OE1       15.4650  -38.0220  -55.3750 O.co2 140  GLU140     -0.2457
    128  OE2       15.0730  -35.8700  -55.1980 O.co2 140  GLU140     -0.2457
    129  N         19.7950  -29.5230  -58.6190 N.3   147  GLU147     -0.1245
    130  CA        18.7480  -28.5300  -58.8400 C.3   147  GLU147      0.1567
    131  C         19.1760  -27.1740  -58.2900 C.2   147  GLU147      0.2260
    132  O         18.6370  -26.1370  -58.6780 O.2   147  GLU147     -0.2867
    133  CB        17.4260  -28.9740  -58.2050 C.3   147  GLU147      0.0388
    134  CG        17.4440  -29.0560  -56.6880 C.3   147  GLU147      0.1160
    135  CD        16.1130  -29.5070  -56.1150 C.2   147  GLU147      0.3649
    136  OE1       15.1260  -29.5670  -56.8780 O.co2 147  GLU147     -0.2457
    137  OE2       16.0540  -29.8030  -54.9020 O.co2 147  GLU147     -0.2457
    138  N         21.0450  -23.2010  -60.5490 N.3   151  ASN151     -0.1240
    139  CA        20.6200  -21.8660  -60.1440 C.3   151  ASN151      0.1653
    140  C         21.7640  -21.0390  -59.5660 C.2   151  ASN151      0.2266
    141  O         21.5550  -19.9160  -59.1080 O.2   151  ASN151     -0.2867
    142  CB        19.4830  -21.9560  -59.1240 C.3   151  ASN151      0.1155
    143  CG        18.2180  -22.5500  -59.7120 C.2   151  ASN151      0.2627
    144  OD1       17.9670  -22.4410  -60.9120 O.2   151  ASN151     -0.2716
    145  ND2       17.4120  -23.1810  -58.8650 N.am  151  ASN151     -0.0877
    146  N         18.7580  -14.1880  -60.3960 N.3   156  ALA156     -0.1231
    147  CA        17.5920  -14.1040  -59.5230 C.3   156  ALA156      0.1694
    148  C         17.8720  -14.7420  -58.1650 C.2   156  ALA156      0.2592
    149  O         17.6110  -14.1430  -57.1220 O.2   156  ALA156     -0.2718
    150  CB        16.3870  -14.7590  -60.1790 C.3   156  ALA156      0.0304
    151  N         18.4070  -15.9590  -58.1870 N.am  157  TRP157     -0.1976
    152  CA        18.7230  -16.6840  -56.9610 C.3   157  TRP157      0.1640
    153  C         19.9070  -16.0600  -56.2300 C.2   157  TRP157      0.2290
    154  O         19.9730  -16.0900  -55.0010 O.2   157  TRP157     -0.2864
    155  CB        19.0150  -18.1540  -57.2690 C.3   157  TRP157      0.0576
    156  CG        17.8380  -18.8960  -57.8210 C.ar  157  TRP157      0.0006
    157  CD1       17.5140  -19.0600  -59.1370 C.ar  157  TRP157      0.0946
    158  CD2       16.8250  -19.5770  -57.0710 C.ar  157  TRP157      0.0152
    159  NE1       16.3630  -19.8000  -59.2520 N.ar  157  TRP157     -0.2442
    160  CE2       15.9200  -20.1300  -57.9980 C.ar  157  TRP157      0.0810
    161  CE3       16.5960  -19.7720  -55.7060 C.ar  157  TRP157      0.0012
    162  CZ2       14.8050  -20.8650  -57.6050 C.ar  157  TRP157      0.0191
    163  CZ3       15.4890  -20.5020  -55.3170 C.ar  157  TRP157      0.0001
    164  CH2       14.6070  -21.0390  -56.2630 C.ar  157  TRP157      0.0015
    165  N         18.6050  -13.0790  -54.4720 N.3   160  PHE160     -0.1241
    166  CA        17.6270  -13.4940  -53.4730 C.3   160  PHE160      0.1605
    167  C         18.3010  -14.0010  -52.2030 C.2   160  PHE160      0.2264
    168  O         17.8380  -13.7340  -51.0960 O.2   160  PHE160     -0.2867
    169  CB        16.7030  -14.5740  -54.0400 C.3   160  PHE160      0.0534
    170  CG        15.7610  -15.1590  -53.0260 C.ar  160  PHE160     -0.0203
    171  CD1       14.6370  -14.4580  -52.6210 C.ar  160  PHE160     -0.0042
    172  CD2       15.9980  -16.4100  -52.4800 C.ar  160  PHE160     -0.0042
    173  CE1       13.7700  -14.9920  -51.6880 C.ar  160  PHE160     -0.0003
    174  CE2       15.1340  -16.9490  -51.5470 C.ar  160  PHE160     -0.0003
    175  CZ        14.0190  -16.2380  -51.1510 C.ar  160  PHE160     -0.0000
    176  N         17.8880  -21.8190  -48.0360 N.3   177  GLY177     -0.1210
    177  CA        16.6030  -22.4150  -48.3490 C.3   177  GLY177      0.1956
    178  C         16.7130  -23.6980  -49.1500 C.2   177  GLY177      0.2612
    179  O         16.1250  -24.7170  -48.7860 O.2   177  GLY177     -0.2717
    180  N         17.4690  -23.6480  -50.2420 N.am  178  THR178     -0.1952
    181  CA        17.6180  -24.7970  -51.1300 C.3   178  THR178      0.1897
    182  C         18.4920  -25.8840  -50.5100 C.2   178  THR178      0.2313
    183  O         18.0070  -26.9590  -50.1590 O.2   178  THR178     -0.2863
    184  CB        18.2240  -24.3870  -52.4840 C.3   178  THR178      0.1794
    185  OG1       17.4640  -23.3090  -53.0450 O.3   178  THR178     -0.2208
    186  CG2       18.2140  -25.5630  -53.4470 C.3   178  THR178      0.0378
    187  N         11.8800  -40.5950  -66.9860 N.3   777  PHE777     -0.1241
    188  CA        12.0740  -39.8350  -65.7560 C.3   777  PHE777      0.1605
    189  C         12.5660  -40.7250  -64.6190 C.2   777  PHE777      0.2264
    190  O         13.2610  -40.2630  -63.7140 O.2   777  PHE777     -0.2867
    191  CB        10.7710  -39.1370  -65.3530 C.3   777  PHE777      0.0534
    192  CG        10.8780  -38.3280  -64.0900 C.ar  777  PHE777     -0.0203
    193  CD1       11.3760  -37.0360  -64.1210 C.ar  777  PHE777     -0.0042
    194  CD2       10.4710  -38.8550  -62.8750 C.ar  777  PHE777     -0.0042
    195  CE1       11.4720  -36.2870  -62.9630 C.ar  777  PHE777     -0.0003
    196  CE2       10.5660  -38.1120  -61.7130 C.ar  777  PHE777     -0.0003
    197  CZ        11.0670  -36.8270  -61.7570 C.ar  777  PHE777     -0.0000
    198  N         16.7900  -40.3410  -64.3720 N.3   781  ARG781     -0.1231
    199  CA        16.9650  -39.4270  -63.2450 C.3   781  ARG781      0.1694
    200  C         16.8810  -40.1130  -61.8830 C.2   781  ARG781      0.2592
    201  O         17.7520  -39.9260  -61.0350 O.2   781  ARG781     -0.2718
    202  CB        15.9320  -38.3010  -63.3040 C.3   781  ARG781      0.0321
    203  CG        15.9720  -37.3860  -62.0890 C.3   781  ARG781      0.0489
    204  CD        14.9120  -36.3010  -62.1540 C.3   781  ARG781      0.2205
    205  NE        14.8450  -35.5390  -60.9100 N.pl3 781  ARG781     -0.0865
    206  CZ        14.0180  -34.5210  -60.6990 C.cat 781  ARG781      0.5346
    207  NH1       13.1820  -34.1350  -61.6530 N.pl3 781  ARG781      0.1354
    208  NH2       14.0260  -33.8880  -59.5340 N.pl3 781  ARG781      0.1354
    209  N         15.8310  -40.8980  -61.6690 N.am  782  THR782     -0.1953
    210  CA        15.5890  -41.4960  -60.3600 C.3   782  THR782      0.1897
    211  C         16.5350  -42.6650  -60.0790 C.2   782  THR782      0.2313
    212  O         16.9180  -42.9030  -58.9330 O.2   782  THR782     -0.2863
    213  CB        14.1280  -41.9800  -60.2270 C.3   782  THR782      0.1794
    214  OG1       13.2370  -40.9300  -60.6240 O.3   782  THR782     -0.2208
    215  CG2       13.8190  -42.3850  -58.7930 C.3   782  THR782      0.0378
    216  N         19.2220  -33.3520  -63.0380 N.3   788  TYR788     -0.1241
    217  CA        17.9290  -32.8930  -62.5450 C.3   788  TYR788      0.1605
    218  C         16.9300  -32.7290  -63.6840 C.2   788  TYR788      0.2264
    219  O         15.7530  -33.0630  -63.5440 O.2   788  TYR788     -0.2867
    220  CB        18.0840  -31.5720  -61.7850 C.3   788  TYR788      0.0534
    221  CG        16.7730  -30.8770  -61.4870 C.ar  788  TYR788     -0.0201
    222  CD1       15.9450  -31.3220  -60.4650 C.ar  788  TYR788     -0.0009
    223  CD2       16.3670  -29.7720  -62.2240 C.ar  788  TYR788     -0.0009
    224  CE1       14.7470  -30.6890  -60.1880 C.ar  788  TYR788      0.0417
    225  CE2       15.1700  -29.1330  -61.9560 C.ar  788  TYR788      0.0417
    226  CZ        14.3640  -29.5950  -60.9370 C.ar  788  TYR788      0.1957
    227  OH        13.1720  -28.9630  -60.6650 O.3   788  TYR788     -0.2866
@<TRIPOS>BOND
     1   187   188    1
     2   188   191    1
     3   188   189    1
     4   191   192    1
     5   189   190    2
     6   198   199    1
     7   193   192   ar
     8   193   195   ar
     9   192   194   ar
    10   218   219    2
    11   218   217    1
    12   202   199    1
    13   202   203    1
    14   199   200    1
    15   216   217    1
    16   195   197   ar
    17   194   196   ar
    18   217   220    1
    19    58    57    2
    20   223   225   ar
    21   223   221   ar
    22   204   203    1
    23   204   205    1
    24   225   226   ar
    25   200   209   am
    26   200   201    2
    27   220   221    1
    28   197   196   ar
    29   209   210    1
    30   207   206    1
    31   221   222   ar
    32    57    56    1
    33    61    62    1
    34   226   227    1
    35   226   224   ar
    36   144   143    2
    37   205   206    2
    38   206   208    1
    39   214   213    1
    40    74    72   am
    41   138   139    1
    42   222   224   ar
    43   146   147    1
    44   210   213    1
    45   210   211    1
    46    64    63    2
    47    59    56    1
    48    59    60    1
    49   213   215    1
    50   150   147    1
    51   139   140    1
    52   139   142    1
    53    56    55    1
    54   211   212    2
    55    62    63    1
    56    62    65    1
    57   143   142    1
    58   143   145   am
    59    63    67   am
    60   140   141    2
    61   147   148    1
    62    72    71    1
    63    72    73    2
    64    71    68    1
    65   159   157   ar
    66   159   160   ar
    67   157   156   ar
    68   119   118    1
    69    65    66    1
    70   130   129    1
    71   130   131    1
    72   130   133    1
    73   116   118   ar
    74   116   114   ar
    75    67    68    1
    76   132   131    2
    77    68    69    1
    78   133   134    1
    79   151   148   am
    80   151   152    1
    81   148   149    2
    82   118   117   ar
    83   114   113   ar
    84   160   162   ar
    85   160   158   ar
    86   156   155    1
    87   156   158   ar
    88   162   164   ar
    89   155   152    1
    90   158   161   ar
    91   111   110    2
    92   152   153    1
    93    69    75   am
    94    69    70    2
    95   136   135   ar
    96   117   115   ar
    97   113   115   ar
    98   113   112    1
    99   134   135    1
   100   110   109    1
   101    75    76    1
   102   164   163   ar
   103   153   154    2
   104   135   137   ar
   105   112   109    1
   106    78    77    2
   107   161   163   ar
   108   109   108    1
   109   127   126   ar
   110    54    52    1
   111   128   126   ar
   112    42    44   ar
   113    42    41   ar
   114    76    77    1
   115    76    79    1
   116    44    46   ar
   117    86    88   ar
   118    86    85   ar
   119    77    80   am
   120    39    38    2
   121    88    90   ar
   122    35    34   ar
   123    35    33   ar
   124   126   125    1
   125    84    85    1
   126    84    81    1
   127    40    41    1
   128    40    37    1
   129    41    43   ar
   130   165   166    1
   131    46    45   ar
   132    85    87   ar
   133    34    32   ar
   134    33    31   ar
   135   169   166    1
   136   169   170    1
   137   120   121    1
   138   121   122    1
   139   121   124    1
   140    80    81    1
   141    90    89   ar
   142    43    45   ar
   143   123   122    2
   144    52    53    1
   145    52    51    1
   146    38    37    1
   147    38    47   am
   148    32    31   ar
   149    81    82    1
   150    31    30    1
   151    16    15   ar
   152    16    14   ar
   153    25    23   am
   154    87    89   ar
   155    37    36    1
   156   166   167    1
   157   186   184    1
   158    15    13   ar
   159   125   124    1
   160   185   184    1
   161   170   171   ar
   162   170   172   ar
   163    30    27    1
   164    48    51    1
   165    48    47    1
   166    48    49    1
   167    29    28    2
   168   171   173   ar
   169   184   181    1
   170   172   174   ar
   171    27    28    1
   172    27    26    1
   173    14    12   ar
   174    82    91   am
   175    82    83    2
   176    23    22    1
   177    23    24    2
   178   167   168    2
   179    13    12   ar
   180    49    50    2
   181    91    92    1
   182   173   175   ar
   183    22    21    1
   184   174   175   ar
   185    12    11    1
   186    20    19    2
   187    26    19   am
   188   181   182    1
   189   181   180    1
   190    19    18    1
   191    94    93    2
   192    10     9    2
   193   182   183    2
   194    92    93    1
   195    92    95    1
   196    93    98   am
   197    21    18    1
   198   180   178   am
   199    11     8    1
   200    98    99    1
   201    18    17    1
   202   102    99    1
   203   102   103    1
   204    99   100    1
   205    95    96    1
   206    95    97    1
   207     9     8    1
   208     8     7    1
   209   178   179    2
   210   178   177    1
   211   100   104   am
   212   100   101    2
   213   177   176    1
   214   104   105    1
   215     6     5    1
   216   105   106    1
   217     5     2    1
   218   106   107    2
   219     1     2    1
   220     2     3    1
   221     3     4    2
