@<TRIPOS>MOLECULE
tmp/4m1eE02.pdb
 105 97 0 0 0
SMALL
GASTEIGER

@<TRIPOS>ATOM
      1  N        -34.8360  -33.0490   39.7640 N.3   109  ALA109     -0.1231
      2  CA       -33.8600  -32.0050   39.4880 C.3   109  ALA109      0.1694
      3  C        -32.6420  -32.6830   38.8880 C.2   109  ALA109      0.2592
      4  O        -32.2730  -33.7570   39.3290 O.2   109  ALA109     -0.2718
      5  CB       -33.4730  -31.3150   40.7670 C.3   109  ALA109      0.0304
      6  N        -32.0220  -32.0850   37.8750 N.am  110  ALA110     -0.1966
      7  CA       -30.8640  -32.7420   37.2700 C.3   110  ALA110      0.1728
      8  C        -29.7990  -31.7590   36.8300 C.2   110  ALA110      0.2616
      9  O        -30.0550  -30.5440   36.6490 O.2   110  ALA110     -0.2715
     10  CB       -31.3120  -33.6210   36.0900 C.3   110  ALA110      0.0334
     11  N        -28.5990  -32.2900   36.6530 N.am  111  GLY111     -0.1955
     12  CA       -27.5100  -31.5300   36.0640 C.3   111  GLY111      0.1869
     13  C        -27.6040  -31.5630   34.5510 C.2   111  GLY111      0.2309
     14  O        -27.8640  -32.6190   33.9690 O.2   111  GLY111     -0.2863
     15  N        -27.1880  -41.7740   38.5740 N.3   180  VAL180     -0.1245
     16  CA       -26.0030  -42.1670   39.3240 C.3   180  VAL180      0.1561
     17  C        -26.3810  -42.1370   40.8140 C.2   180  VAL180      0.2260
     18  O        -27.4150  -41.5710   41.1810 O.2   180  VAL180     -0.2867
     19  CB       -24.8230  -41.2010   39.0770 C.3   180  VAL180      0.0252
     20  CG1      -24.4880  -41.0710   37.5770 C.3   180  VAL180      0.0019
     21  CG2      -25.1060  -39.8480   39.7100 C.3   180  VAL180      0.0019
     22  N        -22.3750  -37.2130   46.4010 N.3   184  ASN184     -0.1225
     23  CA       -21.5050  -36.2080   45.7470 C.3   184  ASN184      0.1785
     24  C        -21.9460  -35.8360   44.3400 C.2   184  ASN184      0.2597
     25  O        -22.5440  -36.6620   43.6270 O.2   184  ASN184     -0.2718
     26  CB       -20.0420  -36.6570   45.7050 C.3   184  ASN184      0.1169
     27  CG       -19.8420  -37.9960   44.9860 C.2   184  ASN184      0.2627
     28  OD1      -20.0440  -39.0600   45.5750 O.2   184  ASN184     -0.2716
     29  ND2      -19.4470  -37.9410   43.7200 N.am  184  ASN184     -0.0877
     30  N        -21.6870  -34.5840   43.9600 N.am  185  LEU185     -0.1966
     31  CA       -21.7910  -34.1730   42.5650 C.3   185  LEU185      0.1728
     32  C        -20.6260  -34.8030   41.7630 C.2   185  LEU185      0.2616
     33  O        -19.6660  -35.3220   42.3410 O.2   185  LEU185     -0.2715
     34  CB       -21.8070  -32.6370   42.4570 C.3   185  LEU185      0.0311
     35  CG       -22.9990  -31.9940   43.1830 C.3   185  LEU185      0.0022
     36  CD1      -22.7690  -30.5160   43.4700 C.3   185  LEU185      0.0001
     37  CD2      -24.3240  -32.1960   42.4660 C.3   185  LEU185      0.0001
     38  N        -20.7190  -34.7780   40.4460 N.am  186  GLU186     -0.1977
     39  CA       -19.7200  -35.4530   39.6250 C.3   186  GLU186      0.1602
     40  C        -18.4770  -34.5870   39.3530 C.2   186  GLU186      0.2287
     41  O        -18.5370  -33.3560   39.3910 O.2   186  GLU186     -0.2864
     42  CB       -20.3420  -35.9130   38.3120 C.3   186  GLU186      0.0415
     43  CG       -21.4360  -36.9530   38.4800 C.3   186  GLU186      0.1163
     44  CD       -22.7250  -36.3790   39.0450 C.2   186  GLU186      0.3649
     45  OE1      -23.1610  -35.3090   38.5770 O.co2 186  GLU186     -0.2457
     46  OE2      -23.3160  -37.0070   39.9480 O.co2 186  GLU186     -0.2457
     47  N        -18.2760  -35.9310   34.1320 N.3   191  TYR191     -0.1241
     48  CA       -19.2070  -35.2130   33.2230 C.3   191  TYR191      0.1605
     49  C        -18.8160  -35.4650   31.7720 C.2   191  TYR191      0.2264
     50  O        -19.6870  -35.6150   30.9360 O.2   191  TYR191     -0.2867
     51  CB       -19.2580  -33.6990   33.4740 C.3   191  TYR191      0.0534
     52  CG       -20.0410  -33.3240   34.7280 C.ar  191  TYR191     -0.0201
     53  CD1      -21.3540  -33.7820   34.9190 C.ar  191  TYR191     -0.0009
     54  CD2      -19.4580  -32.5480   35.7360 C.ar  191  TYR191     -0.0009
     55  CE1      -22.0560  -33.4810   36.0750 C.ar  191  TYR191      0.0417
     56  CE2      -20.1590  -32.2180   36.8840 C.ar  191  TYR191      0.0417
     57  CZ       -21.4550  -32.6830   37.0400 C.ar  191  TYR191      0.1957
     58  OH       -22.1510  -32.3910   38.1750 O.3   191  TYR191     -0.2866
     59  N        -28.2400  -35.5700   34.2070 N.3   200  VAL200     -0.1231
     60  CA       -27.7720  -36.5350   35.1830 C.3   200  VAL200      0.1692
     61  C        -28.4810  -36.2080   36.5100 C.2   200  VAL200      0.2592
     62  O        -28.5280  -35.0570   36.9050 O.2   200  VAL200     -0.2718
     63  CB       -26.2210  -36.4850   35.3340 C.3   200  VAL200      0.0266
     64  CG1      -25.7260  -35.0610   35.5550 C.3   200  VAL200      0.0020
     65  CG2      -25.7440  -37.4240   36.4360 C.3   200  VAL200      0.0020
     66  N        -28.9940  -37.2330   37.1750 N.am  201  GLY201     -0.1957
     67  CA       -29.5710  -37.0960   38.5360 C.3   201  GLY201      0.1869
     68  C        -29.3500  -38.3350   39.3810 C.2   201  GLY201      0.2309
     69  O        -28.7330  -39.3040   38.9250 O.2   201  GLY201     -0.2863
     70  N        -31.2010  -27.8350   36.8240 N.3   224  THR224     -0.1203
     71  CA       -30.9690  -26.9070   37.9630 C.3   224  THR224      0.1994
     72  C        -29.5420  -26.3410   37.9870 C.2   224  THR224      0.2617
     73  O        -29.2320  -25.4410   38.7610 O.2   224  THR224     -0.2717
     74  CB       -31.2660  -27.6010   39.3170 C.3   224  THR224      0.1784
     75  OG1      -30.4250  -28.7560   39.4650 O.3   224  THR224     -0.2211
     76  CG2      -32.7580  -28.0120   39.4300 C.3   224  THR224      0.0376
     77  N        -28.6600  -26.8840   37.1600 N.am  225  ASP225     -0.1973
     78  CA       -27.2550  -26.4840   37.1770 C.3   225  ASP225      0.1709
     79  C        -26.5770  -27.0020   35.9130 C.2   225  ASP225      0.2293
     80  O        -26.8920  -28.0930   35.4380 O.2   225  ASP225     -0.2864
     81  CB       -26.5320  -26.9940   38.4400 C.3   225  ASP225      0.1436
     82  CG       -26.6230  -28.5280   38.6080 C.2   225  ASP225      0.3671
     83  OD1      -27.7060  -29.0420   38.9960 O.co2 225  ASP225     -0.2456
     84  OD2      -25.6050  -29.2290   38.3600 O.co2 225  ASP225     -0.2456
     85  N        -23.4170  -28.3670   33.6960 N.3   227  CYS227     -0.1235
     86  CA       -22.2890  -29.2370   33.9760 C.3   227  CYS227      0.1677
     87  C        -21.3460  -29.2710   32.7810 C.2   227  CYS227      0.2270
     88  O        -21.2390  -30.2850   32.1180 O.2   227  CYS227     -0.2867
     89  CB       -22.7940  -30.6570   34.2570 C.3   227  CYS227      0.0956
     90  SG       -23.9860  -30.7750   35.6260 S.3   227  CYS227     -0.0801
     91  N        -21.3250  -25.7150   42.8450 N.3   235  VAL235     -0.1245
     92  CA       -22.7520  -25.5190   43.0680 C.3   235  VAL235      0.1561
     93  C        -23.1710  -26.0270   44.4600 C.2   235  VAL235      0.2260
     94  O        -22.6270  -27.0170   44.9680 O.2   235  VAL235     -0.2867
     95  CB       -23.5990  -26.1040   41.9030 C.3   235  VAL235      0.0252
     96  CG1      -23.6870  -27.6210   41.9750 C.3   235  VAL235      0.0019
     97  CG2      -24.9750  -25.4270   41.8220 C.3   235  VAL235      0.0019
     98  N        -29.4840  -24.6380   43.5880 N.3   240  ILE240     -0.1245
     99  CA       -30.1880  -25.7250   42.9240 C.3   240  ILE240      0.1561
    100  C        -31.6850  -25.5700   43.1830 C.2   240  ILE240      0.2260
    101  O        -32.5030  -25.6200   42.2500 O.2   240  ILE240     -0.2867
    102  CB       -29.7130  -27.0940   43.4690 C.3   240  ILE240      0.0252
    103  CG1      -28.2160  -27.3140   43.2010 C.3   240  ILE240      0.0019
    104  CG2      -30.5810  -28.2320   42.9470 C.3   240  ILE240      0.0019
    105  CD1      -27.7300  -28.6910   43.6100 C.3   240  ILE240      0.0001
@<TRIPOS>BOND
     1    50    49    2
     2    49    48    1
     3    88    87    2
     4    87    86    1
     5    48    51    1
     6    48    47    1
     7    51    52    1
     8    85    86    1
     9    14    13    2
    10    86    89    1
    11    59    60    1
    12    89    90    1
    13    13    12    1
    14    52    53   ar
    15    52    54   ar
    16    53    55   ar
    17    60    63    1
    18    60    61    1
    19    63    64    1
    20    63    65    1
    21    80    79    2
    22    54    56   ar
    23    79    78    1
    24    12    11    1
    25    55    57   ar
    26    10     7    1
    27    61    62    2
    28    61    66   am
    29     9     8    2
    30    11     8   am
    31    70    71    1
    32     8     7    1
    33    56    57   ar
    34    57    58    1
    35    77    78    1
    36    77    72   am
    37    66    67    1
    38    78    81    1
    39     7     6    1
    40    20    19    1
    41     6     3   am
    42    71    72    1
    43    71    74    1
    44    72    73    2
    45    42    43    1
    46    42    39    1
    47    84    82   ar
    48    81    82    1
    49    43    44    1
    50    67    68    1
    51    15    16    1
    52    45    44   ar
    53    82    83   ar
    54     3     4    2
    55     3     2    1
    56    69    68    2
    57    44    46   ar
    58    19    16    1
    59    19    21    1
    60    74    76    1
    61    74    75    1
    62    16    17    1
    63    40    41    2
    64    40    39    1
    65     2     1    1
    66     2     5    1
    67    39    38    1
    68    38    32   am
    69    17    18    2
    70    32    33    2
    71    32    31    1
    72    97    95    1
    73    95    96    1
    74    95    92    1
    75   101   100    2
    76    34    31    1
    77    34    35    1
    78    37    35    1
    79    31    30    1
    80    91    92    1
    81    99   100    1
    82    99   102    1
    83    99    98    1
    84   104   102    1
    85    92    93    1
    86    35    36    1
    87   103   102    1
    88   103   105    1
    89    25    24    2
    90    29    27   am
    91    30    24   am
    92    24    23    1
    93    93    94    2
    94    27    28    2
    95    27    26    1
    96    26    23    1
    97    23    22    1
