@<TRIPOS>MOLECULE
tmp/4m1eE01.pdb
 83 78 0 0 0
SMALL
GASTEIGER

@<TRIPOS>ATOM
      1  N        -25.8580  -31.8380   28.2830 N.3   114  ASN114     -0.1240
      2  CA       -25.9090  -31.3650   26.9130 C.3   114  ASN114      0.1653
      3  C        -25.7310  -29.8460   26.8710 C.2   114  ASN114      0.2266
      4  O        -26.4990  -29.1280   27.5040 O.2   114  ASN114     -0.2867
      5  CB       -27.2450  -31.7250   26.2740 C.3   114  ASN114      0.1155
      6  CG       -27.2430  -31.4540   24.7910 C.2   114  ASN114      0.2627
      7  OD1      -26.7840  -30.4010   24.3430 O.2   114  ASN114     -0.2716
      8  ND2      -27.7160  -32.4200   24.0150 N.am  114  ASN114     -0.0877
      9  N        -26.5310  -27.7180   24.7200 N.3   116  GLN116     -0.1231
     10  CA       -27.6740  -27.0160   24.1160 C.3   116  GLN116      0.1698
     11  C        -28.7430  -26.6790   25.1730 C.2   116  GLN116      0.2592
     12  O        -29.6660  -25.8840   24.9080 O.2   116  GLN116     -0.2718
     13  CB       -28.2830  -27.8170   22.9530 C.3   116  GLN116      0.0381
     14  CG       -27.2960  -28.3930   21.9190 C.3   116  GLN116      0.0905
     15  CD       -26.7480  -27.3470   20.9570 C.2   116  GLN116      0.2608
     16  OE1      -27.1230  -26.1810   21.0300 O.2   116  GLN116     -0.2717
     17  NE2      -25.8670  -27.7690   20.0360 N.am  116  GLN116     -0.0878
     18  N        -28.5890  -27.2330   26.3860 N.am  117  LEU117     -0.1966
     19  CA       -29.5160  -26.9210   27.5050 C.3   117  LEU117      0.1728
     20  C        -29.2950  -25.5850   28.1940 C.2   117  LEU117      0.2616
     21  O        -28.1780  -25.0490   28.2290 O.2   117  LEU117     -0.2715
     22  CB       -29.5560  -28.0500   28.5570 C.3   117  LEU117      0.0311
     23  CG       -30.0170  -29.4050   28.0130 C.3   117  LEU117      0.0022
     24  CD1      -29.5950  -30.4840   28.9910 C.3   117  LEU117      0.0001
     25  CD2      -31.5440  -29.4170   27.8170 C.3   117  LEU117      0.0001
     26  N        -30.3900  -25.0580   28.7420 N.am  118  ASP118     -0.1971
     27  CA       -30.3970  -23.8130   29.4980 C.3   118  ASP118      0.1709
     28  C        -30.8430  -24.0640   30.9320 C.2   118  ASP118      0.2293
     29  O        -31.6230  -24.9810   31.2150 O.2   118  ASP118     -0.2864
     30  CB       -31.3630  -22.7840   28.8610 C.3   118  ASP118      0.1436
     31  CG       -30.9650  -22.3830   27.4370 C.2   118  ASP118      0.3671
     32  OD1      -29.7620  -22.2110   27.1490 O.co2 118  ASP118     -0.2456
     33  OD2      -31.8700  -22.2260   26.5950 O.co2 118  ASP118     -0.2456
     34  N        -34.4900  -25.1420   32.2510 N.3   121  ASP121     -0.1239
     35  CA       -35.1490  -25.9180   31.1870 C.3   121  ASP121      0.1674
     36  C        -35.9150  -27.0740   31.7790 C.2   121  ASP121      0.2266
     37  O        -35.4430  -27.7190   32.6990 O.2   121  ASP121     -0.2867
     38  CB       -34.1220  -26.5160   30.2070 C.3   121  ASP121      0.1410
     39  CG       -33.8750  -25.6380   29.0010 C.2   121  ASP121      0.3668
     40  OD1      -34.5050  -24.5590   28.8770 O.co2 121  ASP121     -0.2456
     41  OD2      -33.0460  -26.0510   28.1680 O.co2 121  ASP121     -0.2456
     42  N        -36.9320  -30.6230   30.7730 N.3   123  LEU123     -0.1245
     43  CA       -36.6650  -31.6620   29.7760 C.3   123  LEU123      0.1561
     44  C        -37.6400  -32.8250   29.8540 C.2   123  LEU123      0.2260
     45  O        -37.9780  -33.2950   30.9630 O.2   123  LEU123     -0.2867
     46  CB       -35.2080  -32.1200   29.8940 C.3   123  LEU123      0.0270
     47  CG       -34.7930  -33.2400   28.9200 C.3   123  LEU123      0.0019
     48  CD1      -33.4150  -32.8720   28.3610 C.3   123  LEU123      0.0001
     49  CD2      -34.7470  -34.6110   29.6140 C.3   123  LEU123      0.0001
     50  N        -40.4430  -24.0760   25.6920 N.3   171  HIS171     -0.1241
     51  CA       -39.4820  -24.9690   25.0500 C.3   171  HIS171      0.1621
     52  C        -39.1570  -26.1260   26.0130 C.2   171  HIS171      0.2264
     53  O        -38.5540  -25.9270   27.0810 O.2   171  HIS171     -0.2867
     54  CB       -38.1950  -24.2190   24.6480 C.3   171  HIS171      0.0745
     55  CG       -37.0930  -25.1300   24.2060 C.ar  171  HIS171      0.0817
     56  ND1      -37.2420  -26.0100   23.1540 N.ar  171  HIS171     -0.2268
     57  CD2      -35.8400  -25.3180   24.6860 C.ar  171  HIS171      0.1154
     58  CE1      -36.1180  -26.6920   22.9980 C.ar  171  HIS171      0.1986
     59  NE2      -35.2530  -26.2950   23.9150 N.ar  171  HIS171     -0.2212
     60  N        -37.1760  -29.5370   25.5860 N.3   173  PRO173     -0.2102
     61  CA       -36.4240  -30.4820   24.7430 C.3   173  PRO173      0.1504
     62  C        -36.5890  -31.8940   25.2910 C.2   173  PRO173      0.2575
     63  O        -36.9400  -32.0270   26.4600 O.2   173  PRO173     -0.2718
     64  CB       -34.9770  -30.0240   24.9100 C.3   173  PRO173      0.0282
     65  CG       -34.9130  -29.3640   26.2890 C.3   173  PRO173      0.0208
     66  CD       -36.3020  -28.7770   26.5170 C.3   173  PRO173      0.0893
     67  N        -36.4260  -32.9160   24.4410 N.am  174  LYS174     -0.1980
     68  CA       -36.4100  -34.3240   24.8630 C.3   174  LYS174      0.1596
     69  C        -34.9600  -34.7500   25.0480 C.2   174  LYS174      0.2287
     70  O        -34.1020  -34.2750   24.3210 O.2   174  LYS174     -0.2864
     71  CB       -37.0190  -35.2320   23.7920 C.3   174  LYS174      0.0298
     72  CG       -38.5220  -35.0930   23.5530 C.3   174  LYS174      0.0038
     73  CD       -38.9360  -36.0300   22.4280 C.3   174  LYS174      0.0206
     74  CE       -40.4060  -35.8450   22.0740 C.3   174  LYS174      0.1093
     75  NZ       -40.7120  -36.6360   20.8500 N.3   174  LYS174     -0.1314
     76  N        -27.8700  -36.6360   28.4970 N.3   198  ASP198     -0.1239
     77  CA       -28.1880  -35.2120   28.3460 C.3   198  ASP198      0.1674
     78  C        -28.2940  -34.5350   29.7040 C.2   198  ASP198      0.2266
     79  O        -27.9560  -33.3560   29.8360 O.2   198  ASP198     -0.2867
     80  CB       -29.4930  -35.0620   27.5760 C.3   198  ASP198      0.1410
     81  CG       -29.3720  -35.5370   26.1170 C.2   198  ASP198      0.3668
     82  OD1      -28.3880  -35.1060   25.4620 O.co2 198  ASP198     -0.2456
     83  OD2      -30.2250  -36.3550   25.6310 O.co2 198  ASP198     -0.2456
@<TRIPOS>BOND
     1    17    15   am
     2    75    74    1
     3    15    16    2
     4    15    14    1
     5    14    13    1
     6    74    73    1
     7    73    72    1
     8    13    10    1
     9    58    56   ar
    10    58    59   ar
    11    56    55   ar
    12    72    71    1
    13    71    68    1
    14    59    57   ar
    15     8     6   am
    16    10     9    1
    17    10    11    1
    18    55    54    1
    19    55    57   ar
    20    70    69    2
    21     7     6    2
    22    67    68    1
    23    67    62   am
    24    54    51    1
    25    61    64    1
    26    61    62    1
    27    61    60    1
    28     6     5    1
    29    68    69    1
    30    12    11    2
    31    64    65    1
    32    51    50    1
    33    51    52    1
    34    11    18   am
    35    62    63    2
    36    82    81   ar
    37    60    66    1
    38    83    81   ar
    39    52    53    2
    40    81    80    1
    41     5     2    1
    42    65    66    1
    43    18    19    1
    44    33    31   ar
    45     3     2    1
    46     3     4    2
    47     2     1    1
    48    32    31   ar
    49    31    30    1
    50    19    20    1
    51    19    22    1
    52    80    77    1
    53    25    23    1
    54    23    22    1
    55    23    24    1
    56    41    39   ar
    57    20    21    2
    58    20    26   am
    59    77    76    1
    60    77    78    1
    61    48    47    1
    62    26    27    1
    63    30    27    1
    64    40    39   ar
    65    47    49    1
    66    47    46    1
    67    39    38    1
    68    27    28    1
    69    78    79    2
    70    43    44    1
    71    43    46    1
    72    43    42    1
    73    44    45    2
    74    38    35    1
    75    28    29    2
    76    35    36    1
    77    35    34    1
    78    36    37    2
