@<TRIPOS>MOLECULE
tmp/4m1iC00.pdb
 111 102 0 0 0
SMALL
GASTEIGER

@<TRIPOS>ATOM
      1  N         37.1710   14.6480   41.1790 N.3   166  GLU166     -0.1231
      2  CA        37.8680   15.1370   42.3660 C.3   166  GLU166      0.1699
      3  C         37.3000   16.4720   42.8550 C.2   166  GLU166      0.2592
      4  O         37.0360   16.6340   44.0510 O.2   166  GLU166     -0.2718
      5  CB        39.3690   15.2820   42.0850 C.3   166  GLU166      0.0402
      6  CG        40.1640   15.8620   43.2420 C.3   166  GLU166      0.1161
      7  CD        41.6150   16.1410   42.8910 C.2   166  GLU166      0.3649
      8  OE1       42.1130   15.5760   41.8920 O.co2 166  GLU166     -0.2457
      9  OE2       42.2570   16.9250   43.6270 O.co2 166  GLU166     -0.2457
     10  N         37.1140   17.4170   41.9320 N.am  167  ILE167     -0.1980
     11  CA        36.6290   18.7610   42.2880 C.3   167  ILE167      0.1595
     12  C         35.1320   18.8100   42.6060 C.2   167  ILE167      0.2287
     13  O         34.6380   19.8020   43.1420 O.2   167  ILE167     -0.2864
     14  CB        37.0150   19.8330   41.2300 C.3   167  ILE167      0.0276
     15  CG1       36.2200   19.6510   39.9300 C.3   167  ILE167      0.0022
     16  CG2       38.5150   19.8050   40.9940 C.3   167  ILE167      0.0022
     17  CD1       36.7850   20.4230   38.7320 C.3   167  ILE167      0.0001
     18  N         33.9400   16.9890   44.7790 N.3   169  GLY169     -0.1210
     19  CA        34.0060   16.8980   46.2270 C.3   169  GLY169      0.1956
     20  C         33.0190   15.8880   46.7730 C.2   169  GLY169      0.2611
     21  O         32.5510   14.9950   46.0540 O.2   169  GLY169     -0.2717
     22  N         32.6900   16.0500   48.0490 N.am  170  LYS170     -0.1979
     23  CA        31.7820   15.1410   48.7310 C.3   170  LYS170      0.1596
     24  C         30.3420   15.6510   48.7030 C.2   170  LYS170      0.2287
     25  O         29.5530   15.3170   49.5820 O.2   170  LYS170     -0.2864
     26  CB        32.2610   14.8950   50.1770 C.3   170  LYS170      0.0298
     27  CG        33.6530   14.2610   50.2640 C.3   170  LYS170      0.0038
     28  CD        34.1370   14.0220   51.7030 C.3   170  LYS170      0.0206
     29  CE        35.6050   13.5640   51.6920 C.3   170  LYS170      0.1093
     30  NZ        36.2290   13.3760   53.0480 N.3   170  LYS170     -0.1314
     31  N         33.2170   25.3140   56.0930 N.3   182  GLU182     -0.1245
     32  CA        33.9380   24.3100   55.3100 C.3   182  GLU182      0.1567
     33  C         33.0380   23.6060   54.2910 C.2   182  GLU182      0.2260
     34  O         33.4550   23.3560   53.1560 O.2   182  GLU182     -0.2867
     35  CB        34.6170   23.2980   56.2400 C.3   182  GLU182      0.0388
     36  CG        35.6930   23.9270   57.1370 C.3   182  GLU182      0.1160
     37  CD        35.1680   24.4760   58.4810 C.2   182  GLU182      0.3649
     38  OE1       33.9330   24.6080   58.6980 O.co2 182  GLU182     -0.2457
     39  OE2       36.0230   24.7800   59.3420 O.co2 182  GLU182     -0.2457
     40  N         32.2330   26.1030   51.5810 N.3   185  GLN185     -0.1231
     41  CA        33.4330   26.2340   50.7440 C.3   185  GLN185      0.1698
     42  C         33.5550   25.0670   49.7650 C.2   185  GLN185      0.2592
     43  O         33.8890   25.2680   48.5910 O.2   185  GLN185     -0.2718
     44  CB        34.7030   26.3500   51.5970 C.3   185  GLN185      0.0381
     45  CG        34.8410   27.6700   52.3360 C.3   185  GLN185      0.0905
     46  CD        36.0570   27.7140   53.2540 C.2   185  GLN185      0.2608
     47  OE1       36.6900   28.7550   53.3990 O.2   185  GLN185     -0.2717
     48  NE2       36.3890   26.5800   53.8700 N.am  185  GLN185     -0.0878
     49  N         33.2810   23.8530   50.2470 N.am  186  GLU186     -0.1979
     50  CA        33.2980   22.6650   49.3910 C.3   186  GLU186      0.1602
     51  C         32.2460   22.7840   48.2830 C.2   186  GLU186      0.2287
     52  O         32.4970   22.3940   47.1300 O.2   186  GLU186     -0.2864
     53  CB        33.0780   21.3820   50.2100 C.3   186  GLU186      0.0415
     54  CG        33.2160   20.0980   49.3850 C.3   186  GLU186      0.1163
     55  CD        33.4770   18.8420   50.2170 C.2   186  GLU186      0.3649
     56  OE1       33.2150   18.8460   51.4410 O.co2 186  GLU186     -0.2457
     57  OE2       33.9450   17.8390   49.6310 O.co2 186  GLU186     -0.2457
     58  N         33.4620   25.2120   45.6980 N.3   189  LYS189     -0.1245
     59  CA        34.4400   24.5350   44.8340 C.3   189  LYS189      0.1561
     60  C         33.7770   23.6570   43.7720 C.2   189  LYS189      0.2260
     61  O         34.2680   23.5810   42.6480 O.2   189  LYS189     -0.2867
     62  CB        35.4850   23.7590   45.6430 C.3   189  LYS189      0.0271
     63  CG        36.4120   24.6700   46.4390 C.3   189  LYS189      0.0035
     64  CD        37.6540   23.9360   46.9710 C.3   189  LYS189      0.0206
     65  CE        37.3030   22.9130   48.0330 C.3   189  LYS189      0.1093
     66  NZ        38.5430   22.3490   48.6700 N.3   189  LYS189     -0.1314
     67  N         42.7140   31.3840   51.9100 N.3   258  GLU258     -0.1231
     68  CA        42.8800   29.9400   51.7030 C.3   258  GLU258      0.1699
     69  C         41.9790   29.3770   50.5930 C.2   258  GLU258      0.2592
     70  O         42.4590   28.6540   49.7140 O.2   258  GLU258     -0.2718
     71  CB        42.6650   29.1630   53.0100 C.3   258  GLU258      0.0402
     72  CG        43.7920   29.3190   54.0310 C.3   258  GLU258      0.1161
     73  CD        43.6760   30.5750   54.8900 C.2   258  GLU258      0.3649
     74  OE1       42.6620   31.3040   54.7910 O.co2 258  GLU258     -0.2457
     75  OE2       44.6120   30.8310   55.6820 O.co2 258  GLU258     -0.2457
     76  N         40.6860   29.7010   50.6280 N.am  259  LEU259     -0.1980
     77  CA        39.7780   29.2730   49.5570 C.3   259  LEU259      0.1596
     78  C         40.1460   29.9230   48.2300 C.2   259  LEU259      0.2287
     79  O         40.1750   29.2520   47.1980 O.2   259  LEU259     -0.2864
     80  CB        38.3090   29.5710   49.8860 C.3   259  LEU259      0.0297
     81  CG        37.3130   29.1870   48.7740 C.3   259  LEU259      0.0022
     82  CD1       37.2730   27.6750   48.5400 C.3   259  LEU259      0.0001
     83  CD2       35.9160   29.7180   49.0500 C.3   259  LEU259      0.0001
     84  N         43.0180   28.1500   46.7510 N.3   262  GLU262     -0.1245
     85  CA        42.6800   26.8100   46.2770 C.3   262  GLU262      0.1567
     86  C         41.9320   26.8340   44.9510 C.2   262  GLU262      0.2260
     87  O         42.1780   25.9950   44.0810 O.2   262  GLU262     -0.2867
     88  CB        41.9040   26.0000   47.3180 C.3   262  GLU262      0.0388
     89  CG        41.6760   24.5260   46.9040 C.3   262  GLU262      0.1160
     90  CD        42.9390   23.8190   46.3860 C.2   262  GLU262      0.3649
     91  OE1       44.0450   24.0320   46.9390 O.co2 262  GLU262     -0.2457
     92  OE2       42.8200   23.0360   45.4180 O.co2 262  GLU262     -0.2457
     93  N         42.9960   25.1290   41.4630 N.3   266  LEU266     -0.1245
     94  CA        42.1020   24.2740   40.6740 C.3   266  LEU266      0.1561
     95  C         42.0270   24.7510   39.2320 C.2   266  LEU266      0.2260
     96  O         42.0660   23.9440   38.3050 O.2   266  LEU266     -0.2867
     97  CB        40.7000   24.1930   41.2900 C.3   266  LEU266      0.0270
     98  CG        40.5690   23.4250   42.6130 C.3   266  LEU266      0.0019
     99  CD1       39.1010   23.4060   43.0440 C.3   266  LEU266      0.0001
    100  CD2       41.1190   22.0120   42.4810 C.3   266  LEU266      0.0001
    101  N         45.2600   23.8180   37.4800 N.3   269  ARG269     -0.1245
    102  CA        45.2740   22.3940   37.1460 C.3   269  ARG269      0.1563
    103  C         44.4070   22.1210   35.9240 C.2   269  ARG269      0.2260
    104  O         44.7700   21.3200   35.0650 O.2   269  ARG269     -0.2867
    105  CB        44.7980   21.5450   38.3320 C.3   269  ARG269      0.0307
    106  CG        45.8150   21.4580   39.4660 C.3   269  ARG269      0.0489
    107  CD        45.2460   20.7310   40.6760 C.3   269  ARG269      0.2205
    108  NE        44.9770   19.3280   40.3780 N.pl3 269  ARG269     -0.0865
    109  CZ        44.2500   18.5140   41.1370 C.cat 269  ARG269      0.5346
    110  NH1       43.6910   18.9480   42.2620 N.pl3 269  ARG269      0.1354
    111  NH2       44.0740   17.2560   40.7540 N.pl3 269  ARG269      0.1354
@<TRIPOS>BOND
     1   104   103    2
     2   103   102    1
     3   102   101    1
     4   102   105    1
     5    96    95    2
     6   105   106    1
     7    17    15    1
     8    95    94    1
     9   106   107    1
    10    15    14    1
    11   108   107    1
    12   108   109    2
    13    94    97    1
    14    94    93    1
    15   111   109    1
    16    16    14    1
    17   109   110    1
    18     1     2    1
    19    14    11    1
    20    97    98    1
    21     8     7   ar
    22    10    11    1
    23    10     3   am
    24     5     2    1
    25     5     6    1
    26    11    12    1
    27     2     3    1
    28   100    98    1
    29    12    13    2
    30    98    99    1
    31    61    60    2
    32     3     4    2
    33     7     6    1
    34     7     9   ar
    35    60    59    1
    36    87    86    2
    37    18    19    1
    38    59    62    1
    39    59    58    1
    40    86    85    1
    41    92    90   ar
    42    62    63    1
    43    21    20    2
    44    19    20    1
    45    85    84    1
    46    85    88    1
    47    90    89    1
    48    90    91   ar
    49    63    64    1
    50    20    22   am
    51    89    88    1
    52    64    65    1
    53    52    51    2
    54    79    78    2
    55    65    66    1
    56    22    23    1
    57    78    77    1
    58    51    50    1
    59    82    81    1
    60    43    42    2
    61    24    23    1
    62    24    25    2
    63    23    26    1
    64    81    83    1
    65    81    80    1
    66    54    53    1
    67    54    55    1
    68    50    53    1
    69    50    49    1
    70    77    80    1
    71    77    76    1
    72    57    55   ar
    73    70    69    2
    74    42    49   am
    75    42    41    1
    76    26    27    1
    77    55    56   ar
    78    27    28    1
    79    69    76   am
    80    69    68    1
    81    41    40    1
    82    41    44    1
    83    44    45    1
    84    29    28    1
    85    29    30    1
    86    68    67    1
    87    68    71    1
    88    45    46    1
    89    71    72    1
    90    34    33    2
    91    46    47    2
    92    46    48   am
    93    72    73    1
    94    33    32    1
    95    74    73   ar
    96    73    75   ar
    97    32    31    1
    98    32    35    1
    99    35    36    1
   100    36    37    1
   101    37    38   ar
   102    37    39   ar
