@<TRIPOS>MOLECULE
tmp/4m1jA00.pdb
 166 165 0 0 0
SMALL
GASTEIGER

@<TRIPOS>ATOM
      1  N         24.5830   23.4920    1.5340 N.3     1  SER1       -0.1217
      2  CA        24.9260   22.9050    2.7850 C.3     1  SER1        0.1889
      3  C         24.2120   21.5850    2.9900 C.2     1  SER1        0.2288
      4  O         23.0850   21.5040    2.7320 O.2     1  SER1       -0.2866
      5  CB        24.5640   23.8950    3.9010 C.3     1  SER1        0.2089
      6  OG        25.1820   25.1290    3.7340 O.3     1  SER1       -0.2183
      7  N         28.5350   22.8740    5.8140 N.3    22  PRO22      -0.2102
      8  CA        28.0080   24.0570    5.1150 C.3    22  PRO22       0.1504
      9  C         28.7100   24.3120    3.7830 C.2    22  PRO22       0.2576
     10  O         29.9100   24.0480    3.6780 O.2    22  PRO22      -0.2718
     11  CB        28.3420   25.2060    6.0770 C.3    22  PRO22       0.0282
     12  CG        29.4610   24.6670    6.9770 C.3    22  PRO22       0.0208
     13  CD        29.1330   23.2130    7.1240 C.3    22  PRO22       0.0893
     14  N         27.9860   24.8380    2.7990 N.am   23  HIS23      -0.1962
     15  CA        28.5680   25.1650    1.5010 C.3    23  HIS23       0.1787
     16  C         28.5040   26.6700    1.3320 C.2    23  HIS23       0.2620
     17  O         27.4260   27.2320    1.1750 O.2    23  HIS23      -0.2715
     18  CB        27.8030   24.4680    0.3730 C.3    23  HIS23       0.0785
     19  CG        27.7640   22.9760    0.5100 C.ar   23  HIS23       0.0821
     20  ND1       26.6860   22.2160    0.0930 N.ar   23  HIS23      -0.2267
     21  CD2       28.6630   22.1020    1.0170 C.ar   23  HIS23       0.1154
     22  CE1       26.9260   20.9440    0.3410 C.ar   23  HIS23       0.1986
     23  NE2       28.1190   20.8420    0.9050 N.ar   23  HIS23      -0.2212
     24  N         29.6600   27.3240    1.3590 N.am   24  PHE24      -0.1974
     25  CA        29.6930   28.7810    1.4200 C.3    24  PHE24       0.1639
     26  C         30.9130   29.3050    0.6470 C.2    24  PHE24       0.2290
     27  O         31.7690   28.5090    0.2230 O.2    24  PHE24      -0.2864
     28  CB        29.6940   29.2310    2.8960 C.3    24  PHE24       0.0560
     29  CG        28.5370   30.1370    3.2640 C.ar   24  PHE24      -0.0200
     30  CD1       27.3510   30.1230    2.5330 C.ar   24  PHE24      -0.0042
     31  CD2       28.6520   31.0120    4.3330 C.ar   24  PHE24      -0.0042
     32  CE1       26.2880   30.9620    2.8770 C.ar   24  PHE24      -0.0003
     33  CE2       27.6010   31.8530    4.6920 C.ar   24  PHE24      -0.0003
     34  CZ        26.4160   31.8350    3.9620 C.ar   24  PHE24      -0.0000
     35  N         34.2860   31.4760    6.1850 N.3    32  PHE32      -0.1241
     36  CA        34.3630   30.9520    7.5660 C.3    32  PHE32       0.1605
     37  C         35.7690   31.0150    8.1610 C.2    32  PHE32       0.2264
     38  O         36.7590   30.9250    7.4400 O.2    32  PHE32      -0.2867
     39  CB        33.9000   29.4980    7.6320 C.3    32  PHE32       0.0534
     40  CG        32.4070   29.3300    7.7210 C.ar   32  PHE32      -0.0203
     41  CD1       31.7340   29.6580    8.9010 C.ar   32  PHE32      -0.0042
     42  CD2       31.6810   28.7970    6.6600 C.ar   32  PHE32      -0.0042
     43  CE1       30.3550   29.4790    9.0120 C.ar   32  PHE32      -0.0003
     44  CE2       30.2930   28.6180    6.7690 C.ar   32  PHE32      -0.0003
     45  CZ        29.6410   28.9590    7.9460 C.ar   32  PHE32      -0.0000
     46  N         31.6550   33.7650   10.7710 N.3    50  LEU50      -0.1245
     47  CA        31.7830   34.6300    9.6000 C.3    50  LEU50       0.1561
     48  C         32.5640   35.8880    9.9800 C.2    50  LEU50       0.2260
     49  O         32.5590   36.2830   11.1380 O.2    50  LEU50      -0.2867
     50  CB        30.3820   34.9700    9.0680 C.3    50  LEU50       0.0270
     51  CG        29.5280   33.7840    8.5830 C.3    50  LEU50       0.0019
     52  CD1       28.1610   34.2470    8.0560 C.3    50  LEU50       0.0001
     53  CD2       30.2690   32.9740    7.5050 C.3    50  LEU50       0.0001
     54  N         32.2620   38.8040   13.1740 N.3    53  LEU53      -0.1245
     55  CA        31.3470   38.4040   14.2570 C.3    53  LEU53       0.1561
     56  C         32.0890   37.7660   15.4360 C.2    53  LEU53       0.2260
     57  O         32.8060   36.7770   15.2720 O.2    53  LEU53      -0.2867
     58  CB        30.2910   37.4290   13.7160 C.3    53  LEU53       0.0270
     59  CG        29.5510   37.8160   12.4360 C.3    53  LEU53       0.0019
     60  CD1       28.4970   36.7580   12.0900 C.3    53  LEU53       0.0001
     61  CD2       28.9050   39.1920   12.5490 C.3    53  LEU53       0.0001
     62  N         29.5560   30.6380   14.9970 N.3    57  ASN57      -0.1225
     63  CA        28.3140   30.4340   14.2450 C.3    57  ASN57       0.1785
     64  C         27.8860   28.9760   14.0860 C.2    57  ASN57       0.2597
     65  O         26.7000   28.6640   14.1590 O.2    57  ASN57      -0.2718
     66  CB        28.3940   31.0850   12.8540 C.3    57  ASN57       0.1169
     67  CG        28.3640   32.6010   12.9100 C.2    57  ASN57       0.2627
     68  OD1       29.2030   33.2570   12.3110 O.2    57  ASN57      -0.2716
     69  ND2       27.3790   33.1650   13.6150 N.am   57  ASN57      -0.0877
     70  N         28.8560   28.1000   13.8440 N.am   58  ILE58      -0.1980
     71  CA        28.6380   26.6530   13.7450 C.3    58  ILE58       0.1595
     72  C         29.6980   26.0250   14.6330 C.2    58  ILE58       0.2287
     73  O         30.8710   26.3580   14.5140 O.2    58  ILE58      -0.2864
     74  CB        28.8300   26.1490   12.2960 C.3    58  ILE58       0.0276
     75  CG1       27.6640   26.6020   11.4090 C.3    58  ILE58       0.0022
     76  CG2       28.9490   24.6310   12.2770 C.3    58  ILE58       0.0022
     77  CD1       27.8280   26.2390    9.9190 C.3    58  ILE58       0.0001
     78  N         24.1500   24.7510   10.7460 N.3    68  HIS68      -0.1226
     79  CA        23.0610   25.4330   10.0700 C.3    68  HIS68       0.1752
     80  C         23.0970   25.1120    8.5900 C.2    68  HIS68       0.2597
     81  O         24.1410   24.7470    8.0510 O.2    68  HIS68      -0.2718
     82  CB        23.1850   26.9540   10.2440 C.3    68  HIS68       0.0759
     83  CG        23.1820   27.4060   11.6720 C.ar   68  HIS68       0.0818
     84  ND1       22.0440   27.3910   12.4500 N.ar   68  HIS68      -0.2268
     85  CD2       24.1730   27.8950   12.4540 C.ar   68  HIS68       0.1154
     86  CE1       22.3390   27.8390   13.6620 C.ar   68  HIS68       0.1986
     87  NE2       23.6200   28.1530   13.6900 N.ar   68  HIS68      -0.2212
     88  N         21.9420   25.2350    7.9460 N.am   69  THR69      -0.1939
     89  CA        21.8510   25.1850    6.4830 C.3    69  THR69       0.2028
     90  C         20.8850   26.2770    6.0420 C.2    69  THR69       0.2642
     91  O         19.9670   26.6070    6.7810 O.2    69  THR69      -0.2714
     92  CB        21.2970   23.8300    5.9840 C.3    69  THR69       0.1808
     93  OG1       19.9480   23.6700    6.4400 O.3    69  THR69      -0.2208
     94  CG2       22.1450   22.6610    6.4880 C.3    69  THR69       0.0379
     95  N         21.0690   26.8370    4.8420 N.am   70  VAL70      -0.1977
     96  CA        20.1170   27.8420    4.3630 C.3    70  VAL70       0.1596
     97  C         18.7520   27.2020    4.1390 C.2    70  VAL70       0.2287
     98  O         18.6500   26.1250    3.5430 O.2    70  VAL70      -0.2864
     99  CB        20.6080   28.5450    3.0700 C.3    70  VAL70       0.0276
    100  CG1       19.5380   29.4860    2.5180 C.3    70  VAL70       0.0022
    101  CG2       21.9010   29.3290    3.3610 C.3    70  VAL70       0.0022
    102  N         20.1180   39.3220   16.4520 N.3   158  VAL158     -0.1231
    103  CA        20.8920   38.2860   15.7690 C.3   158  VAL158      0.1692
    104  C         22.2090   37.9200   16.4550 C.2   158  VAL158      0.2591
    105  O         22.5550   36.7400   16.5420 O.2   158  VAL158     -0.2718
    106  CB        21.1190   38.6480   14.2730 C.3   158  VAL158      0.0266
    107  CG1       21.8700   39.9700   14.1350 C.3   158  VAL158      0.0020
    108  CG2       21.8860   37.5360   13.5670 C.3   158  VAL158      0.0020
    109  N         22.9380   38.9130   16.9630 N.am  159  LEU159     -0.1980
    110  CA        24.2090   38.6250   17.6400 C.3   159  LEU159      0.1596
    111  C         23.9480   37.9720   18.9870 C.2   159  LEU159      0.2287
    112  O         24.6190   37.0010   19.3520 O.2   159  LEU159     -0.2864
    113  CB        25.0570   39.8920   17.8010 C.3   159  LEU159      0.0297
    114  CG        25.4900   40.4920   16.4620 C.3   159  LEU159      0.0022
    115  CD1       26.3030   41.7470   16.7070 C.3   159  LEU159      0.0001
    116  CD2       26.3110   39.4930   15.6630 C.3   159  LEU159      0.0001
    117  N         23.2580   34.1320   18.5930 N.3   162  TRP162     -0.1241
    118  CA        24.3910   33.2090   18.5160 C.3   162  TRP162      0.1605
    119  C         25.1910   33.1690   19.8030 C.2   162  TRP162      0.2264
    120  O         25.7200   32.1250   20.1690 O.2   162  TRP162     -0.2867
    121  CB        25.2890   33.4740   17.2980 C.3   162  TRP162      0.0550
    122  CG        24.8680   32.5630   16.1850 C.ar  162  TRP162      0.0003
    123  CD1       25.1920   31.2390   16.0460 C.ar  162  TRP162      0.0946
    124  CD2       23.9770   32.8740   15.1070 C.ar  162  TRP162      0.0152
    125  NE1       24.5640   30.7160   14.9330 N.ar  162  TRP162     -0.2442
    126  CE2       23.8260   31.7030   14.3350 C.ar  162  TRP162      0.0810
    127  CE3       23.3050   34.0340   14.7090 C.ar  162  TRP162      0.0012
    128  CZ2       23.0290   31.6580   13.1770 C.ar  162  TRP162      0.0191
    129  CZ3       22.5090   33.9870   13.5530 C.ar  162  TRP162      0.0001
    130  CH2       22.3840   32.8060   12.8060 C.ar  162  TRP162      0.0015
    131  N         18.3420   34.5740   11.3620 N.3   185  PRO185     -0.2102
    132  CA        17.7690   35.2810   10.2060 C.3   185  PRO185      0.1504
    133  C         17.3050   34.3850    9.0650 C.2   185  PRO185      0.2576
    134  O         16.1790   34.5710    8.5870 O.2   185  PRO185     -0.2718
    135  CB        18.9320   36.1510    9.7040 C.3   185  PRO185      0.0282
    136  CG        19.9370   36.1710   10.8110 C.3   185  PRO185      0.0208
    137  CD        19.7700   34.8770   11.5560 C.3   185  PRO185      0.0893
    138  N         18.1410   33.4600    8.6040 N.am  186  TRP186     -0.1963
    139  CA        17.7890   32.7530    7.3650 C.3   186  TRP186      0.1771
    140  C         18.3250   31.3420    7.2290 C.2   186  TRP186      0.2619
    141  O         18.5120   30.8540    6.1180 O.2   186  TRP186     -0.2715
    142  CB        18.1500   33.5830    6.1110 C.3   186  TRP186      0.0590
    143  CG        19.4250   34.4110    6.2140 C.ar  186  TRP186      0.0006
    144  CD1       19.5080   35.7470    6.4800 C.ar  186  TRP186      0.0946
    145  CD2       20.7780   33.9600    6.0290 C.ar  186  TRP186      0.0152
    146  NE1       20.8200   36.1510    6.4870 N.ar  186  TRP186     -0.2442
    147  CE2       21.6210   35.0750    6.2150 C.ar  186  TRP186      0.0810
    148  CE3       21.3570   32.7200    5.7360 C.ar  186  TRP186      0.0012
    149  CZ2       23.0180   34.9920    6.1110 C.ar  186  TRP186      0.0191
    150  CZ3       22.7480   32.6370    5.6340 C.ar  186  TRP186      0.0001
    151  CH2       23.5600   33.7630    5.8270 C.ar  186  TRP186      0.0015
    152  N         18.5240   30.6670    8.3500 N.am  187  VAL187     -0.1977
    153  CA        18.9970   29.2930    8.3110 C.3   187  VAL187      0.1596
    154  C         18.1910   28.3610    9.2000 C.2   187  VAL187      0.2287
    155  O         17.6050   28.7830   10.1990 O.2   187  VAL187     -0.2864
    156  CB        20.4920   29.1790    8.7330 C.3   187  VAL187      0.0276
    157  CG1       21.3960   29.8160    7.6810 C.3   187  VAL187      0.0022
    158  CG2       20.7290   29.7990   10.1260 C.3   187  VAL187      0.0022
    159  N         19.2030   21.7700    2.2430 N.3   269  ASN269     -0.1240
    160  CA        18.5570   22.9610    1.6650 C.3   269  ASN269      0.1653
    161  C         17.1750   22.7810    1.0540 C.2   269  ASN269      0.2266
    162  O         16.6780   23.7030    0.4150 O.2   269  ASN269     -0.2867
    163  CB        19.4450   23.6780    0.6400 C.3   269  ASN269      0.1155
    164  CG        20.8350   23.9490    1.1500 C.2   269  ASN269      0.2627
    165  OD1       21.8070   23.4940    0.5530 O.2   269  ASN269     -0.2716
    166  ND2       20.9460   24.6800    2.2630 N.am  269  ASN269     -0.0877
@<TRIPOS>BOND
     1    20    22   ar
     2    20    19   ar
     3    27    26    2
     4    22    23   ar
     5    18    19    1
     6    18    15    1
     7   162   161    2
     8    19    21   ar
     9   165   164    2
    10   163   164    1
    11   163   160    1
    12    26    25    1
    13    23    21   ar
    14   161   160    1
    15   164   166   am
    16    17    16    2
    17    16    24   am
    18    16    15    1
    19    24    25    1
    20    25    28    1
    21    15    14    1
    22     1     2    1
    23   160   159    1
    24   100    99    1
    25    30    32   ar
    26    30    29   ar
    27     4     3    2
    28     2     3    1
    29     2     5    1
    30    14     9   am
    31    32    34   ar
    32    28    29    1
    33    99   101    1
    34    99    96    1
    35    29    31   ar
    36    98    97    2
    37    10     9    2
    38     6     5    1
    39     9     8    1
    40    34    33   ar
    41    97    96    1
    42    31    33   ar
    43    96    95    1
    44    95    90   am
    45     8     7    1
    46     8    11    1
    47   150   148   ar
    48   150   151   ar
    49   148   145   ar
    50     7    13    1
    51   151   149   ar
    52    92    93    1
    53    92    89    1
    54    92    94    1
    55   145   143   ar
    56   145   147   ar
    57    90    89    1
    58    90    91    2
    59    11    12    1
    60   149   147   ar
    61   142   143    1
    62   142   139    1
    63   141   140    2
    64    35    36    1
    65   143   144   ar
    66   147   146   ar
    67   144   146   ar
    68    89    88    1
    69    42    44   ar
    70    42    40   ar
    71    44    45   ar
    72    12    13    1
    73   140   139    1
    74   140   152   am
    75   139   138    1
    76    38    37    2
    77    53    51    1
    78    36    39    1
    79    36    37    1
    80    39    40    1
    81   157   156    1
    82    40    41   ar
    83    88    80   am
    84    45    43   ar
    85    81    80    2
    86    52    51    1
    87   153   152    1
    88   153   156    1
    89   153   154    1
    90    51    50    1
    91   134   133    2
    92    80    79    1
    93   138   133   am
    94   156   158    1
    95    41    43   ar
    96   133   132    1
    97    50    47    1
    98   154   155    2
    99    47    48    1
   100    47    46    1
   101   135   132    1
   102   135   136    1
   103    77    75    1
   104    48    49    2
   105    79    82    1
   106    79    78    1
   107   132   131    1
   108    82    83    1
   109   136   137    1
   110   131   137    1
   111    75    74    1
   112    83    84   ar
   113    83    85   ar
   114    60    59    1
   115    76    74    1
   116    74    71    1
   117    68    67    2
   118    59    61    1
   119    59    58    1
   120    84    86   ar
   121    85    87   ar
   122   130   128   ar
   123   130   129   ar
   124    66    67    1
   125    66    63    1
   126    67    69   am
   127    54    55    1
   128   128   126   ar
   129   129   127   ar
   130   108   106    1
   131    86    87   ar
   132    58    55    1
   133    71    70    1
   134    71    72    1
   135    70    64   am
   136    64    65    2
   137    64    63    1
   138   107   106    1
   139    63    62    1
   140    55    56    1
   141   106   103    1
   142   126   125   ar
   143   126   124   ar
   144    73    72    2
   145   127   124   ar
   146   125   123   ar
   147   124   122   ar
   148    57    56    2
   149   116   114    1
   150   103   102    1
   151   103   104    1
   152   123   122   ar
   153   122   121    1
   154   104   105    2
   155   104   109   am
   156   114   115    1
   157   114   113    1
   158   109   110    1
   159   121   118    1
   160   110   113    1
   161   110   111    1
   162   118   117    1
   163   118   119    1
   164   111   112    2
   165   119   120    2
