@<TRIPOS>MOLECULE
tmp/4m1oB00.pdb
 129 122 0 0 0
SMALL
GASTEIGER

@<TRIPOS>ATOM
      1  N          8.3550   16.1010   15.2540 N.3     7  VAL7       -0.1231
      2  CA         8.1850   15.1790   16.3690 C.3     7  VAL7        0.1692
      3  C          9.3800   14.2440   16.4370 C.2     7  VAL7        0.2592
      4  O          9.8020   13.6910   15.4340 O.2     7  VAL7       -0.2718
      5  CB         6.9070   14.3280   16.2520 C.3     7  VAL7        0.0266
      6  CG1        6.6860   13.5320   17.5310 C.3     7  VAL7        0.0020
      7  CG2        5.6960   15.2020   15.9730 C.3     7  VAL7        0.0020
      8  N          9.9290   14.0890   17.6370 N.am    8  VAL8       -0.1966
      9  CA        11.0850   13.2320   17.8760 C.3     8  VAL8        0.1727
     10  C         10.5710   11.9550   18.5330 C.2     8  VAL8        0.2616
     11  O          9.9230   12.0080   19.5620 O.2     8  VAL8       -0.2715
     12  CB        12.1160   13.9550   18.7830 C.3     8  VAL8        0.0290
     13  CG1       13.3930   13.1160   18.9510 C.3     8  VAL8        0.0023
     14  CG2       12.4650   15.3250   18.2270 C.3     8  VAL8        0.0023
     15  N         10.8410   10.8130   17.9060 N.am    9  VAL9       -0.1963
     16  CA        10.3320    9.5360   18.3700 C.3     9  VAL9        0.1727
     17  C         11.4610    8.5160   18.5090 C.2     9  VAL9        0.2616
     18  O         12.5340    8.6630   17.9250 O.2     9  VAL9       -0.2715
     19  CB         9.2150    8.9650   17.4270 C.3     9  VAL9        0.0290
     20  CG1        8.1290   10.0050   17.1600 C.3     9  VAL9        0.0023
     21  CG2        9.7860    8.4850   16.1120 C.3     9  VAL9        0.0023
     22  N         11.1960    7.4710   19.2780 N.am   10  GLY10      -0.1955
     23  CA        12.1900    6.4660   19.5620 C.3    10  GLY10       0.1869
     24  C         12.0460    5.9300   20.9640 C.2    10  GLY10       0.2309
     25  O         11.2820    6.4500   21.7860 O.2    10  GLY10      -0.2863
     26  N         12.5680    4.7430   24.8680 N.3    12  CYS12      -0.1221
     27  CA        12.9110    5.4750   26.0680 C.3    12  CYS12       0.1808
     28  C         14.4360    5.5440   26.2380 C.2    12  CYS12       0.2601
     29  O         15.1390    4.5450   26.0950 O.2    12  CYS12      -0.2717
     30  CB        12.2830    4.7830   27.2670 C.3    12  CYS12       0.0970
     31  SG        12.2060    5.7920   28.7740 S.3    12  CYS12      -0.0800
     32  N         14.9450    6.7400   26.5080 N.am   13  GLY13      -0.1957
     33  CA        16.3300    6.9010   26.8940 C.3    13  GLY13       0.1869
     34  C         17.3480    7.0130   25.7710 C.2    13  GLY13       0.2309
     35  O         18.5390    7.0010   26.0400 O.2    13  GLY13      -0.2863
     36  N         16.1080   11.6740   23.0400 N.3    16  LYS16      -0.1245
     37  CA        15.2020   12.5550   22.3020 C.3    16  LYS16       0.1561
     38  C         15.1130   13.9410   22.9560 C.2    16  LYS16       0.2260
     39  O         15.2570   14.9570   22.2820 O.2    16  LYS16      -0.2867
     40  CB        13.8140   11.9250   22.2070 C.3    16  LYS16       0.0271
     41  CG        13.8330   10.5650   21.5460 C.3    16  LYS16       0.0035
     42  CD        12.4470    9.9400   21.3740 C.3    16  LYS16       0.0206
     43  CE        11.7530    9.6420   22.6630 C.3    16  LYS16       0.1093
     44  NZ        12.4800    8.6810   23.5400 N.3    16  LYS16      -0.1314
     45  N          5.9500   16.3290   23.8680 N.3    50  THR50      -0.1218
     46  CA         5.1810   15.1300   24.1630 C.3    50  THR50       0.1862
     47  C          5.4260   14.6430   25.5880 C.2    50  THR50       0.2287
     48  O          4.9490   13.5800   25.9800 O.2    50  THR50      -0.2866
     49  CB         5.5470   14.0080   23.1760 C.3    50  THR50       0.1770
     50  OG1        6.9420   13.6960   23.2950 O.3    50  THR50      -0.2211
     51  CG2        5.2550   14.4460   21.7480 C.3    50  THR50       0.0375
     52  N          3.3860   11.2880   26.4370 N.3    54  GLU54      -0.1231
     53  CA         3.8470   10.3260   25.4390 C.3    54  GLU54       0.1699
     54  C          3.5920    8.8800   25.8730 C.2    54  GLU54       0.2592
     55  O          3.7730    7.9520   25.0900 O.2    54  GLU54      -0.2718
     56  CB         5.3370   10.5350   25.1390 C.3    54  GLU54       0.0402
     57  CG         6.2550   10.4000   26.3480 C.3    54  GLU54       0.1161
     58  CD         7.6960   10.7770   26.0340 C.2    54  GLU54       0.3649
     59  OE1        7.9050   11.8330   25.3960 O.co2  54  GLU54      -0.2457
     60  OE2        8.6170   10.0170   26.4210 O.co2  54  GLU54      -0.2457
     61  N          3.1690    8.6950   27.1190 N.am   55  GLU55      -0.1979
     62  CA         2.8950    7.3620   27.6470 C.3    55  GLU55       0.1602
     63  C          1.4730    6.8830   27.3300 C.2    55  GLU55       0.2287
     64  O          1.1090    5.7500   27.6520 O.2    55  GLU55      -0.2864
     65  CB         3.1240    7.3520   29.1580 C.3    55  GLU55       0.0415
     66  CG         2.1340    8.1990   29.9440 C.3    55  GLU55       0.1163
     67  CD         2.7550    8.8310   31.1740 C.2    55  GLU55       0.3649
     68  OE1        2.1980    8.6640   32.2780 O.co2  55  GLU55      -0.2457
     69  OE2        3.7970    9.5050   31.0330 O.co2  55  GLU55      -0.2457
     70  N         -0.2920   10.0170   21.7380 N.3    60  ARG60      -0.1245
     71  CA         0.6970    9.7020   20.7220 C.3    60  ARG60       0.1563
     72  C          0.0600    9.8670   19.3560 C.2    60  ARG60       0.2260
     73  O          0.6420   10.4810   18.4740 O.2    60  ARG60      -0.2867
     74  CB         1.2190    8.2720   20.8810 C.3    60  ARG60       0.0307
     75  CG         2.7320    8.1430   21.0000 C.3    60  ARG60       0.0489
     76  CD         3.1050    7.2080   22.1370 C.3    60  ARG60       0.2205
     77  NE         2.4720    5.8930   22.0190 N.pl3  60  ARG60      -0.0865
     78  CZ         2.2130    5.0850   23.0470 C.cat  60  ARG60       0.5346
     79  NH1        2.5250    5.4430   24.2870 N.pl3  60  ARG60       0.1354
     80  NH2        1.6320    3.9110   22.8390 N.pl3  60  ARG60       0.1354
     81  N         -0.4070   13.5240   18.3650 N.3    63  TYR63      -0.1227
     82  CA         0.8540   14.1440   18.0030 C.3    63  TYR63       0.1736
     83  C          1.3490   13.6480   16.6490 C.2    63  TYR63       0.2595
     84  O          1.8780   14.4250   15.8650 O.2    63  TYR63      -0.2718
     85  CB         1.9150   13.9100   19.0890 C.3    63  TYR63       0.0548
     86  CG         1.6610   14.6880   20.3630 C.ar   63  TYR63      -0.0200
     87  CD1        1.7300   16.0750   20.3760 C.ar   63  TYR63      -0.0009
     88  CD2        1.3660   14.0380   21.5540 C.ar   63  TYR63      -0.0009
     89  CE1        1.5060   16.7940   21.5370 C.ar   63  TYR63       0.0417
     90  CE2        1.1400   14.7490   22.7220 C.ar   63  TYR63       0.0417
     91  CZ         1.2120   16.1270   22.7060 C.ar   63  TYR63       0.1957
     92  OH         0.9910   16.8440   23.8600 O.3    63  TYR63      -0.2866
     93  N          1.1860   12.3600   16.3700 N.am   64  MET64      -0.1979
     94  CA         1.5670   11.8380   15.0650 C.3    64  MET64       0.1605
     95  C          0.7520   12.5080   13.9560 C.2    64  MET64       0.2287
     96  O          1.2860   12.8560   12.9130 O.2    64  MET64      -0.2864
     97  CB         1.3650   10.3270   14.9940 C.3    64  MET64       0.0413
     98  CG         2.4850    9.5280   15.6780 C.3    64  MET64       0.0598
     99  SD         2.2650    7.7450   15.5100 S.3    64  MET64      -0.1393
    100  CE         1.4050    7.3690   17.0350 C.3    64  MET64       0.0692
    101  N          8.0150    1.8620   14.9510 N.3    88  TYR88      -0.1241
    102  CA         7.6410    3.2650   15.0710 C.3    88  TYR88       0.1605
    103  C          7.3120    3.8940   13.7090 C.2    88  TYR88       0.2264
    104  O          6.3110    4.6200   13.5570 O.2    88  TYR88      -0.2867
    105  CB         8.7410    4.0510   15.7670 C.3    88  TYR88       0.0534
    106  CG         8.9690    3.6180   17.1950 C.ar   88  TYR88      -0.0201
    107  CD1        7.9130    3.2240   18.0060 C.ar   88  TYR88      -0.0009
    108  CD2       10.2480    3.6020   17.7340 C.ar   88  TYR88      -0.0009
    109  CE1        8.1240    2.8270   19.3130 C.ar   88  TYR88       0.0417
    110  CE2       10.4600    3.2060   19.0330 C.ar   88  TYR88       0.0417
    111  CZ         9.4030    2.8240   19.8190 C.ar   88  TYR88       0.1957
    112  OH         9.6320    2.4330   21.1180 O.3    88  TYR88      -0.2866
    113  N          3.9220    2.5940   12.5810 N.3    91  GLN91      -0.1231
    114  CA         2.8460    3.2290   13.3320 C.3    91  GLN91       0.1698
    115  C          2.5360    4.5950   12.7530 C.2    91  GLN91       0.2592
    116  O          1.3830    4.9180   12.5110 O.2    91  GLN91      -0.2718
    117  CB         3.2250    3.4050   14.8030 C.3    91  GLN91       0.0381
    118  CG         3.0060    2.1970   15.6760 C.3    91  GLN91       0.0905
    119  CD         3.1550    2.5410   17.1410 C.2    91  GLN91       0.2608
    120  OE1        4.2090    2.3280   17.7320 O.2    91  GLN91      -0.2717
    121  NE2        2.1030    3.0960   17.7310 N.am   91  GLN91      -0.0878
    122  N          3.5730    5.3990   12.5410 N.am   92  ILE92      -0.1980
    123  CA         3.3710    6.7420   12.0130 C.3    92  ILE92       0.1595
    124  C          2.6300    6.6630   10.6780 C.2    92  ILE92       0.2287
    125  O          1.6420    7.3870   10.4420 O.2    92  ILE92      -0.2864
    126  CB         4.7070    7.4800   11.8460 C.3    92  ILE92       0.0276
    127  CG1        5.3380    7.7430   13.2180 C.3    92  ILE92       0.0022
    128  CG2        4.5160    8.7910   11.0990 C.3    92  ILE92       0.0022
    129  CD1        6.8380    8.0370   13.1920 C.3    92  ILE92       0.0001
@<TRIPOS>BOND
     1   125   124    2
     2   124   123    1
     3   128   126    1
     4   126   123    1
     5   126   127    1
     6   123   122    1
     7   116   115    2
     8   122   115   am
     9   113   114    1
    10   115   114    1
    11    96    95    2
    12   129   127    1
    13   114   117    1
    14   104   103    2
    15   103   102    1
    16    95    94    1
    17   117   118    1
    18   101   102    1
    19    97    94    1
    20    97    98    1
    21    94    93    1
    22   102   105    1
    23     1     2    1
    24     4     3    2
    25    99    98    1
    26    99   100    1
    27   118   119    1
    28   105   106    1
    29    84    83    2
    30     7     5    1
    31    21    19    1
    32     5     2    1
    33     5     6    1
    34     2     3    1
    35    93    83   am
    36     3     8   am
    37    83    82    1
    38   119   121   am
    39   119   120    2
    40    20    19    1
    41   106   108   ar
    42   106   107   ar
    43    19    16    1
    44     8     9    1
    45   108   110   ar
    46     9    10    1
    47     9    12    1
    48    15    16    1
    49    15    10   am
    50    18    17    2
    51    82    81    1
    52    82    85    1
    53   107   109   ar
    54    14    12    1
    55    16    17    1
    56    73    72    2
    57    17    22   am
    58    10    11    2
    59    12    13    1
    60   110   111   ar
    61    85    86    1
    62    22    23    1
    63   109   111   ar
    64    72    71    1
    65    23    24    1
    66   111   112    1
    67    86    87   ar
    68    86    88   ar
    69    87    89   ar
    70    71    74    1
    71    71    70    1
    72    74    75    1
    73    24    25    2
    74    75    76    1
    75    42    41    1
    76    42    43    1
    77    89    91   ar
    78    41    40    1
    79    88    90   ar
    80    51    49    1
    81    77    76    1
    82    77    78    2
    83    40    37    1
    84    39    38    2
    85    37    38    1
    86    37    36    1
    87    43    44    1
    88    91    90   ar
    89    91    92    1
    90    80    78    1
    91    78    79    1
    92    49    50    1
    93    49    46    1
    94    45    46    1
    95    46    47    1
    96    26    27    1
    97    55    54    2
    98    56    53    1
    99    56    57    1
   100    59    58   ar
   101    53    54    1
   102    53    52    1
   103    47    48    2
   104    34    35    2
   105    34    33    1
   106    54    61   am
   107    58    57    1
   108    58    60   ar
   109    27    28    1
   110    27    30    1
   111    29    28    2
   112    28    32   am
   113    32    33    1
   114    61    62    1
   115    30    31    1
   116    63    62    1
   117    63    64    2
   118    62    65    1
   119    65    66    1
   120    66    67    1
   121    69    67   ar
   122    67    68   ar
