@<TRIPOS>MOLECULE
tmp/4m1rA00.pdb
 117 117 0 0 0
SMALL
GASTEIGER

@<TRIPOS>ATOM
      1  N        -12.2250    4.4930   32.7860 N.3    28  TRP28      -0.1241
      2  CA       -12.5220    4.8160   31.3750 C.3    28  TRP28       0.1605
      3  C        -12.5860    6.3070   31.1030 C.2    28  TRP28       0.2264
      4  O        -13.2470    7.0720   31.8130 O.2    28  TRP28      -0.2867
      5  CB       -13.8400    4.2410   30.9350 C.3    28  TRP28       0.0550
      6  CG       -13.9920    2.7670   31.1670 C.ar   28  TRP28       0.0003
      7  CD1      -14.2140    2.0940   32.3770 C.ar   28  TRP28       0.0946
      8  CD2      -14.0120    1.7770   30.1500 C.ar   28  TRP28       0.0152
      9  NE1      -14.3910    0.7230   32.1220 N.ar   28  TRP28      -0.2442
     10  CE2      -14.2930    0.5220   30.7690 C.ar   28  TRP28       0.0810
     11  CE3      -13.8650    1.8290   28.7590 C.ar   28  TRP28       0.0012
     12  CZ2      -14.3160   -0.6940   30.0310 C.ar   28  TRP28       0.0191
     13  CZ3      -13.9320    0.6250   28.0370 C.ar   28  TRP28       0.0001
     14  CH2      -14.2010   -0.5950   28.6780 C.ar   28  TRP28       0.0015
     15  N         -7.9300    1.0000   25.6080 N.3    97  HIS97      -0.1241
     16  CA        -8.7130    0.3180   26.6130 C.3    97  HIS97       0.1621
     17  C         -9.9390   -0.3800   25.9910 C.2    97  HIS97       0.2264
     18  O        -11.1320    0.0180   26.1740 O.2    97  HIS97      -0.2867
     19  CB        -9.0790    1.3250   27.7590 C.3    97  HIS97       0.0745
     20  CG        -9.4870    0.6490   29.0280 C.ar   97  HIS97       0.0817
     21  ND1       -8.5760    0.1700   29.9400 N.ar   97  HIS97      -0.2268
     22  CD2      -10.7130    0.3230   29.5080 C.ar   97  HIS97       0.1154
     23  CE1       -9.2220   -0.3640   30.9660 C.ar   97  HIS97       0.1986
     24  NE2      -10.5230   -0.2920   30.7250 N.ar   97  HIS97      -0.2212
     25  N        -11.7790   -4.3840   24.7440 N.3    99  HIS99      -0.1241
     26  CA       -11.8470   -5.8330   24.8680 C.3    99  HIS99       0.1621
     27  C        -11.7930   -6.4810   23.4910 C.2    99  HIS99       0.2264
     28  O        -11.9390   -7.6880   23.4300 O.2    99  HIS99      -0.2867
     29  CB       -13.1780   -6.2800   25.5670 C.3    99  HIS99       0.0745
     30  CG       -13.2190   -5.8440   26.9970 C.ar   99  HIS99       0.0817
     31  ND1      -12.3030   -6.2880   27.9300 N.ar   99  HIS99      -0.2268
     32  CD2      -13.9760   -4.9040   27.6230 C.ar   99  HIS99       0.1154
     33  CE1      -12.5500   -5.7030   29.0930 C.ar   99  HIS99       0.1986
     34  NE2      -13.5460   -4.8500   28.9270 N.ar   99  HIS99      -0.2212
     35  N         -5.9000   -3.5630   26.3430 N.3   131  ASN131     -0.1225
     36  CA        -6.2430   -3.6400   27.7860 C.3   131  ASN131      0.1785
     37  C         -6.5300   -5.1240   28.2500 C.2   131  ASN131      0.2597
     38  O         -5.7480   -5.7420   29.0220 O.2   131  ASN131     -0.2718
     39  CB        -7.5500   -2.8560   27.9780 C.3   131  ASN131      0.1169
     40  CG        -8.1110   -3.0560   29.3860 C.2   131  ASN131      0.2627
     41  OD1       -7.3070   -3.1040   30.3410 O.2   131  ASN131     -0.2716
     42  ND2       -9.4560   -3.0820   29.5520 N.am  131  ASN131     -0.0877
     43  N         -7.6770   -5.6840   27.7840 N.am  132  GLU132     -0.1979
     44  CA        -8.2030   -6.9600   28.3370 C.3   132  GLU132      0.1602
     45  C         -8.8360   -7.7930   27.2200 C.2   132  GLU132      0.2287
     46  O        -10.0690   -7.6990   26.9860 O.2   132  GLU132     -0.2864
     47  CB        -9.2660   -6.7370   29.4200 C.3   132  GLU132      0.0415
     48  CG        -8.5290   -6.5070   30.7750 C.3   132  GLU132      0.1163
     49  CD        -9.4660   -6.3430   31.9320 C.2   132  GLU132      0.3649
     50  OE1      -10.6770   -6.1440   31.6820 O.co2 132  GLU132     -0.2457
     51  OE2       -8.9810   -6.4130   33.0850 O.co2 132  GLU132     -0.2457
     52  N         -9.3000  -11.7770   30.2150 N.3   169  TRP169     -0.1241
     53  CA        -9.1120  -10.5220   30.9930 C.3   169  TRP169      0.1605
     54  C         -7.6380  -10.3050   31.4780 C.2   169  TRP169      0.2264
     55  O         -7.3980   -9.9070   32.6420 O.2   169  TRP169     -0.2867
     56  CB       -10.1190  -10.4750   32.1290 C.3   169  TRP169      0.0550
     57  CG       -11.5670  -10.4240   31.6730 C.ar  169  TRP169      0.0003
     58  CD1      -12.3410   -9.2990   31.4450 C.ar  169  TRP169      0.0946
     59  CD2      -12.4010  -11.5570   31.3650 C.ar  169  TRP169      0.0152
     60  NE1      -13.6090   -9.6750   31.0240 N.ar  169  TRP169     -0.2442
     61  CE2      -13.6670  -11.0490   30.9510 C.ar  169  TRP169      0.0810
     62  CE3      -12.1990  -12.9450   31.3780 C.ar  169  TRP169      0.0012
     63  CZ2      -14.7340  -11.8980   30.5400 C.ar  169  TRP169      0.0191
     64  CZ3      -13.3010  -13.8200   30.9580 C.ar  169  TRP169      0.0001
     65  CH2      -14.5380  -13.2640   30.5720 C.ar  169  TRP169      0.0015
     66  N         -8.0350   -8.9740   40.5300 N.3   194  TYR194     -0.1241
     67  CA        -8.9360   -8.3000   41.4820 C.3   194  TYR194      0.1605
     68  C         -8.9120   -9.2380   42.7010 C.2   194  TYR194      0.2264
     69  O         -9.2990  -10.4140   42.5890 O.2   194  TYR194     -0.2867
     70  CB       -10.3510   -8.1490   40.9420 C.3   194  TYR194      0.0534
     71  CG       -10.3960   -6.9400   40.0190 C.ar  194  TYR194     -0.0201
     72  CD1       -9.8740   -7.0290   38.7220 C.ar  194  TYR194     -0.0009
     73  CD2      -10.8500   -5.7290   40.4800 C.ar  194  TYR194     -0.0009
     74  CE1       -9.7870   -5.8850   37.8990 C.ar  194  TYR194      0.0417
     75  CE2      -10.8170   -4.5660   39.6520 C.ar  194  TYR194      0.0417
     76  CZ       -10.3170   -4.6570   38.3940 C.ar  194  TYR194      0.1957
     77  OH       -10.2740   -3.5200   37.6300 O.3   194  TYR194     -0.2866
     78  N         -3.3900   -3.0570   35.6360 N.3   220  GLU220     -0.1245
     79  CA        -4.6590   -2.8300   36.3180 C.3   220  GLU220      0.1567
     80  C         -4.8400   -3.8440   37.4300 C.2   220  GLU220      0.2260
     81  O         -4.6950   -5.0620   37.1730 O.2   220  GLU220     -0.2867
     82  CB        -5.8180   -2.9110   35.3150 C.3   220  GLU220      0.0388
     83  CG        -7.1040   -2.3510   35.8350 C.3   220  GLU220      0.1160
     84  CD        -8.2630   -2.6990   34.8710 C.2   220  GLU220      0.3649
     85  OE1       -9.2280   -3.4440   35.2510 O.co2 220  GLU220     -0.2457
     86  OE2       -8.1800   -2.2330   33.7070 O.co2 220  GLU220     -0.2457
     87  N        -13.8630   -8.7100   40.5910 N.3   226  ALA226     -0.1231
     88  CA       -13.4680   -8.4660   39.2220 C.3   226  ALA226      0.1694
     89  C        -14.4730   -7.5480   38.4750 C.2   226  ALA226      0.2592
     90  O        -14.0510   -6.7930   37.5930 O.2   226  ALA226     -0.2718
     91  CB       -13.1770   -9.7900   38.4500 C.3   226  ALA226      0.0304
     92  N        -15.7420   -7.4860   38.9090 N.am  227  ASP227     -0.1960
     93  CA       -16.6270   -6.5740   38.2200 C.3   227  ASP227      0.1840
     94  C        -16.5420   -5.1380   38.7820 C.2   227  ASP227      0.2622
     95  O        -17.3730   -4.2990   38.3960 O.2   227  ASP227     -0.2715
     96  CB       -18.1080   -7.0610   38.2460 C.3   227  ASP227      0.1450
     97  CG       -18.6750   -7.2040   39.6380 C.2   227  ASP227      0.3671
     98  OD1      -18.0590   -6.7500   40.6220 O.co2 227  ASP227     -0.2456
     99  OD2      -19.7860   -7.8080   39.7880 O.co2 227  ASP227     -0.2456
    100  N        -15.6210   -4.8690   39.7140 N.am  228  GLY228     -0.1954
    101  CA       -15.4400   -3.5010   40.2550 C.3   228  GLY228      0.1869
    102  C        -16.3430   -3.2300   41.4700 C.2   228  GLY228      0.2309
    103  O        -16.3320   -2.0970   42.0530 O.2   228  GLY228     -0.2863
    104  N         -6.9430    0.1800   39.9890 N.3   254  TRP254     -0.1241
    105  CA        -8.2080    0.6250   39.3430 C.3   254  TRP254      0.1605
    106  C         -9.2290    0.8760   40.4870 C.2   254  TRP254      0.2264
    107  O         -9.2940    0.0390   41.4070 O.2   254  TRP254     -0.2867
    108  CB        -8.6960   -0.5180   38.4570 C.3   254  TRP254      0.0550
    109  CG       -10.0180   -0.2770   37.7640 C.ar  254  TRP254      0.0003
    110  CD1      -11.3080   -0.5690   38.2420 C.ar  254  TRP254      0.0946
    111  CD2      -10.1650    0.2920   36.4870 C.ar  254  TRP254      0.0152
    112  NE1      -12.2280   -0.2240   37.3030 N.ar  254  TRP254     -0.2442
    113  CE2      -11.5620    0.3400   36.2170 C.ar  254  TRP254      0.0810
    114  CE3       -9.2470    0.7760   35.5250 C.ar  254  TRP254      0.0012
    115  CZ2      -12.0600    0.7700   34.9840 C.ar  254  TRP254      0.0191
    116  CZ3       -9.7520    1.2930   34.2880 C.ar  254  TRP254      0.0001
    117  CH2      -11.1640    1.2420   34.0440 C.ar  254  TRP254      0.0015
@<TRIPOS>BOND
     1    28    27    2
     2    27    26    1
     3    25    26    1
     4    26    29    1
     5    29    30    1
     6    15    16    1
     7    17    18    2
     8    17    16    1
     9    35    36    1
    10    16    19    1
    11    46    45    2
    12    30    32   ar
    13    30    31   ar
    14    45    44    1
    15    32    34   ar
    16    19    20    1
    17    43    37   am
    18    43    44    1
    19    36    39    1
    20    36    37    1
    21    31    33   ar
    22    39    40    1
    23    13    14   ar
    24    13    11   ar
    25    37    38    2
    26    44    47    1
    27    14    12   ar
    28    11     8   ar
    29    34    33   ar
    30    20    22   ar
    31    20    21   ar
    32    40    42   am
    33    40    41    2
    34    47    48    1
    35    22    24   ar
    36    21    23   ar
    37    12    10   ar
    38     8    10   ar
    39     8     6   ar
    40    52    53    1
    41    63    65   ar
    42    63    61   ar
    43    65    64   ar
    44    24    23   ar
    45    10     9   ar
    46    48    49    1
    47     5     6    1
    48     5     2    1
    49    61    60   ar
    50    61    59   ar
    51    64    62   ar
    52    53    54    1
    53    53    56    1
    54    60    58   ar
    55     3     2    1
    56     3     4    2
    57     6     7   ar
    58    59    62   ar
    59    59    57   ar
    60     2     1    1
    61    58    57   ar
    62    54    55    2
    63    57    56    1
    64    50    49   ar
    65    49    51   ar
    66     9     7   ar
    67    86    84   ar
    68   117   116   ar
    69   117   115   ar
    70   116   114   ar
    71    84    85   ar
    72    84    83    1
    73   115   113   ar
    74    82    83    1
    75    82    79    1
    76   114   111   ar
    77    78    79    1
    78   113   111   ar
    79   113   112   ar
    80    79    80    1
    81   111   109   ar
    82    81    80    2
    83   112   110   ar
    84    90    89    2
    85    77    76    1
    86   109   110   ar
    87   109   108    1
    88    74    76   ar
    89    74    72   ar
    90    93    96    1
    91    93    94    1
    92    93    92    1
    93    96    97    1
    94    76    75   ar
    95    95    94    2
    96    91    88    1
    97   108   105    1
    98    89    92   am
    99    89    88    1
   100    72    71   ar
   101    94   100   am
   102    88    87    1
   103   105   104    1
   104   105   106    1
   105    97    99   ar
   106    97    98   ar
   107    75    73   ar
   108   100   101    1
   109    71    73   ar
   110    71    70    1
   111   101   102    1
   112   106   107    2
   113    66    67    1
   114    70    67    1
   115   102   103    2
   116    67    68    1
   117    69    68    2
