@<TRIPOS>MOLECULE
tmp/4m1tB00.pdb
 138 131 0 0 0
SMALL
GASTEIGER

@<TRIPOS>ATOM
      1  N          8.3860   16.8110   15.2410 N.3     7  VAL7       -0.1231
      2  CA         8.2230   15.8530   16.3200 C.3     7  VAL7        0.1692
      3  C          9.4620   14.9710   16.4050 C.2     7  VAL7        0.2592
      4  O          9.9480   14.4660   15.3930 O.2     7  VAL7       -0.2718
      5  CB         6.9630   14.9830   16.1230 C.3     7  VAL7        0.0266
      6  CG1        6.7680   14.0340   17.2940 C.3     7  VAL7        0.0020
      7  CG2        5.7410   15.8640   15.9660 C.3     7  VAL7        0.0020
      8  N          9.9680   14.8100   17.6230 N.am    8  VAL8       -0.1966
      9  CA        11.1220   13.9530   17.8840 C.3     8  VAL8        0.1727
     10  C         10.6340   12.6560   18.5280 C.2     8  VAL8        0.2616
     11  O         10.0480   12.6740   19.6160 O.2     8  VAL8       -0.2715
     12  CB        12.1400   14.6670   18.8060 C.3     8  VAL8        0.0290
     13  CG1       13.3980   13.8150   18.9860 C.3     8  VAL8        0.0023
     14  CG2       12.4950   16.0240   18.2370 C.3     8  VAL8        0.0023
     15  N         10.8700   11.5350   17.8470 N.am    9  VAL9       -0.1963
     16  CA        10.3830   10.2330   18.3040 C.3     9  VAL9        0.1727
     17  C         11.5410    9.2580   18.4740 C.2     9  VAL9        0.2617
     18  O         12.6060    9.4320   17.8850 O.2     9  VAL9       -0.2715
     19  CB         9.3110    9.6370   17.3450 C.3     9  VAL9        0.0290
     20  CG1        8.2220   10.6620   17.0460 C.3     9  VAL9        0.0023
     21  CG2        9.9220    9.1650   16.0480 C.3     9  VAL9        0.0023
     22  N         11.3210    8.2370   19.2920 N.am   10  GLY10      -0.1940
     23  CA        12.3640    7.2740   19.5910 C.3    10  GLY10       0.2014
     24  C         12.1970    6.7090   20.9810 C.2    10  GLY10       0.2639
     25  O         11.4380    7.2370   21.7890 O.2    10  GLY10      -0.2714
     26  N         12.9220    5.6310   21.2550 N.am   11  ALA11      -0.1963
     27  CA        12.8360    4.9360   22.5250 C.3    11  ALA11       0.1728
     28  C         13.1890    5.8480   23.6890 C.2    11  ALA11       0.2616
     29  O         13.8470    6.8710   23.5210 O.2    11  ALA11      -0.2715
     30  CB        13.7530    3.7270   22.5020 C.3    11  ALA11       0.0334
     31  N         12.7490    5.4600   24.8810 N.am   12  CYS12      -0.1954
     32  CA        13.1120    6.1670   26.0930 C.3    12  CYS12       0.1843
     33  C         14.6290    6.2330   26.2380 C.2    12  CYS12       0.2626
     34  O         15.3320    5.2330   26.0550 O.2    12  CYS12      -0.2714
     35  CB        12.5140    5.4630   27.3030 C.3    12  CYS12       0.0997
     36  SG        12.1750    6.5690   28.6760 S.3    12  CYS12      -0.0797
     37  N         15.1270    7.4250   26.5440 N.am   13  GLY13      -0.1954
     38  CA        16.5220    7.6060   26.8990 C.3    13  GLY13       0.1869
     39  C         17.5200    7.7480   25.7630 C.2    13  GLY13       0.2309
     40  O         18.7220    7.7570   26.0210 O.2    13  GLY13      -0.2863
     41  N         16.2280   12.4190   23.0680 N.3    16  LYS16      -0.1245
     42  CA        15.3030   13.2950   22.3490 C.3    16  LYS16       0.1561
     43  C         15.2310   14.6770   22.9930 C.2    16  LYS16       0.2260
     44  O         15.3330   15.6940   22.3070 O.2    16  LYS16      -0.2867
     45  CB        13.9150   12.6620   22.2860 C.3    16  LYS16       0.0271
     46  CG        13.9240   11.3240   21.5670 C.3    16  LYS16       0.0035
     47  CD        12.5470   10.7140   21.3890 C.3    16  LYS16       0.0206
     48  CE        11.8390   10.4490   22.7010 C.3    16  LYS16       0.1093
     49  NZ        12.6020    9.5360   23.5900 N.3    16  LYS16      -0.1314
     50  N          6.1080   16.6120   23.5620 N.3    52  THR52      -0.1218
     51  CA         5.3530   15.3650   23.5940 C.3    52  THR52       0.1862
     52  C          5.6310   14.5630   24.8570 C.2    52  THR52       0.2287
     53  O          4.7850   13.7900   25.3080 O.2    52  THR52      -0.2866
     54  CB         5.6770   14.4950   22.3640 C.3    52  THR52       0.1770
     55  OG1        7.0920   14.2740   22.2820 O.3    52  THR52      -0.2211
     56  CG2        5.2060   15.1840   21.0950 C.3    52  THR52       0.0375
     57  N          5.6750   13.5890   28.5330 N.3    54  GLY54      -0.1225
     58  CA         4.6800   13.8560   29.5580 C.3    54  GLY54       0.1811
     59  C          3.3580   13.1970   29.2130 C.2    54  GLY54       0.2280
     60  O          2.7080   12.5990   30.0700 O.2    54  GLY54      -0.2866
     61  N          3.3870   11.3240   26.2720 N.3    56  GLU56      -0.1231
     62  CA         3.8760   10.4340   25.2270 C.3    56  GLU56       0.1699
     63  C          3.4850    8.9740   25.4670 C.2    56  GLU56       0.2592
     64  O          3.4980    8.1650   24.5410 O.2    56  GLU56      -0.2718
     65  CB         5.4010   10.5540   25.1200 C.3    56  GLU56       0.0402
     66  CG         5.9500   10.3450   23.7120 C.3    56  GLU56       0.1161
     67  CD         7.3980   10.7970   23.5630 C.2    56  GLU56       0.3649
     68  OE1        7.8660   11.6060   24.3940 O.co2  56  GLU56      -0.2457
     69  OE2        8.0700   10.3410   22.6120 O.co2  56  GLU56      -0.2457
     70  N          3.1310    8.6370   26.7020 N.am   57  GLU57      -0.1979
     71  CA         2.8290    7.2490   27.0480 C.3    57  GLU57       0.1602
     72  C          1.4360    6.8040   26.6030 C.2    57  GLU57       0.2287
     73  O          1.1390    5.6080   26.6000 O.2    57  GLU57      -0.2864
     74  CB         2.9820    7.0200   28.5550 C.3    57  GLU57       0.0415
     75  CG         2.1140    7.9170   29.4340 C.3    57  GLU57       0.1163
     76  CD         2.8770    9.0930   30.0200 C.2    57  GLU57       0.3649
     77  OE1        2.5800    9.4760   31.1720 O.co2  57  GLU57      -0.2457
     78  OE2        3.7670    9.6390   29.3320 O.co2  57  GLU57      -0.2457
     79  N         -0.2500   10.3890   21.4540 N.3    62  ARG62      -0.1245
     80  CA         0.7520   10.1040   20.4400 C.3    62  ARG62       0.1563
     81  C          0.1500   10.3330   19.0620 C.2    62  ARG62       0.2260
     82  O          0.7290   11.0260   18.2310 O.2    62  ARG62      -0.2867
     83  CB         1.2290    8.6580   20.5720 C.3    62  ARG62       0.0307
     84  CG         2.7120    8.4580   20.3840 C.3    62  ARG62       0.0489
     85  CD         3.2130    7.3470   21.2830 C.3    62  ARG62       0.2205
     86  NE         2.4400    6.1130   21.1300 N.pl3  62  ARG62      -0.0865
     87  CZ         2.2160    5.2320   22.1050 C.cat  62  ARG62       0.5346
     88  NH1        2.6970    5.4320   23.3270 N.pl3  62  ARG62       0.1354
     89  NH2        1.4970    4.1420   21.8610 N.pl3  62  ARG62       0.1354
     90  N         -0.3500   14.0430   18.2850 N.3    65  TYR65      -0.1227
     91  CA         0.8970   14.7290   17.9730 C.3    65  TYR65       0.1736
     92  C          1.4340   14.3050   16.6080 C.2    65  TYR65       0.2595
     93  O          1.9310   15.1360   15.8500 O.2    65  TYR65      -0.2718
     94  CB         1.9350   14.4870   19.0700 C.3    65  TYR65       0.0548
     95  CG         1.6500   15.2690   20.3340 C.ar   65  TYR65      -0.0200
     96  CD1        1.7350   16.6550   20.3460 C.ar   65  TYR65      -0.0009
     97  CD2        1.3050   14.6240   21.5140 C.ar   65  TYR65      -0.0009
     98  CE1        1.4790   17.3780   21.4950 C.ar   65  TYR65       0.0417
     99  CE2        1.0490   15.3390   22.6700 C.ar   65  TYR65       0.0417
    100  CZ         1.1370   16.7160   22.6540 C.ar   65  TYR65       0.1957
    101  OH         0.8820   17.4350   23.8010 O.3    65  TYR65      -0.2866
    102  N          1.3130   13.0220   16.2870 N.am   66  MET66      -0.1979
    103  CA         1.7410   12.5300   14.9880 C.3    66  MET66       0.1605
    104  C          0.9390   13.1730   13.8630 C.2    66  MET66       0.2287
    105  O          1.4820   13.5120   12.8180 O.2    66  MET66      -0.2864
    106  CB         1.6250   11.0040   14.9230 C.3    66  MET66       0.0413
    107  CG         2.7520   10.2810   15.6490 C.3    66  MET66       0.0598
    108  SD         2.7340    8.4870   15.4390 S.3    66  MET66      -0.1393
    109  CE         1.4600    8.0110   16.6010 C.3    66  MET66       0.0692
    110  N          8.2060    2.6210   15.1020 N.3    90  TYR90      -0.1241
    111  CA         7.8060    4.0100   15.2510 C.3    90  TYR90       0.1605
    112  C          7.4530    4.6140   13.8960 C.2    90  TYR90       0.2264
    113  O          6.4420    5.3040   13.7620 O.2    90  TYR90      -0.2867
    114  CB         8.9110    4.8140   15.9270 C.3    90  TYR90       0.0534
    115  CG         9.2840    4.2880   17.2920 C.ar   90  TYR90      -0.0201
    116  CD1        8.3390    3.6920   18.1180 C.ar   90  TYR90      -0.0009
    117  CD2       10.5900    4.3790   17.7530 C.ar   90  TYR90      -0.0009
    118  CE1        8.6850    3.2070   19.3660 C.ar   90  TYR90       0.0417
    119  CE2       10.9380    3.9010   18.9950 C.ar   90  TYR90       0.0417
    120  CZ         9.9900    3.3210   19.7980 C.ar   90  TYR90       0.1957
    121  OH        10.3540    2.8440   21.0370 O.3    90  TYR90      -0.2866
    122  N          4.0500    3.3600   12.8130 N.3    93  GLN93      -0.1231
    123  CA         2.9910    4.0300   13.5650 C.3    93  GLN93       0.1698
    124  C          2.6670    5.3690   12.9330 C.2    93  GLN93       0.2592
    125  O          1.5000    5.7060   12.7370 O.2    93  GLN93      -0.2718
    126  CB         3.4120    4.2790   15.0150 C.3    93  GLN93       0.0381
    127  CG         3.3540    3.0830   15.9400 C.3    93  GLN93       0.0905
    128  CD         3.6910    3.4610   17.3760 C.2    93  GLN93       0.2608
    129  OE1        4.2530    4.5270   17.6340 O.2    93  GLN93      -0.2717
    130  NE2        3.3390    2.5930   18.3160 N.am   93  GLN93      -0.0878
    131  N          3.7020    6.1440   12.6330 N.am   94  ILE94      -0.1980
    132  CA         3.5100    7.4650   12.0440 C.3    94  ILE94       0.1595
    133  C          2.8130    7.3470   10.6990 C.2    94  ILE94       0.2287
    134  O          1.8550    8.0690   10.4240 O.2    94  ILE94      -0.2864
    135  CB         4.8440    8.2050   11.8560 C.3    94  ILE94       0.0276
    136  CG1        5.4800    8.4960   13.2150 C.3    94  ILE94       0.0022
    137  CG2        4.6240    9.5180   11.1020 C.3    94  ILE94       0.0022
    138  CD1        6.9750    8.7470   13.1560 C.3    94  ILE94       0.0001
@<TRIPOS>BOND
     1   134   133    2
     2   133   132    1
     3   137   135    1
     4   135   132    1
     5   135   136    1
     6   132   131    1
     7   131   124   am
     8   125   124    2
     9   122   123    1
    10   105   104    2
    11   124   123    1
    12   138   136    1
    13   123   126    1
    14   113   112    2
    15   104   103    1
    16   112   111    1
    17   106   103    1
    18   106   107    1
    19   103   102    1
    20   126   127    1
    21   110   111    1
    22     1     2    1
    23   111   114    1
    24     4     3    2
    25   108   107    1
    26   108   109    1
    27    93    92    2
    28   114   115    1
    29   127   128    1
    30     7     5    1
    31    21    19    1
    32     5     2    1
    33     5     6    1
    34   102    92   am
    35     2     3    1
    36     3     8   am
    37    92    91    1
    38    20    19    1
    39   115   117   ar
    40   115   116   ar
    41    19    16    1
    42   128   129    2
    43   128   130   am
    44     8     9    1
    45   117   119   ar
    46    15    16    1
    47    15    10   am
    48     9    10    1
    49     9    12    1
    50    18    17    2
    51    91    90    1
    52    91    94    1
    53   116   118   ar
    54    82    81    2
    55    14    12    1
    56    16    17    1
    57    17    22   am
    58    10    11    2
    59    12    13    1
    60   119   120   ar
    61    81    80    1
    62    94    95    1
    63    22    23    1
    64   118   120   ar
    65    23    24    1
    66   120   121    1
    67    95    96   ar
    68    95    97   ar
    69    96    98   ar
    70    84    83    1
    71    84    85    1
    72    80    83    1
    73    80    79    1
    74    24    26   am
    75    24    25    2
    76    56    54    1
    77    86    85    1
    78    86    87    2
    79    26    27    1
    80    47    46    1
    81    47    48    1
    82    98   100   ar
    83    97    99   ar
    84    46    45    1
    85    89    87    1
    86    87    88    1
    87    55    54    1
    88    45    42    1
    89    44    43    2
    90    42    43    1
    91    42    41    1
    92    54    51    1
    93    30    27    1
    94    27    28    1
    95    69    67   ar
    96   100    99   ar
    97   100   101    1
    98    48    49    1
    99    29    28    2
   100    50    51    1
   101    67    66    1
   102    67    68   ar
   103    51    52    1
   104    28    31   am
   105    66    65    1
   106    64    63    2
   107    52    53    2
   108    31    32    1
   109    65    62    1
   110    62    63    1
   111    62    61    1
   112    63    70   am
   113    39    40    2
   114    39    38    1
   115    34    33    2
   116    32    33    1
   117    32    35    1
   118    33    37   am
   119    37    38    1
   120    73    72    2
   121    72    71    1
   122    70    71    1
   123    71    74    1
   124    35    36    1
   125    57    58    1
   126    74    75    1
   127    59    58    1
   128    59    60    2
   129    78    76   ar
   130    75    76    1
   131    76    77   ar
