@<TRIPOS>MOLECULE
tmp/4m1uF00.pdb
 87 84 0 0 0
SMALL
GASTEIGER

@<TRIPOS>ATOM
      1  N        -17.0320   32.0530    2.0420 N.3    12  LYS12      -0.1245
      2  CA       -17.8060   32.0250    0.8080 C.3    12  LYS12       0.1561
      3  C        -19.2930   32.1420    1.0980 C.2    12  LYS12       0.2260
      4  O        -19.8390   31.3980    1.9130 O.2    12  LYS12      -0.2867
      5  CB       -17.5080   30.7450    0.0150 C.3    12  LYS12       0.0271
      6  CG       -18.1380   30.6940   -1.3760 C.3    12  LYS12       0.0035
      7  CD       -17.5040   29.6050   -2.2500 C.3    12  LYS12       0.0206
      8  CE       -17.9620   28.2050   -1.8490 C.3    12  LYS12       0.1093
      9  NZ       -19.3670   27.9170   -2.2420 N.3    12  LYS12      -0.1314
     10  N        -22.9020   31.4510   -0.2430 N.3    14  ASN14      -0.1225
     11  CA       -23.4500   30.4150   -1.1200 C.3    14  ASN14       0.1785
     12  C        -24.8370   30.7660   -1.6340 C.2    14  ASN14       0.2597
     13  O        -25.5680   31.5150   -0.9850 O.2    14  ASN14      -0.2718
     14  CB       -23.4840   29.0770   -0.3800 C.3    14  ASN14       0.1169
     15  CG       -22.1310   28.6900    0.1780 C.2    14  ASN14       0.2627
     16  OD1      -21.1010   28.9060   -0.4640 O.2    14  ASN14      -0.2716
     17  ND2      -22.1220   28.1170    1.3780 N.am   14  ASN14      -0.0877
     18  N        -25.1910   30.2090   -2.7920 N.am   15  GLU15      -0.1965
     19  CA       -26.4500   30.5290   -3.4780 C.3    15  GLU15       0.1733
     20  C        -27.7100   30.2200   -2.6730 C.2    15  GLU15       0.2616
     21  O        -28.7520   30.8330   -2.8990 O.2    15  GLU15      -0.2715
     22  CB       -26.5160   29.8470   -4.8480 C.3    15  GLU15       0.0429
     23  CG       -25.5700   30.4600   -5.8640 C.3    15  GLU15       0.1163
     24  CD       -25.7240   29.8830   -7.2600 C.2    15  GLU15       0.3649
     25  OE1      -26.4270   28.8620   -7.4310 O.co2  15  GLU15      -0.2457
     26  OE2      -25.1260   30.4590   -8.1910 O.co2  15  GLU15      -0.2457
     27  N        -27.6100   29.2850   -1.7280 N.am   16  ASP16      -0.1971
     28  CA       -28.7310   28.9690   -0.8370 C.3    16  ASP16       0.1709
     29  C        -28.7290   29.8120    0.4460 C.2    16  ASP16       0.2293
     30  O        -29.4340   29.4940    1.4060 O.2    16  ASP16      -0.2864
     31  CB       -28.7470   27.4730   -0.5000 C.3    16  ASP16       0.1436
     32  CG       -27.4890   27.0130    0.2280 C.2    16  ASP16       0.3671
     33  OD1      -26.5310   27.8070    0.3590 O.co2  16  ASP16      -0.2456
     34  OD2      -27.4530   25.8390    0.6580 O.co2  16  ASP16      -0.2456
     35  N        -26.4240   30.0880    2.6000 N.3    18  THR18      -0.1218
     36  CA       -25.5260   29.5700    3.6280 C.3    18  THR18       0.1862
     37  C        -24.1480   30.1980    3.4290 C.2    18  THR18       0.2287
     38  O        -23.9120   30.9080    2.4470 O.2    18  THR18      -0.2866
     39  CB       -25.4300   28.0240    3.6220 C.3    18  THR18       0.1770
     40  OG1      -24.9150   27.5750    2.3640 O.3    18  THR18      -0.2211
     41  CG2      -26.8030   27.3950    3.8710 C.3    18  THR18       0.0375
     42  N        -19.8520   29.5150    3.9730 N.3    20  THR20      -0.1218
     43  CA       -18.7710   28.5570    4.1670 C.3    20  THR20       0.1862
     44  C        -17.5130   29.2520    4.6740 C.2    20  THR20       0.2287
     45  O        -17.2080   30.3690    4.2610 O.2    20  THR20      -0.2866
     46  CB       -18.4560   27.8260    2.8360 C.3    20  THR20       0.1770
     47  OG1      -19.5870   27.0380    2.4510 O.3    20  THR20      -0.2211
     48  CG2      -17.2340   26.9100    2.9690 C.3    20  THR20       0.0375
     49  N        -13.3730   22.5760    5.3710 N.3    27  GLU27      -0.1231
     50  CA       -14.4780   23.4780    5.0490 C.3    27  GLU27       0.1699
     51  C        -15.7260   23.1580    5.8590 C.2    27  GLU27       0.2592
     52  O        -16.0850   21.9920    6.0360 O.2    27  GLU27      -0.2718
     53  CB       -14.7940   23.4350    3.5530 C.3    27  GLU27       0.0402
     54  CG       -13.6510   23.9200    2.6630 C.3    27  GLU27       0.1161
     55  CD       -13.9780   23.8630    1.1810 C.2    27  GLU27       0.3649
     56  OE1      -15.1740   23.8170    0.8250 O.co2  27  GLU27      -0.2457
     57  OE2      -13.0320   23.8740    0.3670 O.co2  27  GLU27      -0.2457
     58  N        -16.3760   24.2080    6.3520 N.am   28  TYR28      -0.1962
     59  CA       -17.6010   24.0770    7.1370 C.3    28  TYR28       0.1771
     60  C        -18.5700   25.1630    6.7270 C.2    28  TYR28       0.2619
     61  O        -18.1570   26.2690    6.3910 O.2    28  TYR28      -0.2715
     62  CB       -17.3070   24.2010    8.6300 C.3    28  TYR28       0.0574
     63  CG       -16.3480   23.1570    9.1310 C.ar   28  TYR28      -0.0198
     64  CD1      -16.7880   21.8670    9.4260 C.ar   28  TYR28      -0.0009
     65  CD2      -14.9990   23.4520    9.2980 C.ar   28  TYR28      -0.0009
     66  CE1      -15.9060   20.8960    9.8790 C.ar   28  TYR28       0.0417
     67  CE2      -14.1060   22.4870    9.7500 C.ar   28  TYR28       0.0417
     68  CZ       -14.5670   21.2160   10.0380 C.ar   28  TYR28       0.1957
     69  OH       -13.6850   20.2620   10.4860 O.3    28  TYR28      -0.2866
     70  N        -19.8600   24.8460    6.7630 N.am   29  TRP29      -0.1974
     71  CA       -20.8800   25.8060    6.3570 C.3    29  TRP29       0.1640
     72  C        -21.9070   26.0220    7.4560 C.2    29  TRP29       0.2290
     73  O        -22.1500   25.1370    8.2770 O.2    29  TRP29      -0.2864
     74  CB       -21.5720   25.3420    5.0730 C.3    29  TRP29       0.0576
     75  CG       -22.3100   24.0540    5.2490 C.ar   29  TRP29       0.0006
     76  CD1      -21.7920   22.7940    5.1640 C.ar   29  TRP29       0.0946
     77  CD2      -23.6970   23.8980    5.5700 C.ar   29  TRP29       0.0152
     78  NE1      -22.7730   21.8600    5.4020 N.ar   29  TRP29      -0.2442
     79  CE2      -23.9530   22.5100    5.6500 C.ar   29  TRP29       0.0810
     80  CE3      -24.7510   24.7970    5.7930 C.ar   29  TRP29       0.0012
     81  CZ2      -25.2180   21.9970    5.9450 C.ar   29  TRP29       0.0191
     82  CZ3      -26.0110   24.2860    6.0810 C.ar   29  TRP29       0.0001
     83  CH2      -26.2310   22.8980    6.1560 C.ar   29  TRP29       0.0015
     84  N        -16.7570   19.7620    4.9510 N.3    59  GLY59      -0.1225
     85  CA       -17.9850   19.8770    4.1730 C.3    59  GLY59       0.1811
     86  C        -19.2470   19.8430    5.0210 C.2    59  GLY59       0.2280
     87  O        -20.3500   19.9880    4.4930 O.2    59  GLY59      -0.2866
@<TRIPOS>BOND
     1    26    24   ar
     2    25    24   ar
     3    24    23    1
     4    23    22    1
     5    22    19    1
     6    19    18    1
     7    19    20    1
     8    21    20    2
     9    18    12   am
    10    20    27   am
    11     7     8    1
    12     7     6    1
    13     9     8    1
    14    27    28    1
    15    12    11    1
    16    12    13    2
    17     6     5    1
    18    11    14    1
    19    11    10    1
    20    28    31    1
    21    28    29    1
    22    31    32    1
    23    16    15    2
    24    14    15    1
    25     5     2    1
    26    15    17   am
    27    32    33   ar
    28    32    34   ar
    29    57    55   ar
    30    29    30    2
    31     2     3    1
    32     2     1    1
    33    56    55   ar
    34     3     4    2
    35    55    54    1
    36    40    39    1
    37    38    37    2
    38    47    46    1
    39    35    36    1
    40    54    53    1
    41    46    48    1
    42    46    43    1
    43    37    36    1
    44    53    50    1
    45    39    36    1
    46    39    41    1
    47    42    43    1
    48    43    44    1
    49    85    84    1
    50    85    86    1
    51    45    44    2
    52    87    86    2
    53    50    49    1
    54    50    51    1
    55    74    75    1
    56    74    71    1
    57    76    75   ar
    58    76    78   ar
    59    75    77   ar
    60    78    79   ar
    61    77    79   ar
    62    77    80   ar
    63    79    81   ar
    64    80    82   ar
    65    51    52    2
    66    51    58   am
    67    81    83   ar
    68    82    83   ar
    69    58    59    1
    70    71    70    1
    71    71    72    1
    72    61    60    2
    73    60    70   am
    74    60    59    1
    75    59    62    1
    76    72    73    2
    77    62    63    1
    78    63    65   ar
    79    63    64   ar
    80    65    67   ar
    81    64    66   ar
    82    67    68   ar
    83    66    68   ar
    84    68    69    1
