@<TRIPOS>MOLECULE
tmp/4m1uF01.pdb
 92 92 0 0 0
SMALL
GASTEIGER

@<TRIPOS>ATOM
      1  N        -19.8600   24.8460    6.7630 N.3    29  TRP29      -0.1227
      2  CA       -20.8800   25.8060    6.3570 C.3    29  TRP29       0.1737
      3  C        -21.9070   26.0220    7.4560 C.2    29  TRP29       0.2596
      4  O        -22.1500   25.1370    8.2770 O.2    29  TRP29      -0.2718
      5  CB       -21.5720   25.3420    5.0730 C.3    29  TRP29       0.0564
      6  CG       -22.3100   24.0540    5.2490 C.ar   29  TRP29       0.0003
      7  CD1      -21.7920   22.7940    5.1640 C.ar   29  TRP29       0.0946
      8  CD2      -23.6970   23.8980    5.5700 C.ar   29  TRP29       0.0152
      9  NE1      -22.7730   21.8600    5.4020 N.ar   29  TRP29      -0.2442
     10  CE2      -23.9530   22.5100    5.6500 C.ar   29  TRP29       0.0810
     11  CE3      -24.7510   24.7970    5.7930 C.ar   29  TRP29       0.0012
     12  CZ2      -25.2180   21.9970    5.9450 C.ar   29  TRP29       0.0191
     13  CZ3      -26.0110   24.2860    6.0810 C.ar   29  TRP29       0.0001
     14  CH2      -26.2310   22.8980    6.1560 C.ar   29  TRP29       0.0015
     15  N        -22.5070   27.2070    7.4580 N.am   30  THR30      -0.1939
     16  CA       -23.5540   27.5300    8.4160 C.3    30  THR30       0.2028
     17  C        -24.7530   28.1790    7.7400 C.2    30  THR30       0.2643
     18  O        -24.6050   28.9600    6.8000 O.2    30  THR30      -0.2714
     19  CB       -23.0440   28.4190    9.5810 C.3    30  THR30       0.1808
     20  OG1      -24.0740   28.5370   10.5730 O.3    30  THR30      -0.2208
     21  CG2      -22.6240   29.8250    9.0960 C.3    30  THR30       0.0379
     22  N        -25.9410   27.8450    8.2310 N.am   31  SER31      -0.1935
     23  CA       -27.1730   28.4360    7.7240 C.3    31  SER31       0.2055
     24  C        -27.6050   29.6350    8.5720 C.2    31  SER31       0.2642
     25  O        -28.6220   30.2730    8.2820 O.2    31  SER31      -0.2714
     26  CB       -28.2820   27.3850    7.6790 C.3    31  SER31       0.2130
     27  OG       -28.4950   26.8330    8.9650 O.3    31  SER31      -0.2179
     28  N        -26.8320   29.9450    9.6100 N.am   32  ARG32      -0.1977
     29  CA       -27.1640   31.0690   10.4820 C.3    32  ARG32       0.1597
     30  C        -26.6540   32.3670    9.8740 C.2    32  ARG32       0.2287
     31  O        -25.4430   32.6080    9.8270 O.2    32  ARG32      -0.2864
     32  CB       -26.6100   30.8730   11.9030 C.3    32  ARG32       0.0334
     33  CG       -26.9000   29.5110   12.5340 C.3    32  ARG32       0.0492
     34  CD       -28.3910   29.2030   12.6690 C.3    32  ARG32       0.2205
     35  NE       -28.5780   27.8170   13.1110 N.pl3  32  ARG32      -0.0865
     36  CZ       -28.6710   27.4340   14.3830 C.cat  32  ARG32       0.5346
     37  NH1      -28.6180   28.3240   15.3670 N.pl3  32  ARG32       0.1354
     38  NH2      -28.8130   26.1480   14.6730 N.pl3  32  ARG32       0.1354
     39  N        -17.3200   24.3060   16.2190 N.3    52  LYS52      -0.1231
     40  CA       -17.8320   23.2730   17.1160 C.3    52  LYS52       0.1693
     41  C        -19.0760   22.6460   16.5110 C.2    52  LYS52       0.2593
     42  O        -20.0030   23.3510   16.1160 O.2    52  LYS52      -0.2718
     43  CB       -18.1390   23.8570   18.4970 C.3    52  LYS52       0.0285
     44  CG       -16.9190   24.4070   19.2290 C.3    52  LYS52       0.0035
     45  CD       -17.3270   25.1950   20.4660 C.3    52  LYS52       0.0206
     46  CE       -16.1350   25.8780   21.1180 C.3    52  LYS52       0.1093
     47  NZ       -15.2580   24.9110   21.8310 N.3    52  LYS52      -0.1314
     48  N        -19.0820   21.3170   16.4350 N.am   53  SER53      -0.1938
     49  CA       -20.1610   20.5700   15.7950 C.3    53  SER53       0.2055
     50  C        -20.0870   19.0940   16.1650 C.2    53  SER53       0.2644
     51  O        -19.0240   18.5980   16.5420 O.2    53  SER53      -0.2714
     52  CB       -20.0740   20.7210   14.2730 C.3    53  SER53       0.2130
     53  OG       -21.1170   20.0190   13.6250 O.3    53  SER53      -0.2179
     54  N        -21.2160   18.3980   16.0470 N.am   54  SER54      -0.1935
     55  CA       -21.2570   16.9460   16.2550 C.3    54  SER54       0.2055
     56  C        -20.6730   16.1710   15.0690 C.2    54  SER54       0.2643
     57  O        -20.3220   15.0000   15.2030 O.2    54  SER54      -0.2714
     58  CB       -22.6840   16.4750   16.5470 C.3    54  SER54       0.2130
     59  OG       -23.1610   17.0210   17.7650 O.3    54  SER54      -0.2179
     60  N        -20.5850   16.8240   13.9110 N.am   55  THR55      -0.1950
     61  CA       -19.9490   16.2340   12.7340 C.3    55  THR55       0.1897
     62  C        -18.7980   17.1280   12.2770 C.2    55  THR55       0.2313
     63  O        -19.0020   18.2930   11.9260 O.2    55  THR55      -0.2863
     64  CB       -20.9560   16.0110   11.5800 C.3    55  THR55       0.1794
     65  OG1      -22.1570   15.4210   12.0930 O.3    55  THR55      -0.2208
     66  CG2      -20.3640   15.0970   10.5110 C.3    55  THR55       0.0378
     67  N        -19.0890   19.6590    6.3320 N.3    60  SER60      -0.1202
     68  CA       -20.2350   19.5410    7.2440 C.3    60  SER60       0.2020
     69  C        -20.7060   20.8870    7.7910 C.2    60  SER60       0.2619
     70  O        -19.9980   21.8910    7.6930 O.2    60  SER60      -0.2717
     71  CB       -19.9200   18.5920    8.4040 C.3    60  SER60       0.2103
     72  OG       -18.9510   19.1510    9.2730 O.3    60  SER60      -0.2182
     73  N        -21.8990   20.8920    8.3810 N.am   61  GLY61      -0.1942
     74  CA       -22.4960   22.1170    8.9080 C.3    61  GLY61       0.2014
     75  C        -22.1210   22.4160   10.3460 C.2    61  GLY61       0.2639
     76  O        -21.6980   21.5260   11.0810 O.2    61  GLY61      -0.2714
     77  N        -22.2650   23.6790   10.7420 N.am   62  PHE62      -0.1959
     78  CA       -22.0530   24.0890   12.1300 C.3    62  PHE62       0.1771
     79  C        -22.9510   25.2690   12.4790 C.2    62  PHE62       0.2619
     80  O        -23.4010   25.9960   11.5930 O.2    62  PHE62      -0.2715
     81  CB       -20.5800   24.4520   12.3800 C.3    62  PHE62       0.0574
     82  CG       -20.1600   25.7720   11.7760 C.ar   62  PHE62      -0.0200
     83  CD1      -19.9130   25.8820   10.4110 C.ar   62  PHE62      -0.0042
     84  CD2      -20.0030   26.9020   12.5780 C.ar   62  PHE62      -0.0042
     85  CE1      -19.5200   27.0990    9.8470 C.ar   62  PHE62      -0.0003
     86  CE2      -19.6140   28.1190   12.0310 C.ar   62  PHE62      -0.0003
     87  CZ       -19.3770   28.2210   10.6580 C.ar   62  PHE62      -0.0000
     88  N        -23.2050   25.4500   13.7710 N.am   63  ALA63      -0.1977
     89  CA       -23.9300   26.6150   14.2640 C.3    63  ALA63       0.1597
     90  C        -23.3560   27.0800   15.6030 C.2    63  ALA63       0.2287
     91  O        -23.9720   27.8820   16.3110 O.2    63  ALA63      -0.2864
     92  CB       -25.4100   26.3030   14.3880 C.3    63  ALA63       0.0319
@<TRIPOS>BOND
     1     5     6    1
     2     5     2    1
     3     7     6   ar
     4     7     9   ar
     5     6     8   ar
     6     9    10   ar
     7     8    10   ar
     8     8    11   ar
     9    10    12   ar
    10    11    13   ar
    11    12    14   ar
    12    13    14   ar
    13    67    68    1
    14     2     1    1
    15     2     3    1
    16    18    17    2
    17    68    69    1
    18    68    71    1
    19     3    15   am
    20     3     4    2
    21    15    16    1
    22    26    23    1
    23    26    27    1
    24    70    69    2
    25    23    22    1
    26    23    24    1
    27    17    22   am
    28    17    16    1
    29    69    73   am
    30    25    24    2
    31    73    74    1
    32    71    72    1
    33    16    19    1
    34    24    28   am
    35    74    75    1
    36    21    19    1
    37    19    20    1
    38    28    29    1
    39    31    30    2
    40    85    83   ar
    41    85    87   ar
    42    30    29    1
    43    75    77   am
    44    75    76    2
    45    83    82   ar
    46    29    32    1
    47    66    64    1
    48    87    86   ar
    49    77    78    1
    50    64    65    1
    51    64    61    1
    52    80    79    2
    53    82    81    1
    54    82    84   ar
    55    32    33    1
    56    63    62    2
    57    86    84   ar
    58    78    81    1
    59    78    79    1
    60    62    61    1
    61    79    88   am
    62    33    34    1
    63    34    35    1
    64    61    60    1
    65    35    36    2
    66    53    52    1
    67    88    89    1
    68    60    56   am
    69    89    92    1
    70    89    90    1
    71    52    49    1
    72    36    38    1
    73    36    37    1
    74    56    57    2
    75    56    55    1
    76    90    91    2
    77    49    50    1
    78    49    48    1
    79    54    50   am
    80    54    55    1
    81    42    41    2
    82    50    51    2
    83    39    40    1
    84    55    58    1
    85    48    41   am
    86    41    40    1
    87    58    59    1
    88    40    43    1
    89    43    44    1
    90    44    45    1
    91    45    46    1
    92    46    47    1
