@<TRIPOS>MOLECULE
tmp/4m1wC00.pdb
 162 155 0 0 0
SMALL
GASTEIGER

@<TRIPOS>ATOM
      1  N          0.3160   37.6290   44.4060 N.3     7  VAL7       -0.1245
      2  CA        -1.1200   37.6080   44.1320 C.3     7  VAL7        0.1561
      3  C         -1.3470   37.0510   42.7310 C.2     7  VAL7        0.2260
      4  O         -0.7280   37.5000   41.7700 O.2     7  VAL7       -0.2867
      5  CB        -1.7160   39.0200   44.2400 C.3     7  VAL7        0.0252
      6  CG1       -3.2220   39.0030   44.0190 C.3     7  VAL7        0.0019
      7  CG2       -1.3930   39.6260   45.6000 C.3     7  VAL7        0.0019
      8  N         -3.8510   36.6750   39.7480 N.3     9  VAL9       -0.1231
      9  CA        -5.0570   37.2750   39.1930 C.3     9  VAL9        0.1692
     10  C         -5.3420   36.7770   37.7820 C.2     9  VAL9        0.2593
     11  O         -4.4780   36.2150   37.1120 O.2     9  VAL9       -0.2718
     12  CB        -4.9890   38.8230   39.1960 C.3     9  VAL9        0.0266
     13  CG1       -4.6170   39.3420   40.5930 C.3     9  VAL9        0.0020
     14  CG2       -4.0200   39.3390   38.1540 C.3     9  VAL9        0.0020
     15  N         -6.5720   36.9990   37.3470 N.am   10  GLY10      -0.1942
     16  CA        -7.0050   36.5380   36.0440 C.3    10  GLY10       0.2014
     17  C         -8.4500   36.1180   36.0700 C.2    10  GLY10       0.2639
     18  O         -9.0390   35.9240   37.1260 O.2    10  GLY10      -0.2714
     19  N         -9.0110   35.9580   34.8790 N.am   11  ALA11      -0.1963
     20  CA       -10.4270   35.6800   34.7390 C.3    11  ALA11       0.1728
     21  C        -10.8120   34.3360   35.3370 C.2    11  ALA11       0.2616
     22  O         -9.9750   33.4690   35.5680 O.2    11  ALA11      -0.2715
     23  CB       -10.8160   35.7370   33.2610 C.3    11  ALA11       0.0334
     24  N        -12.1120   34.1670   35.5660 N.am   12  CYS12      -0.1954
     25  CA       -12.6540   32.9120   36.0560 C.3    12  CYS12       0.1843
     26  C        -12.2530   31.7670   35.1360 C.2    12  CYS12       0.2626
     27  O        -12.3950   31.8590   33.9120 O.2    12  CYS12      -0.2714
     28  CB       -14.1760   33.0100   36.1250 C.3    12  CYS12       0.0997
     29  SG       -14.9500   31.6030   36.9420 S.3    12  CYS12      -0.0797
     30  N        -11.7510   30.6910   35.7250 N.am   13  GLY13      -0.1954
     31  CA       -11.4790   29.4750   34.9840 C.3    13  GLY13       0.1869
     32  C        -10.1840   29.4140   34.1900 C.2    13  GLY13       0.2309
     33  O        -10.0060   28.4770   33.4080 O.2    13  GLY13      -0.2863
     34  N         -6.0260   29.7560   37.9200 N.3    16  LYS16      -0.1245
     35  CA        -5.3250   30.3990   39.0320 C.3    16  LYS16       0.1561
     36  C         -5.1480   29.4060   40.1730 C.2    16  LYS16       0.2260
     37  O         -4.0640   29.2810   40.7370 O.2    16  LYS16      -0.2867
     38  CB        -6.0720   31.6390   39.5310 C.3    16  LYS16       0.0271
     39  CG        -6.2700   32.7250   38.4840 C.3    16  LYS16       0.0035
     40  CD        -6.9320   33.9750   39.0610 C.3    16  LYS16       0.0206
     41  CE        -8.3810   33.7310   39.4830 C.3    16  LYS16       0.1093
     42  NZ        -9.2390   33.2980   38.3390 N.3    16  LYS16      -0.1314
     43  N         -1.6900   34.4800   47.3700 N.3    47  LEU47      -0.1245
     44  CA        -3.1180   34.7180   47.3950 C.3    47  LEU47       0.1561
     45  C         -3.6860   34.3170   46.0520 C.2    47  LEU47       0.2260
     46  O         -3.4230   34.9660   45.0390 O.2    47  LEU47      -0.2867
     47  CB        -3.4270   36.1870   47.6560 C.3    47  LEU47       0.0270
     48  CG        -4.9170   36.5130   47.7330 C.3    47  LEU47       0.0019
     49  CD1       -5.4870   36.1050   49.0810 C.3    47  LEU47       0.0001
     50  CD2       -5.1390   37.9770   47.4720 C.3    47  LEU47       0.0001
     51  N         -6.6830   34.5430   44.0240 N.3    49  THR49      -0.1203
     52  CA        -7.8290   35.4440   44.0550 C.3    49  THR49       0.1994
     53  C         -9.1110   34.8050   43.5150 C.2    49  THR49       0.2618
     54  O        -10.1050   35.4960   43.3620 O.2    49  THR49      -0.2717
     55  CB        -7.5640   36.7600   43.2850 C.3    49  THR49       0.1784
     56  OG1       -7.3950   36.5000   41.8800 O.3    49  THR49      -0.2211
     57  CG2       -6.3310   37.4630   43.8260 C.3    49  THR49       0.0376
     58  N         -9.0900   33.4940   43.2710 N.am   50  ALA50      -0.1965
     59  CA       -10.2130   32.7900   42.6350 C.3    50  ALA50       0.1728
     60  C        -11.5400   32.9240   43.3790 C.2    50  ALA50       0.2617
     61  O        -12.5990   32.7240   42.7870 O.2    50  ALA50      -0.2715
     62  CB        -9.8750   31.3130   42.4590 C.3    50  ALA50       0.0334
     63  N        -11.4850   33.2340   44.6730 N.am   51  GLY51      -0.1940
     64  CA       -12.6880   33.3440   45.4800 C.3    51  GLY51       0.2014
     65  C        -12.8460   34.7060   46.1240 C.2    51  GLY51       0.2638
     66  O        -13.3530   34.8100   47.2430 O.2    51  GLY51      -0.2714
     67  N        -12.4210   35.7490   45.4140 N.am   52  GLN52      -0.1977
     68  CA       -12.4730   37.1150   45.9290 C.3    52  GLN52       0.1601
     69  C        -13.3610   37.9950   45.0540 C.2    52  GLN52       0.2287
     70  O        -13.0860   39.1830   44.8690 O.2    52  GLN52      -0.2864
     71  CB       -11.0630   37.7060   45.9940 C.3    52  GLN52       0.0394
     72  CG       -10.0830   36.9010   46.8390 C.3    52  GLN52       0.0908
     73  CD       -10.1880   37.2170   48.3170 C.2    52  GLN52       0.2608
     74  OE1      -10.2840   38.3790   48.7060 O.2    52  GLN52      -0.2717
     75  NE2      -10.1710   36.1820   49.1490 N.am   52  GLN52      -0.0878
     76  N        -14.7070   40.9690   43.6140 N.3    53  GLU53      -0.1245
     77  CA       -16.0300   41.5650   43.4750 C.3    53  GLU53       0.1567
     78  C        -16.1890   42.7500   44.4240 C.2    53  GLU53       0.2260
     79  O        -16.9380   43.6890   44.1450 O.2    53  GLU53      -0.2867
     80  CB       -17.1130   40.5170   43.7710 C.3    53  GLU53       0.0388
     81  CG       -18.5480   41.0530   43.7950 C.3    53  GLU53       0.1160
     82  CD       -19.0280   41.5360   42.4350 C.2    53  GLU53       0.3649
     83  OE1      -18.5180   41.0470   41.4040 O.co2  53  GLU53      -0.2457
     84  OE2      -19.9210   42.4080   42.3990 O.co2  53  GLU53      -0.2457
     85  N        -11.9200   44.0630   49.6140 N.3    57  MET57      -0.1230
     86  CA       -10.9930   42.9600   49.3990 C.3    57  MET57       0.1702
     87  C         -9.9510   43.3320   48.3450 C.2    57  MET57       0.2592
     88  O         -8.7530   43.1340   48.5460 O.2    57  MET57      -0.2718
     89  CB       -11.7560   41.7080   48.9560 C.3    57  MET57       0.0401
     90  CG       -12.9630   41.3670   49.8250 C.3    57  MET57       0.0596
     91  SD       -12.5420   40.9160   51.5200 S.3    57  MET57      -0.1393
     92  CE       -11.6650   39.3780   51.2620 C.3    57  MET57       0.0692
     93  N        -10.4180   43.8730   47.2250 N.am   58  ARG58      -0.1980
     94  CA        -9.5380   44.2480   46.1240 C.3    58  ARG58       0.1597
     95  C         -8.5060   45.3000   46.5440 C.2    58  ARG58       0.2287
     96  O         -7.4010   45.3300   46.0110 O.2    58  ARG58      -0.2864
     97  CB       -10.3600   44.7630   44.9400 C.3    58  ARG58       0.0334
     98  CG       -11.1380   43.7020   44.1950 C.3    58  ARG58       0.0492
     99  CD       -11.9460   44.2410   42.9930 C.3    58  ARG58       0.2205
    100  NE       -12.9340   45.1770   43.5570 N.pl3  58  ARG58      -0.0865
    101  CZ       -13.7620   45.8990   42.7620 C.cat  58  ARG58       0.5346
    102  NH1      -13.6310   45.7560   41.4290 N.pl3  58  ARG58       0.1354
    103  NH2      -14.6550   46.6920   43.3400 N.pl3  58  ARG58       0.1354
    104  N         -5.2620   43.3780   49.5440 N.3    61  TYR61      -0.1227
    105  CA        -4.3460   42.4190   48.9410 C.3    61  TYR61       0.1736
    106  C         -3.5380   43.0360   47.7930 C.2    61  TYR61       0.2595
    107  O         -2.3860   42.6620   47.5660 O.2    61  TYR61      -0.2718
    108  CB        -5.1260   41.2030   48.4470 C.3    61  TYR61       0.0548
    109  CG        -5.8540   40.4400   49.5350 C.ar   61  TYR61      -0.0200
    110  CD1       -5.1610   39.6530   50.4480 C.ar   61  TYR61      -0.0009
    111  CD2       -7.2390   40.4940   49.6370 C.ar   61  TYR61      -0.0009
    112  CE1       -5.8280   38.9470   51.4350 C.ar   61  TYR61       0.0417
    113  CE2       -7.9120   39.7940   50.6190 C.ar   61  TYR61       0.0417
    114  CZ        -7.2030   39.0210   51.5150 C.ar   61  TYR61       0.1957
    115  OH        -7.8730   38.3230   52.4940 O.3    61  TYR61      -0.2866
    116  N         -4.1300   43.9900   47.0800 N.am   62  MET62      -0.1979
    117  CA        -3.4110   44.6620   46.0000 C.3    62  MET62       0.1605
    118  C         -2.3620   45.6450   46.4970 C.2    62  MET62       0.2287
    119  O         -1.2740   45.7370   45.9300 O.2    62  MET62      -0.2864
    120  CB        -4.3640   45.4260   45.1010 C.3    62  MET62       0.0413
    121  CG        -4.9930   44.5630   44.0060 C.3    62  MET62       0.0598
    122  SD        -6.0150   45.4710   42.8490 S.3    62  MET62      -0.1393
    123  CE        -5.0140   46.8800   42.7070 C.3    62  MET62       0.0692
    124  N         -7.3390   44.9960   31.8190 N.3    85  HIS85      -0.1226
    125  CA        -8.1030   45.4040   32.9930 C.3    85  HIS85       0.1752
    126  C         -7.3330   45.1510   34.2910 C.2    85  HIS85       0.2596
    127  O         -7.2800   46.0070   35.1680 O.2    85  HIS85      -0.2718
    128  CB        -9.4450   44.6670   33.0190 C.3    85  HIS85       0.0759
    129  CG       -10.1290   44.7030   34.3470 C.ar   85  HIS85       0.0818
    130  ND1      -10.0560   43.6630   35.2480 N.ar   85  HIS85      -0.2268
    131  CD2      -10.9010   45.6520   34.9270 C.ar   85  HIS85       0.1154
    132  CE1      -10.7520   43.9710   36.3280 C.ar   85  HIS85       0.1986
    133  NE2      -11.2740   45.1730   36.1590 N.ar   85  HIS85      -0.2212
    134  N         -6.7260   43.9760   34.4040 N.am   86  TYR86      -0.1976
    135  CA        -6.0300   43.6170   35.6340 C.3    86  TYR86       0.1639
    136  C         -4.8000   44.4860   35.8480 C.2    86  TYR86       0.2290
    137  O         -4.5850   45.0130   36.9440 O.2    86  TYR86      -0.2864
    138  CB        -5.6540   42.1370   35.6180 C.3    86  TYR86       0.0560
    139  CG        -6.8520   41.2410   35.7620 C.ar   86  TYR86      -0.0198
    140  CD1       -7.6150   41.2630   36.9170 C.ar   86  TYR86      -0.0009
    141  CD2       -7.2270   40.3780   34.7520 C.ar   86  TYR86      -0.0009
    142  CE1       -8.7180   40.4560   37.0590 C.ar   86  TYR86       0.0417
    143  CE2       -8.3290   39.5630   34.8880 C.ar   86  TYR86       0.0417
    144  CZ        -9.0670   39.6040   36.0400 C.ar   86  TYR86       0.1957
    145  OH       -10.1700   38.7970   36.1870 O.3    86  TYR86      -0.2866
    146  N         -5.7230   48.1960   36.7310 N.3    89  GLN89      -0.1231
    147  CA        -6.3300   48.3160   38.0480 C.3    89  GLN89       0.1698
    148  C         -5.2630   48.2050   39.1180 C.2    89  GLN89       0.2592
    149  O         -5.2920   48.9440   40.1080 O.2    89  GLN89      -0.2718
    150  CB        -7.3950   47.2420   38.2630 C.3    89  GLN89       0.0381
    151  CG        -8.1260   47.3730   39.5920 C.3    89  GLN89       0.0905
    152  CD        -9.3170   46.4430   39.6980 C.2    89  GLN89       0.2608
    153  OE1      -10.4280   46.7880   39.2930 O.2    89  GLN89      -0.2717
    154  NE2       -9.0930   45.2560   40.2510 N.am   89  GLN89      -0.0878
    155  N         -4.3160   47.2920   38.9150 N.am   90  ILE90      -0.1980
    156  CA        -3.2290   47.1250   39.8770 C.3    90  ILE90       0.1595
    157  C         -2.3860   48.3870   39.9560 C.2    90  ILE90       0.2287
    158  O         -2.0900   48.8600   41.0500 O.2    90  ILE90      -0.2864
    159  CB        -2.3590   45.8900   39.5820 C.3    90  ILE90       0.0276
    160  CG1       -3.1790   44.6230   39.8030 C.3    90  ILE90       0.0022
    161  CG2       -1.1320   45.8610   40.4960 C.3    90  ILE90       0.0022
    162  CD1       -2.6190   43.4050   39.1050 C.3    90  ILE90       0.0001
@<TRIPOS>BOND
     1   124   125    1
     2   125   128    1
     3   125   126    1
     4   128   129    1
     5    23    20    1
     6    33    32    2
     7    27    26    2
     8    32    31    1
     9   126   134   am
    10   126   127    2
    11   129   131   ar
    12   129   130   ar
    13   134   135    1
    14    20    19    1
    15    20    21    1
    16   141   143   ar
    17   141   139   ar
    18    19    17   am
    19   143   144   ar
    20   131   133   ar
    21    31    30    1
    22    26    30   am
    23    26    25    1
    24   130   132   ar
    25    21    24   am
    26    21    22    2
    27    24    25    1
    28   138   135    1
    29   138   139    1
    30   135   136    1
    31   139   140   ar
    32   136   137    2
    33   144   145    1
    34   144   142   ar
    35    16    17    1
    36    16    15    1
    37    25    28    1
    38    17    18    2
    39    28    29    1
    40   133   132   ar
    41   146   147    1
    42   140   142   ar
    43    11    10    2
    44    15    10   am
    45    10     9    1
    46    34    35    1
    47   147   150    1
    48   147   148    1
    49    14    12    1
    50   150   151    1
    51    42    41    1
    52    39    40    1
    53    39    38    1
    54   155   148   am
    55   155   156    1
    56    35    38    1
    57    35    36    1
    58    40    41    1
    59   162   160    1
    60   148   149    2
    61     9    12    1
    62     9     8    1
    63    12    13    1
    64   153   152    2
    65   159   160    1
    66   159   156    1
    67   159   161    1
    68   151   152    1
    69   152   154   am
    70   156   157    1
    71   157   158    2
    72    36    37    2
    73    83    82   ar
    74   102   101    1
    75     4     3    2
    76    56    55    1
    77    84    82   ar
    78    82    81    1
    79    62    59    1
    80    59    58    1
    81    59    60    1
    82   123   122    1
    83     3     2    1
    84   101   103    1
    85   101   100    2
    86    61    60    2
    87   122   121    1
    88    99   100    1
    89    99    98    1
    90    58    53   am
    91    55    57    1
    92    55    52    1
    93    54    53    2
    94    60    63   am
    95    77    76    1
    96    77    80    1
    97    77    78    1
    98    53    52    1
    99    80    81    1
   100   121   120    1
   101     6     5    1
   102    51    52    1
   103     2     5    1
   104     2     1    1
   105    79    78    2
   106    98    97    1
   107     5     7    1
   108    63    64    1
   109    70    69    2
   110    97    94    1
   111    46    45    2
   112    69    68    1
   113   120   117    1
   114    67    68    1
   115    67    65   am
   116    64    65    1
   117    68    71    1
   118   119   118    2
   119    71    72    1
   120   117   118    1
   121   117   116    1
   122    96    95    2
   123    45    44    1
   124    94    95    1
   125    94    93    1
   126    65    66    2
   127    72    73    1
   128   116   106   am
   129    93    87   am
   130    43    44    1
   131    44    47    1
   132    50    48    1
   133   107   106    2
   134    47    48    1
   135    48    49    1
   136   106   105    1
   137    73    74    2
   138    73    75   am
   139    87    88    2
   140    87    86    1
   141   108   105    1
   142   108   109    1
   143   105   104    1
   144    89    86    1
   145    89    90    1
   146    86    85    1
   147   109   111   ar
   148   109   110   ar
   149   111   113   ar
   150    90    91    1
   151   110   112   ar
   152   113   114   ar
   153    92    91    1
   154   112   114   ar
   155   114   115    1
