@<TRIPOS>MOLECULE
tmp/4m1yB00.pdb
 134 128 0 0 0
SMALL
GASTEIGER

@<TRIPOS>ATOM
      1  N         14.9460   16.0810  176.3540 N.3     7  VAL7       -0.1231
      2  CA        14.7670   15.1360  177.4440 C.3     7  VAL7        0.1692
      3  C         15.9830   14.2120  177.5060 C.2     7  VAL7        0.2592
      4  O         16.4150   13.6680  176.4950 O.2     7  VAL7       -0.2718
      5  CB        13.4610   14.2960  177.2940 C.3     7  VAL7        0.0266
      6  CG1       13.2810   13.3600  178.4920 C.3     7  VAL7        0.0020
      7  CG2       12.2400   15.2020  177.1630 C.3     7  VAL7        0.0020
      8  N         16.5370   14.0760  178.7010 N.am    8  VAL8       -0.1966
      9  CA        17.6750   13.2090  178.9560 C.3     8  VAL8        0.1727
     10  C         17.1570   11.9180  179.5920 C.2     8  VAL8        0.2616
     11  O         16.5290   11.9360  180.6380 O.2     8  VAL8       -0.2715
     12  CB        18.6850   13.9110  179.8750 C.3     8  VAL8        0.0290
     13  CG1       19.9670   13.0660  180.0540 C.3     8  VAL8        0.0023
     14  CG2       19.0340   15.2810  179.3250 C.3     8  VAL8        0.0023
     15  N         17.4120   10.7900  178.9240 N.am    9  VAL9       -0.1963
     16  CA        16.9440    9.4870  179.3820 C.3     9  VAL9        0.1727
     17  C         18.1060    8.5270  179.5790 C.2     9  VAL9        0.2617
     18  O         19.1930    8.7390  179.0780 O.2     9  VAL9       -0.2715
     19  CB        15.8650    8.8630  178.4120 C.3     9  VAL9        0.0290
     20  CG1       14.7610    9.8620  178.0690 C.3     9  VAL9        0.0023
     21  CG2       16.4780    8.3210  177.1310 C.3     9  VAL9        0.0023
     22  N         17.8400    7.4780  180.3390 N.am   10  GLY10      -0.1940
     23  CA        18.8390    6.4650  180.6200 C.3    10  GLY10       0.2014
     24  C         18.7290    5.9860  182.0490 C.2    10  GLY10       0.2639
     25  O         17.9940    6.5300  182.8740 O.2    10  GLY10      -0.2714
     26  N         19.4900    4.9350  182.3540 N.am   11  ALA11      -0.1963
     27  CA        19.3740    4.2570  183.6140 C.3    11  ALA11       0.1728
     28  C         19.6890    5.1710  184.7850 C.2    11  ALA11       0.2616
     29  O         20.4150    6.1540  184.6350 O.2    11  ALA11      -0.2715
     30  CB        20.3150    3.0760  183.6110 C.3    11  ALA11       0.0334
     31  N         19.1920    4.8140  185.9560 N.am   12  CYS12      -0.1954
     32  CA        19.5260    5.5270  187.1760 C.3    12  CYS12       0.1843
     33  C         21.0440    5.5670  187.3560 C.2    12  CYS12       0.2626
     34  O         21.7250    4.5520  187.2150 O.2    12  CYS12      -0.2714
     35  CB        18.8800    4.8290  188.3580 C.3    12  CYS12       0.0997
     36  SG        18.7570    5.8460  189.8260 S.3    12  CYS12      -0.0797
     37  N         21.5780    6.7570  187.6250 N.am   13  GLY13      -0.1954
     38  CA        22.9700    6.9030  188.0030 C.3    13  GLY13       0.1869
     39  C         23.9670    7.0660  186.8730 C.2    13  GLY13       0.2309
     40  O         25.1640    7.1260  187.1340 O.2    13  GLY13      -0.2863
     41  N         22.6730   11.7140  184.1300 N.3    16  LYS16      -0.1245
     42  CA        21.7610   12.5860  183.3960 C.3    16  LYS16       0.1561
     43  C         21.6640   13.9770  184.0270 C.2    16  LYS16       0.2260
     44  O         21.7770   14.9780  183.3410 O.2    16  LYS16      -0.2867
     45  CB        20.3740   11.9400  183.3260 C.3    16  LYS16       0.0271
     46  CG        20.3950   10.5720  182.6600 C.3    16  LYS16       0.0035
     47  CD        19.0150   10.0010  182.4260 C.3    16  LYS16       0.0206
     48  CE        18.2760    9.7010  183.7040 C.3    16  LYS16       0.1093
     49  NZ        18.9900    8.7760  184.6260 N.3    16  LYS16      -0.1314
     50  N         12.6220   16.1500  184.8340 N.3    50  THR50      -0.1218
     51  CA        11.8490   14.9560  185.1160 C.3    50  THR50       0.1862
     52  C         12.0770   14.4660  186.5410 C.2    50  THR50       0.2287
     53  O         11.5090   13.4610  186.9530 O.2    50  THR50      -0.2866
     54  CB        12.1940   13.8420  184.1110 C.3    50  THR50       0.1770
     55  OG1       13.5710   13.4750  184.2500 O.3    50  THR50      -0.2211
     56  CG2       11.9610   14.3250  182.6940 C.3    50  THR50       0.0375
     57  N         10.3250   10.8640  187.3490 N.3    54  GLU54      -0.1231
     58  CA        10.8660    9.7720  186.5370 C.3    54  GLU54       0.1699
     59  C         10.2440    8.4470  186.9380 C.2    54  GLU54       0.2592
     60  O         10.0850    7.5470  186.1140 O.2    54  GLU54      -0.2718
     61  CB        12.3800    9.6390  186.7320 C.3    54  GLU54       0.0402
     62  CG        13.2000   10.8740  186.4660 C.3    54  GLU54       0.1161
     63  CD        14.6780   10.6440  186.7210 C.2    54  GLU54       0.3649
     64  OE1       15.0540    9.5220  187.1470 O.co2  54  GLU54      -0.2457
     65  OE2       15.4640   11.5890  186.5000 O.co2  54  GLU54      -0.2457
     66  N          9.9060    8.3530  188.2220 N.am   55  GLU55      -0.1979
     67  CA         9.4120    7.1300  188.8510 C.3    55  GLU55       0.1602
     68  C          8.2230    6.5320  188.1140 C.2    55  GLU55       0.2287
     69  O          8.1280    5.3110  187.9540 O.2    55  GLU55      -0.2864
     70  CB         8.9690    7.4140  190.2970 C.3    55  GLU55       0.0415
     71  CG         9.7560    8.4920  191.0380 C.3    55  GLU55       0.1163
     72  CD         9.2990    8.6630  192.4720 C.2    55  GLU55       0.3649
     73  OE1        8.3140    8.0020  192.8670 O.co2  55  GLU55      -0.2457
     74  OE2        9.9240    9.4590  193.2050 O.co2  55  GLU55      -0.2457
     75  N          6.5810    9.8240  182.7520 N.3    60  ARG60      -0.1245
     76  CA         7.5530    9.6300  181.6820 C.3    60  ARG60       0.1563
     77  C          6.8590    9.7460  180.3300 C.2    60  ARG60       0.2260
     78  O          7.3790   10.3820  179.4240 O.2    60  ARG60      -0.2867
     79  CB         8.3030    8.2900  181.7940 C.3    60  ARG60       0.0307
     80  CG         9.2610    8.2080  182.9690 C.3    60  ARG60       0.0489
     81  CD        10.1540    6.9870  182.8700 C.3    60  ARG60       0.2205
     82  NE         9.4150    5.7270  182.7170 N.pl3  60  ARG60      -0.0865
     83  CZ         9.0480    4.9220  183.7170 C.cat  60  ARG60       0.5346
     84  NH1        9.2930    5.2390  184.9840 N.pl3  60  ARG60       0.1354
     85  NH2        8.3970    3.7990  183.4520 N.pl3  60  ARG60       0.1354
     86  N          6.2750   13.4120  179.5190 N.3    63  TYR63      -0.1227
     87  CA         7.5380   14.0560  179.1800 C.3    63  TYR63       0.1736
     88  C          8.0260   13.6400  177.8040 C.2    63  TYR63       0.2595
     89  O          8.5420   14.4630  177.0440 O.2    63  TYR63      -0.2718
     90  CB         8.6270   13.7150  180.2080 C.3    63  TYR63       0.0548
     91  CG         8.4140   14.3450  181.5650 C.ar   63  TYR63      -0.0200
     92  CD1        8.1810   15.7050  181.6900 C.ar   63  TYR63      -0.0009
     93  CD2        8.4570   13.5740  182.7240 C.ar   63  TYR63      -0.0009
     94  CE1        7.9840   16.2870  182.9310 C.ar   63  TYR63       0.0417
     95  CE2        8.2610   14.1480  183.9720 C.ar   63  TYR63       0.0417
     96  CZ         8.0250   15.5040  184.0670 C.ar   63  TYR63       0.1957
     97  OH         7.8330   16.0820  185.3000 O.3    63  TYR63      -0.2866
     98  N          7.8850   12.3550  177.4910 N.am   64  MET64      -0.1979
     99  CA         8.3270   11.8540  176.2060 C.3    64  MET64       0.1605
    100  C          7.4860   12.4620  175.0910 C.2    64  MET64       0.2287
    101  O          8.0160   12.8120  174.0490 O.2    64  MET64      -0.2864
    102  CB         8.2590   10.3290  176.1610 C.3    64  MET64       0.0413
    103  CG         9.3990    9.6710  176.9280 C.3    64  MET64       0.0598
    104  SD         9.4840    7.8780  176.7250 S.3    64  MET64      -0.1393
    105  CE         8.2090    7.3790  177.8440 C.3    64  MET64       0.0692
    106  N         14.7300    1.9400  176.1790 N.3    88  TYR88      -0.1241
    107  CA        14.3200    3.3400  176.3030 C.3    88  TYR88       0.1605
    108  C         13.9830    3.9260  174.9380 C.2    88  TYR88       0.2264
    109  O         12.9880    4.6240  174.7760 O.2    88  TYR88      -0.2867
    110  CB        15.4150    4.1510  176.9960 C.3    88  TYR88       0.0534
    111  CG        15.7220    3.6610  178.3920 C.ar   88  TYR88      -0.0201
    112  CD1       14.7050    3.2290  179.2450 C.ar   88  TYR88      -0.0009
    113  CD2       17.0230    3.5950  178.8450 C.ar   88  TYR88      -0.0009
    114  CE1       15.0020    2.7700  180.5230 C.ar   88  TYR88       0.0417
    115  CE2       17.3060    3.1450  180.1050 C.ar   88  TYR88       0.0417
    116  CZ        16.3110    2.7380  180.9350 C.ar   88  TYR88       0.1957
    117  OH        16.6230    2.2870  182.2010 O.3    88  TYR88      -0.2866
    118  N         10.6560    2.6430  173.8240 N.3    91  GLN91      -0.1231
    119  CA         9.5930    3.2320  174.6120 C.3    91  GLN91       0.1698
    120  C          9.2690    4.6240  174.0670 C.2    91  GLN91       0.2592
    121  O          8.1080    4.9650  173.8650 O.2    91  GLN91      -0.2718
    122  CB        10.0500    3.2690  176.0680 C.3    91  GLN91       0.0381
    123  CG         9.0640    3.7790  177.0810 C.3    91  GLN91       0.0905
    124  CD         9.6330    3.7130  178.4900 C.2    91  GLN91       0.2608
    125  OE1       10.7010    3.1220  178.7170 O.2    91  GLN91      -0.2717
    126  NE2        8.9350    4.3250  179.4430 N.am   91  GLN91      -0.0878
    127  N         10.2990    5.4110  173.7800 N.am   92  ILE92      -0.1980
    128  CA        10.0660    6.7510  173.2200 C.3    92  ILE92       0.1595
    129  C          9.3260    6.6550  171.8910 C.2    92  ILE92       0.2287
    130  O          8.3690    7.4040  171.6290 O.2    92  ILE92      -0.2864
    131  CB        11.4060    7.4920  173.0040 C.3    92  ILE92       0.0276
    132  CG1       12.0810    7.7780  174.3530 C.3    92  ILE92       0.0022
    133  CG2       11.1800    8.8020  172.2740 C.3    92  ILE92       0.0022
    134  CD1       13.5760    8.0420  174.2740 C.3    92  ILE92       0.0001
@<TRIPOS>BOND
     1   130   129    2
     2   129   128    1
     3   133   131    1
     4   131   128    1
     5   131   132    1
     6   128   127    1
     7   127   120   am
     8   118   119    1
     9   121   120    2
    10   101   100    2
    11   120   119    1
    12   134   132    1
    13   119   122    1
    14   109   108    2
    15   108   107    1
    16   100    99    1
    17   122   123    1
    18   102    99    1
    19   102   103    1
    20   106   107    1
    21    99    98    1
    22   107   110    1
    23     1     2    1
    24     4     3    2
    25   104   103    1
    26   104   105    1
    27   110   111    1
    28    89    88    2
    29   123   124    1
    30    21    19    1
    31     7     5    1
    32     5     2    1
    33     5     6    1
    34     2     3    1
    35    98    88   am
    36     3     8   am
    37    88    87    1
    38    20    19    1
    39   111   113   ar
    40   111   112   ar
    41    19    16    1
    42   124   125    2
    43   124   126   am
    44     8     9    1
    45   113   115   ar
    46    15    16    1
    47    15    10   am
    48     9    10    1
    49     9    12    1
    50    18    17    2
    51    87    86    1
    52    87    90    1
    53   112   114   ar
    54    14    12    1
    55    16    17    1
    56    78    77    2
    57    17    22   am
    58    10    11    2
    59    12    13    1
    60   115   116   ar
    61    90    91    1
    62    77    76    1
    63    22    23    1
    64   114   116   ar
    65    23    24    1
    66   116   117    1
    67    91    92   ar
    68    91    93   ar
    69    76    79    1
    70    76    75    1
    71    92    94   ar
    72    79    80    1
    73    24    26   am
    74    24    25    2
    75    26    27    1
    76    47    46    1
    77    47    48    1
    78    46    45    1
    79    56    54    1
    80    82    81    1
    81    82    83    2
    82    93    95   ar
    83    81    80    1
    84    94    96   ar
    85    45    42    1
    86    44    43    2
    87    42    43    1
    88    42    41    1
    89    85    83    1
    90    30    27    1
    91    27    28    1
    92    48    49    1
    93    83    84    1
    94    95    96   ar
    95    96    97    1
    96    54    55    1
    97    54    51    1
    98    29    28    2
    99    28    31   am
   100    50    51    1
   101    51    52    1
   102    31    32    1
   103    60    59    2
   104    62    63    1
   105    62    61    1
   106    65    63   ar
   107    58    61    1
   108    58    59    1
   109    58    57    1
   110    52    53    2
   111    63    64   ar
   112    39    40    2
   113    39    38    1
   114    59    66   am
   115    32    33    1
   116    32    35    1
   117    34    33    2
   118    33    37   am
   119    37    38    1
   120    69    68    2
   121    68    67    1
   122    66    67    1
   123    35    36    1
   124    67    70    1
   125    70    71    1
   126    71    72    1
   127    72    73   ar
   128    72    74   ar
