@<TRIPOS>MOLECULE
tmp/4m1zA00.pdb
 120 117 0 0 0
SMALL
GASTEIGER

@<TRIPOS>ATOM
      1  N        -26.7520   -1.0120   -6.5010 N.3    56  ASP56      -0.1225
      2  CA       -27.0910   -1.1320   -7.9030 C.3    56  ASP56       0.1805
      3  C        -28.2910   -2.0680   -7.9900 C.2    56  ASP56       0.2598
      4  O        -28.1730   -3.2570   -7.7090 O.2    56  ASP56      -0.2718
      5  CB       -25.9010   -1.7000   -8.7010 C.3    56  ASP56       0.1424
      6  CG       -26.1730   -1.7450  -10.1980 C.2    56  ASP56       0.3668
      7  OD1      -25.4090   -2.4020  -10.9490 O.co2  56  ASP56      -0.2456
      8  OD2      -27.1530   -1.1090  -10.6270 O.co2  56  ASP56      -0.2456
      9  N        -29.4380   -1.5120   -8.3530 N.am   57  CYS57      -0.1956
     10  CA       -30.6660   -2.2750   -8.4930 C.3    57  CYS57       0.1843
     11  C        -30.9890   -2.4460   -9.9470 C.2    57  CYS57       0.2625
     12  O        -32.0800   -2.8850  -10.2790 O.2    57  CYS57      -0.2714
     13  CB       -31.8260   -1.5180   -7.8380 C.3    57  CYS57       0.0997
     14  SG       -31.5870   -1.2550   -6.0690 S.3    57  CYS57      -0.0797
     15  N        -30.0620   -2.0570  -10.8240 N.am   58  ASP58      -0.1957
     16  CA       -30.3040   -2.1360  -12.2700 C.3    58  ASP58       0.1840
     17  C        -29.3350   -3.0370  -13.0240 C.2    58  ASP58       0.2621
     18  O        -29.3730   -3.0550  -14.2510 O.2    58  ASP58      -0.2715
     19  CB       -30.3030   -0.7500  -12.9200 C.3    58  ASP58       0.1450
     20  CG       -31.3920    0.1530  -12.3700 C.2    58  ASP58       0.3671
     21  OD1      -31.3100    0.5370  -11.1860 O.co2  58  ASP58      -0.2456
     22  OD2      -32.3260    0.4920  -13.1170 O.co2  58  ASP58      -0.2456
     23  N        -28.4700   -3.7660  -12.3110 N.am   59  ALA59      -0.1977
     24  CA       -27.4540   -4.6130  -12.9590 C.3    59  ALA59       0.1597
     25  C        -26.7820   -3.8210  -14.0830 C.2    59  ALA59       0.2287
     26  O        -26.8940   -4.1690  -15.2540 O.2    59  ALA59      -0.2864
     27  CB       -28.0860   -5.8930  -13.5070 C.3    59  ALA59       0.0319
     28  N        -21.2450   -3.2250  -13.5270 N.3    63  MET63      -0.1245
     29  CA       -20.4750   -3.7020  -14.6720 C.3    63  MET63       0.1570
     30  C        -19.6720   -2.6260  -15.3780 C.2    63  MET63       0.2261
     31  O        -18.5920   -2.9130  -15.9410 O.2    63  MET63      -0.2867
     32  CB       -21.4030   -4.3940  -15.6710 C.3    63  MET63       0.0387
     33  CG       -21.6980   -5.8330  -15.2820 C.3    63  MET63       0.0595
     34  SD       -23.3630   -6.3210  -15.7480 S.3    63  MET63      -0.1393
     35  CE       -24.1890   -5.5940  -14.3420 C.3    63  MET63       0.0692
     36  N        -35.3000    0.8960  -12.0160 N.3    96  ALA96      -0.1245
     37  CA       -35.9800    0.1670  -10.9380 C.3    96  ALA96       0.1562
     38  C        -36.7160    1.0720   -9.9490 C.2    96  ALA96       0.2260
     39  O        -36.4120    2.2620   -9.8280 O.2    96  ALA96      -0.2867
     40  CB       -34.9980   -0.7390  -10.2060 C.3    96  ALA96       0.0290
     41  N        -17.7540   -9.0500  -21.4030 N.3   227  THR227     -0.1218
     42  CA       -17.6240   -9.6390  -20.0880 C.3   227  THR227      0.1862
     43  C        -17.2690   -8.5600  -19.0740 C.2   227  THR227      0.2287
     44  O        -16.4930   -7.6400  -19.3670 O.2   227  THR227     -0.2866
     45  CB       -16.5110  -10.6990  -20.1100 C.3   227  THR227      0.1770
     46  OG1      -16.6540  -11.4720  -21.3050 O.3   227  THR227     -0.2211
     47  CG2      -16.5850  -11.6070  -18.9170 C.3   227  THR227      0.0375
     48  N        -19.7830   -8.9820  -11.6860 N.3   230  GLY230     -0.1210
     49  CA       -21.1120   -8.8920  -11.1350 C.3   230  GLY230      0.1956
     50  C        -21.1070   -8.4180   -9.6990 C.2   230  GLY230      0.2611
     51  O        -20.1250   -7.8480   -9.2130 O.2   230  GLY230     -0.2717
     52  N        -22.2160   -8.6840   -9.0200 N.am  231  TYR231     -0.1976
     53  CA       -22.4900   -8.1210   -7.7180 C.3   231  TYR231      0.1639
     54  C        -21.5550   -8.7010   -6.6750 C.2   231  TYR231      0.2290
     55  O        -21.3870   -8.1160   -5.6040 O.2   231  TYR231     -0.2864
     56  CB       -23.9450   -8.3860   -7.3430 C.3   231  TYR231      0.0560
     57  CG       -24.9740   -7.5980   -8.1470 C.ar  231  TYR231     -0.0198
     58  CD1      -26.3310   -7.7180   -7.8540 C.ar  231  TYR231     -0.0009
     59  CD2      -24.5980   -6.7250   -9.1820 C.ar  231  TYR231     -0.0009
     60  CE1      -27.2860   -7.0110   -8.5660 C.ar  231  TYR231      0.0417
     61  CE2      -25.5550   -6.0040   -9.9040 C.ar  231  TYR231      0.0417
     62  CZ       -26.8990   -6.1600   -9.5870 C.ar  231  TYR231      0.1957
     63  OH       -27.8720   -5.4790  -10.2650 O.3   231  TYR231     -0.2866
     64  N        -17.3840  -11.3200   -9.5900 N.3   234  GLN234     -0.1231
     65  CA       -17.1210  -12.5350  -10.3680 C.3   234  GLN234      0.1683
     66  C        -17.5380  -12.3170  -11.8300 C.2   234  GLN234      0.2434
     67  O        -18.4230  -11.5120  -12.1210 O.2   234  GLN234     -0.2733
     68  CB       -17.9090  -13.7130   -9.7680 C.3   234  GLN234      0.0380
     69  CG       -19.3940  -13.8320  -10.2040 C.3   234  GLN234      0.0905
     70  CD       -20.3130  -12.6830   -9.7230 C.2   234  GLN234      0.2608
     71  OE1      -19.9480  -11.9010   -8.8470 O.2   234  GLN234     -0.2717
     72  NE2      -21.5290  -12.6050  -10.2940 N.am  234  GLN234     -0.0878
     73  N        -16.8770  -13.0090  -12.7640 N.am  235  PRO235     -0.2718
     74  CA       -17.1820  -12.7530  -14.1660 C.3   235  PRO235      0.1535
     75  C        -18.6610  -12.9240  -14.5060 C.2   235  PRO235      0.2598
     76  O        -19.2780  -13.8820  -14.0760 O.2   235  PRO235     -0.2715
     77  CB       -16.3280  -13.8010  -14.8850 C.3   235  PRO235      0.0310
     78  CG       -15.1400  -13.9480  -13.9980 C.3   235  PRO235      0.0237
     79  CD       -15.7070  -13.9090  -12.6060 C.3   235  PRO235      0.0939
     80  N        -19.2280  -11.9880  -15.2560 N.am  236  VAL236     -0.1964
     81  CA       -20.5760  -12.1330  -15.7810 C.3   236  VAL236      0.1727
     82  C        -20.6110  -11.6510  -17.2160 C.2   236  VAL236      0.2616
     83  O        -19.8340  -10.7570  -17.5860 O.2   236  VAL236     -0.2715
     84  CB       -21.5840  -11.2320  -15.0450 C.3   236  VAL236      0.0290
     85  CG1      -21.7180  -11.6650  -13.5790 C.3   236  VAL236      0.0023
     86  CG2      -21.1790   -9.7500  -15.1370 C.3   236  VAL236      0.0023
     87  N        -21.4740  -12.2430  -18.0350 N.am  237  ASN237     -0.1958
     88  CA       -21.5120  -11.9050  -19.4540 C.3   237  ASN237      0.1819
     89  C        -22.9210  -11.7930  -20.0250 C.2   237  ASN237      0.2621
     90  O        -23.1020  -11.7320  -21.2410 O.2   237  ASN237     -0.2715
     91  CB       -20.7000  -12.9180  -20.2650 C.3   237  ASN237      0.1195
     92  CG       -21.0680  -14.3530  -19.9410 C.2   237  ASN237      0.2630
     93  OD1      -22.0330  -14.6110  -19.2210 O.2   237  ASN237     -0.2716
     94  ND2      -20.2990  -15.2960  -20.4720 N.am  237  ASN237     -0.0877
     95  N        -23.9180  -11.7650  -19.1470 N.am  238  ALA238     -0.1963
     96  CA       -25.2840  -11.6380  -19.5800 C.3   238  ALA238      0.1728
     97  C        -26.1480  -11.1540  -18.4500 C.2   238  ALA238      0.2617
     98  O        -25.7340  -11.1590  -17.2990 O.2   238  ALA238     -0.2715
     99  CB       -25.8030  -12.9680  -20.1280 C.3   238  ALA238      0.0334
    100  N        -27.3410  -10.6860  -18.7910 N.am  239  THR239     -0.1937
    101  CA       -28.4030  -10.5170  -17.8040 C.3   239  THR239      0.2013
    102  C        -29.5420  -11.4790  -18.2020 C.2   239  THR239      0.2484
    103  O        -29.7440  -11.7610  -19.3990 O.2   239  THR239     -0.2729
    104  CB       -28.8970   -9.0660  -17.7130 C.3   239  THR239      0.1807
    105  OG1      -29.2080   -8.5960  -19.0280 O.3   239  THR239     -0.2208
    106  CG2      -27.8230   -8.1430  -17.0650 C.3   239  THR239      0.0379
    107  N        -30.2640  -12.0240  -17.2070 N.am  240  PRO240     -0.2726
    108  CA       -31.3350  -12.9670  -17.5720 C.3   240  PRO240      0.1402
    109  C        -32.4560  -12.2360  -18.3140 C.2   240  PRO240      0.2269
    110  O        -32.7780  -11.0930  -17.9660 O.2   240  PRO240     -0.2865
    111  CB       -31.8290  -13.5000  -16.2120 C.3   240  PRO240      0.0296
    112  CG       -30.8070  -13.0450  -15.1940 C.3   240  PRO240      0.0237
    113  CD       -30.2030  -11.7860  -15.7530 C.3   240  PRO240      0.0939
    114  N        -30.7480  -15.4050  -22.0350 N.3   245  PRO245     -0.2116
    115  CA       -29.7380  -14.4660  -21.5310 C.3   245  PRO245      0.1372
    116  C        -29.4530  -13.3390  -22.5490 C.2   245  PRO245      0.2244
    117  O        -29.2950  -13.6130  -23.7360 O.2   245  PRO245     -0.2868
    118  CB       -28.4900  -15.3510  -21.3290 C.3   245  PRO245      0.0268
    119  CG       -28.9350  -16.7680  -21.5610 C.3   245  PRO245      0.0207
    120  CD       -30.1490  -16.6910  -22.4350 C.3   245  PRO245      0.0892
@<TRIPOS>BOND
     1   117   116    2
     2   116   115    1
     3   120   114    1
     4   120   119    1
     5   114   115    1
     6   119   118    1
     7   115   118    1
     8    41    42    1
     9    46    45    1
    10    90    89    2
    11    94    92   am
    12    91    92    1
    13    91    88    1
    14    99    96    1
    15    45    42    1
    16    45    47    1
    17    42    43    1
    18    89    88    1
    19    89    95   am
    20    92    93    2
    21    96    95    1
    22    96    97    1
    23    88    87    1
    24   103   102    2
    25    44    43    2
    26   105   104    1
    27   100    97   am
    28   100   101    1
    29    97    98    2
    30   109   110    2
    31   109   108    1
    32   102   101    1
    33   102   107   am
    34    87    82   am
    35   101   104    1
    36   104   106    1
    37    83    82    2
    38   108   107    1
    39   108   111    1
    40    82    81    1
    41   107   113    1
    42   111   112    1
    43    31    30    2
    44    81    80    1
    45    81    84    1
    46   113   112    1
    47    34    33    1
    48    34    35    1
    49    32    33    1
    50    32    29    1
    51    30    29    1
    52    80    75   am
    53    26    25    2
    54    86    84    1
    55    84    85    1
    56    77    74    1
    57    77    78    1
    58    29    28    1
    59    75    74    1
    60    75    76    2
    61    18    17    2
    62    74    73    1
    63    25    24    1
    64    78    79    1
    65    27    24    1
    66    22    20   ar
    67    17    23   am
    68    17    16    1
    69    24    23    1
    70    19    20    1
    71    19    16    1
    72    73    79    1
    73    73    66   am
    74    20    21   ar
    75    16    15    1
    76    67    66    2
    77    36    37    1
    78    66    65    1
    79    48    49    1
    80    49    50    1
    81     7     6   ar
    82    37    40    1
    83    37    38    1
    84    15    11   am
    85     8     6   ar
    86    65    68    1
    87    65    64    1
    88    72    70   am
    89    12    11    2
    90    63    62    1
    91    69    68    1
    92    69    70    1
    93     6     5    1
    94    38    39    2
    95    11    10    1
    96    61    62   ar
    97    61    59   ar
    98    70    71    2
    99    50    51    2
   100    50    52   am
   101    62    60   ar
   102    59    57   ar
   103    52    53    1
   104     5     2    1
   105    60    58   ar
   106    10     9    1
   107    10    13    1
   108     9     3   am
   109    57    58   ar
   110    57    56    1
   111     3     2    1
   112     3     4    2
   113     2     1    1
   114    13    14    1
   115    53    56    1
   116    53    54    1
   117    54    55    2
