@<TRIPOS>MOLECULE
tmp/4m20B00.pdb
 79 76 0 0 0
SMALL
GASTEIGER

@<TRIPOS>ATOM
      1  N          2.2770   32.8820    8.9000 N.3    45  GLU45      -0.1245
      2  CA         2.6360   33.7640    9.9970 C.3    45  GLU45       0.1567
      3  C          1.8550   35.0620    9.9010 C.2    45  GLU45       0.2260
      4  O          1.3990   35.5880   10.9180 O.2    45  GLU45      -0.2867
      5  CB         4.1490   34.0520   10.0240 C.3    45  GLU45       0.0388
      6  CG         4.4840   35.1220   11.0720 C.3    45  GLU45       0.1160
      7  CD         5.9090   35.0510   11.6440 C.2    45  GLU45       0.3649
      8  OE1        6.7100   34.1680   11.2490 O.co2  45  GLU45      -0.2457
      9  OE2        6.2160   35.9070   12.5010 O.co2  45  GLU45      -0.2457
     10  N         -0.7150   36.3760   12.7740 N.3    49  SER49      -0.1217
     11  CA        -0.4120   37.6950   13.3100 C.3    49  SER49       0.1889
     12  C         -1.6170   38.6240   13.1800 C.2    49  SER49       0.2288
     13  O         -1.9580   39.3680   14.1090 O.2    49  SER49      -0.2866
     14  CB         0.7840   38.3270   12.5820 C.3    49  SER49       0.2089
     15  OG         1.9670   37.6210   12.8890 O.3    49  SER49      -0.2183
     16  N          1.0550   44.7050   21.2610 N.3    62  ILE62      -0.1231
     17  CA         1.4910   44.3390   19.9140 C.3    62  ILE62       0.1678
     18  C          1.6120   42.8160   19.8530 C.2    62  ILE62       0.2434
     19  O          2.0620   42.1860   20.8280 O.2    62  ILE62      -0.2733
     20  CB         2.8460   45.0030   19.5340 C.3    62  ILE62       0.0265
     21  CG1        3.2330   44.6740   18.0910 C.3    62  ILE62       0.0019
     22  CG2        3.9500   44.6120   20.5170 C.3    62  ILE62       0.0020
     23  CD1        4.5570   45.2750   17.6600 C.3    62  ILE62       0.0001
     24  N          1.1190   42.2090   18.7520 N.am   63  PRO63      -0.2718
     25  CA         1.2930   40.7630   18.5890 C.3    63  PRO63       0.1535
     26  C          2.6080   40.4890   17.8560 C.2    63  PRO63       0.2598
     27  O          2.8220   41.0030   16.7680 O.2    63  PRO63      -0.2715
     28  CB         0.0760   40.3540   17.7610 C.3    63  PRO63       0.0310
     29  CG        -0.2490   41.5630   16.9550 C.3    63  PRO63       0.0237
     30  CD         0.3100   42.7800   17.6620 C.3    63  PRO63       0.0939
     31  N          3.4990   39.7540   18.4960 N.am   64  LEU64      -0.1964
     32  CA         4.7870   39.3900   17.9110 C.3    64  LEU64       0.1728
     33  C          4.9110   37.8830   17.7820 C.2    64  LEU64       0.2617
     34  O          4.7700   37.1710   18.7800 O.2    64  LEU64      -0.2715
     35  CB         5.9460   39.9110   18.7780 C.3    64  LEU64       0.0311
     36  CG         6.2100   41.4130   18.8780 C.3    64  LEU64       0.0022
     37  CD1        7.2910   41.6610   19.9040 C.3    64  LEU64       0.0001
     38  CD2        6.6360   41.9720   17.5280 C.3    64  LEU64       0.0001
     39  N          5.1810   37.4030   16.5740 N.am   65  GLY65      -0.1940
     40  CA         5.4780   35.9920   16.3680 C.3    65  GLY65       0.2014
     41  C          6.6140   35.5980   17.3020 C.2    65  GLY65       0.2638
     42  O          7.6360   36.2800   17.3830 O.2    65  GLY65      -0.2714
     43  N          6.3740   34.5510   18.0760 N.am   66  LEU66      -0.1977
     44  CA         7.3140   34.0050   19.0300 C.3    66  LEU66       0.1596
     45  C          7.9200   32.7080   18.5320 C.2    66  LEU66       0.2287
     46  O          9.1360   32.5660   18.4810 O.2    66  LEU66      -0.2864
     47  CB         6.6210   33.7560   20.3600 C.3    66  LEU66       0.0297
     48  CG         7.3880   32.9540   21.4130 C.3    66  LEU66       0.0022
     49  CD1        8.6510   33.6390   21.8250 C.3    66  LEU66       0.0001
     50  CD2        6.5160   32.7730   22.6410 C.3    66  LEU66       0.0001
     51  N          3.2680   36.0990   20.7250 N.3   117  ALA117     -0.1245
     52  CA         3.3660   36.7670   22.0190 C.3   117  ALA117      0.1562
     53  C          2.6160   38.0880   22.0090 C.2   117  ALA117      0.2260
     54  O          2.6870   38.8560   21.0430 O.2   117  ALA117     -0.2867
     55  CB         4.8290   36.9900   22.4010 C.3   117  ALA117      0.0290
     56  N          2.6980   41.4660   23.6410 N.3   119  LYS119     -0.1231
     57  CA         3.6400   42.2980   24.3840 C.3   119  LYS119      0.1678
     58  C          3.1720   43.7470   24.4230 C.2   119  LYS119      0.2434
     59  O          2.5260   44.2200   23.4790 O.2   119  LYS119     -0.2733
     60  CB         5.0420   42.2160   23.7730 C.3   119  LYS119      0.0284
     61  CG         5.6350   40.8140   23.7230 C.3   119  LYS119      0.0035
     62  CD         5.7960   40.2040   25.1230 C.3   119  LYS119      0.0206
     63  CE         7.2330   40.3260   25.6260 C.3   119  LYS119      0.1093
     64  NZ         7.4440   39.7500   26.9890 N.3   119  LYS119     -0.1314
     65  N          3.4780   44.4530   25.5240 N.am  120  PRO120     -0.2718
     66  CA         3.1610   45.8830   25.6180 C.3   120  PRO120      0.1535
     67  C          3.9060   46.7150   24.5740 C.2   120  PRO120      0.2598
     68  O          5.0320   46.3890   24.1960 O.2   120  PRO120     -0.2715
     69  CB         3.6090   46.2530   27.0360 C.3   120  PRO120      0.0310
     70  CG         3.6010   44.9700   27.7910 C.3   120  PRO120      0.0237
     71  CD         3.9980   43.9190   26.7960 C.3   120  PRO120      0.0939
     72  N          3.2440   47.7560   24.0800 N.am  121  LEU121     -0.1978
     73  CA         3.8060   48.6630   23.0800 C.3   121  LEU121      0.1596
     74  C          4.9410   49.5290   23.6350 C.2   121  LEU121      0.2287
     75  O          6.0480   49.0470   23.8910 O.2   121  LEU121     -0.2864
     76  CB         2.6990   49.5570   22.5210 C.3   121  LEU121      0.0297
     77  CG         1.9580   48.9640   21.3280 C.3   121  LEU121      0.0022
     78  CD1        0.8900   49.9090   20.8160 C.3   121  LEU121      0.0001
     79  CD2        2.9510   48.6340   20.2230 C.3   121  LEU121      0.0001
@<TRIPOS>BOND
     1     1     2    1
     2     3     2    1
     3     3     4    2
     4     2     5    1
     5     5     6    1
     6     6     7    1
     7     8     7   ar
     8     7     9   ar
     9    14    15    1
    10    14    11    1
    11    10    11    1
    12    12    11    1
    13    12    13    2
    14    40    39    1
    15    40    41    1
    16    39    33   am
    17    27    26    2
    18    29    30    1
    19    29    28    1
    20    41    42    2
    21    41    43   am
    22    38    36    1
    23    23    21    1
    24    30    24    1
    25    28    25    1
    26    33    32    1
    27    33    34    2
    28    26    31   am
    29    26    25    1
    30    32    31    1
    31    32    35    1
    32    43    44    1
    33    21    20    1
    34    46    45    2
    35    45    44    1
    36    25    24    1
    37    24    18   am
    38    35    36    1
    39    36    37    1
    40    44    47    1
    41    20    17    1
    42    20    22    1
    43    18    17    1
    44    18    19    2
    45    17    16    1
    46    79    77    1
    47    47    48    1
    48    51    52    1
    49    78    77    1
    50    54    53    2
    51    77    76    1
    52    48    49    1
    53    48    50    1
    54    53    52    1
    55    52    55    1
    56    76    73    1
    57    73    74    1
    58    73    72    1
    59    59    58    2
    60    74    75    2
    61    56    57    1
    62    61    60    1
    63    61    62    1
    64    60    57    1
    65    72    67   am
    66    68    67    2
    67    57    58    1
    68    58    65   am
    69    67    66    1
    70    62    63    1
    71    65    66    1
    72    65    71    1
    73    66    69    1
    74    63    64    1
    75    71    70    1
    76    69    70    1
