@<TRIPOS>MOLECULE
tmp/4m20A00.pdb
 105 104 0 0 0
SMALL
GASTEIGER

@<TRIPOS>ATOM
      1  N          6.9870   43.8200    8.0010 N.3    31  GLN31      -0.1245
      2  CA         5.5980   43.7390    8.4480 C.3    31  GLN31       0.1566
      3  C          5.1080   45.1930    8.3860 C.2    31  GLN31       0.2260
      4  O          5.9180   46.0990    8.2170 O.2    31  GLN31      -0.2867
      5  CB         5.5010   43.1670    9.8560 C.3    31  GLN31       0.0367
      6  CG         5.9790   44.1740   10.8870 C.3    31  GLN31       0.0905
      7  CD         5.9630   43.6480   12.3040 C.2    31  GLN31       0.2608
      8  OE1        5.6380   42.4850   12.5490 O.2    31  GLN31      -0.2717
      9  NE2        6.3050   44.5120   13.2550 N.am   31  GLN31      -0.0878
     10  N          4.0470   47.3280   10.6660 N.3    33  PHE33      -0.1241
     11  CA         4.3410   48.2040   11.8110 C.3    33  PHE33       0.1605
     12  C          5.4560   49.2780   11.6410 C.2    33  PHE33       0.2264
     13  O          5.2080   50.4430   11.9570 O.2    33  PHE33      -0.2867
     14  CB         4.6720   47.3360   13.0390 C.3    33  PHE33       0.0534
     15  CG         3.5110   46.5270   13.5400 C.ar   33  PHE33      -0.0203
     16  CD1        2.6960   47.0020   14.5560 C.ar   33  PHE33      -0.0042
     17  CD2        3.2280   45.2890   12.9900 C.ar   33  PHE33      -0.0042
     18  CE1        1.6190   46.2510   15.0140 C.ar   33  PHE33      -0.0003
     19  CE2        2.1590   44.5330   13.4410 C.ar   33  PHE33      -0.0003
     20  CZ         1.3510   45.0150   14.4530 C.ar   33  PHE33      -0.0000
     21  N          8.6400   45.9610   11.2570 N.3    35  TYR35      -0.1227
     22  CA         9.9340   45.3220   11.3480 C.3    35  TYR35       0.1736
     23  C         10.0770   44.3600   10.1760 C.2    35  TYR35       0.2595
     24  O          9.1380   44.1660    9.4010 O.2    35  TYR35      -0.2718
     25  CB        10.0460   44.5360   12.6520 C.3    35  TYR35       0.0548
     26  CG         9.8780   45.3320   13.9270 C.ar   35  TYR35      -0.0200
     27  CD1       10.6510   46.4570   14.1910 C.ar   35  TYR35      -0.0009
     28  CD2        8.9360   44.9450   14.8750 C.ar   35  TYR35      -0.0009
     29  CE1       10.4870   47.1740   15.3720 C.ar   35  TYR35       0.0417
     30  CE2        8.7630   45.6520   16.0470 C.ar   35  TYR35       0.0417
     31  CZ         9.5410   46.7640   16.2950 C.ar   35  TYR35       0.1957
     32  OH         9.3620   47.4620   17.4680 O.3    35  TYR35      -0.2866
     33  N         11.2350   43.7250   10.0730 N.am   36  LEU36      -0.1966
     34  CA        11.3870   42.5820    9.1880 C.3    36  LEU36       0.1728
     35  C         10.2870   41.5470    9.5050 C.2    36  LEU36       0.2616
     36  O         10.0430   41.2180   10.6610 O.2    36  LEU36      -0.2715
     37  CB        12.7870   41.9660    9.3390 C.3    36  LEU36       0.0311
     38  CG        13.0690   40.7100    8.5100 C.3    36  LEU36       0.0022
     39  CD1       12.9320   41.0510    7.0420 C.3    36  LEU36       0.0001
     40  CD2       14.4510   40.0940    8.8230 C.3    36  LEU36       0.0001
     41  N          9.5890   41.0760    8.4800 N.am   37  HIS37      -0.1959
     42  CA         8.5350   40.0620    8.6490 C.3    37  HIS37       0.1787
     43  C          9.1930   38.7540    9.0820 C.2    37  HIS37       0.2620
     44  O         10.2010   38.3660    8.5080 O.2    37  HIS37      -0.2715
     45  CB         7.7630   39.9000    7.3330 C.3    37  HIS37       0.0785
     46  CG         6.4550   39.1620    7.4440 C.ar   37  HIS37       0.0821
     47  ND1        6.3670   37.8230    7.7560 N.ar   37  HIS37      -0.2267
     48  CD2        5.1850   39.5810    7.2390 C.ar   37  HIS37       0.1154
     49  CE1        5.1000   37.4500    7.7450 C.ar   37  HIS37       0.1986
     50  NE2        4.3610   38.5010    7.4340 N.ar   37  HIS37      -0.2212
     51  N          8.6510   38.1010   10.1100 N.am   38  GLY38      -0.1954
     52  CA         9.2080   36.8550   10.6100 C.3    38  GLY38       0.1869
     53  C          9.2730   35.8090    9.5080 C.2    38  GLY38       0.2309
     54  O         10.2130   35.0200    9.4210 O.2    38  GLY38      -0.2863
     55  N         11.5060   33.4590   16.9600 N.3    73  HIS73      -0.1226
     56  CA        11.8600   34.8510   16.7070 C.3    73  HIS73       0.1752
     57  C         12.3440   35.4720   18.0090 C.2    73  HIS73       0.2596
     58  O         11.6410   35.3890   19.0240 O.2    73  HIS73      -0.2718
     59  CB        10.6590   35.6030   16.1470 C.3    73  HIS73       0.0759
     60  CG        10.1930   35.0790   14.8260 C.ar   73  HIS73       0.0818
     61  ND1       11.0570   34.8480   13.7770 N.ar   73  HIS73      -0.2268
     62  CD2        8.9600   34.7300   14.3860 C.ar   73  HIS73       0.1154
     63  CE1       10.3750   34.3970   12.7400 C.ar   73  HIS73       0.1986
     64  NE2        9.0960   34.3230   13.0810 N.ar   73  HIS73      -0.2212
     65  N         13.5620   36.0280   17.9950 N.am   74  ILE74      -0.1966
     66  CA        14.2290   36.5180   19.2120 C.3    74  ILE74       0.1727
     67  C         14.3060   38.0460   19.3220 C.2    74  ILE74       0.2616
     68  O         13.9100   38.6230   20.3330 O.2    74  ILE74      -0.2715
     69  CB        15.6620   35.9960   19.3250 C.3    74  ILE74       0.0290
     70  CG1       15.7140   34.4810   19.1080 C.3    74  ILE74       0.0022
     71  CG2       16.2790   36.4360   20.6620 C.3    74  ILE74       0.0023
     72  CD1       14.9300   33.6930   20.0790 C.3    74  ILE74       0.0001
     73  N         14.8790   38.6800   18.3030 N.am   75  HIS75      -0.1959
     74  CA        14.9890   40.1310   18.2310 C.3    75  HIS75       0.1787
     75  C         14.3930   40.6440   16.9130 C.2    75  HIS75       0.2620
     76  O         14.2150   39.8800   15.9650 O.2    75  HIS75      -0.2715
     77  CB        16.4550   40.5790   18.3510 C.3    75  HIS75       0.0785
     78  CG        17.0610   40.3490   19.7040 C.ar   75  HIS75       0.0821
     79  ND1       17.9190   39.3020   19.9710 N.ar   75  HIS75      -0.2267
     80  CD2       16.9410   41.0360   20.8640 C.ar   75  HIS75       0.1154
     81  CE1       18.2970   39.3520   21.2360 C.ar   75  HIS75       0.1986
     82  NE2       17.7160   40.3930   21.8010 N.ar   75  HIS75      -0.2212
     83  N         14.1170   41.9440   16.8470 N.am   76  SER76      -0.1950
     84  CA        13.5790   42.5590   15.6360 C.3    76  SER76       0.1924
     85  C         14.6580   43.1350   14.7290 C.2    76  SER76       0.2314
     86  O         15.7710   43.4030   15.1610 O.2    76  SER76      -0.2863
     87  CB        12.5850   43.6630   16.0080 C.3    76  SER76       0.2116
     88  OG        11.4660   43.1320   16.7000 O.3    76  SER76      -0.2180
     89  N         22.9460   40.7350   16.5480 N.3   108  GLN108     -0.1245
     90  CA        21.8740   40.2130   17.3820 C.3   108  GLN108      0.1566
     91  C         21.1980   39.0450   16.6930 C.2   108  GLN108      0.2260
     92  O         21.0070   39.0620   15.4840 O.2   108  GLN108     -0.2867
     93  CB        20.8340   41.2780   17.6900 C.3   108  GLN108      0.0367
     94  CG        21.2560   42.2960   18.7150 C.3   108  GLN108      0.0905
     95  CD        20.1400   43.2660   19.0150 C.2   108  GLN108      0.2608
     96  OE1       19.5190   43.8200   18.1030 O.2   108  GLN108     -0.2717
     97  NE2       19.8790   43.4850   20.2990 N.am  108  GLN108     -0.0878
     98  N         18.2250   37.4000   15.3850 N.3   110  ILE110     -0.1245
     99  CA        16.8550   37.7650   14.9960 C.3   110  ILE110      0.1561
    100  C         15.9630   36.5260   15.0510 C.2   110  ILE110      0.2260
    101  O         14.8430   36.5560   15.5820 O.2   110  ILE110     -0.2867
    102  CB        16.7940   38.3530   13.5770 C.3   110  ILE110      0.0252
    103  CG1       17.6330   39.6170   13.4970 C.3   110  ILE110      0.0019
    104  CG2       15.3590   38.6720   13.1750 C.3   110  ILE110      0.0019
    105  CD1       17.3040   40.5970   14.5820 C.3   110  ILE110      0.0001
@<TRIPOS>BOND
     1    39    38    1
     2    48    50   ar
     3    48    46   ar
     4    45    46    1
     5    45    42    1
     6    50    49   ar
     7    46    47   ar
     8    49    47   ar
     9     1     2    1
    10     4     3    2
    11     3     2    1
    12     2     5    1
    13    41    42    1
    14    41    35   am
    15    44    43    2
    16    38    40    1
    17    38    37    1
    18    42    43    1
    19    43    51   am
    20    34    37    1
    21    34    35    1
    22    34    33    1
    23    24    23    2
    24    54    53    2
    25    35    36    2
    26    53    52    1
    27     5     6    1
    28    33    23   am
    29    51    52    1
    30    23    22    1
    31    10    11    1
    32     6     7    1
    33    21    22    1
    34    22    25    1
    35    12    11    1
    36    12    13    2
    37    11    14    1
    38     7     8    2
    39     7     9   am
    40    25    26    1
    41    63    64   ar
    42    63    61   ar
    43    17    19   ar
    44    17    15   ar
    45    14    15    1
    46    64    62   ar
    47   104   102    1
    48    19    20   ar
    49   103   102    1
    50   103   105    1
    51    15    16   ar
    52   102    99    1
    53    61    60   ar
    54    26    27   ar
    55    26    28   ar
    56    27    29   ar
    57    62    60   ar
    58    20    18   ar
    59    16    18   ar
    60    85    86    2
    61    85    84    1
    62    60    59    1
    63    28    30   ar
    64    99   100    1
    65    99    98    1
    66   100   101    2
    67    29    31   ar
    68    92    91    2
    69    84    87    1
    70    84    83    1
    71    76    75    2
    72    87    88    1
    73    30    31   ar
    74    59    56    1
    75    31    32    1
    76    89    90    1
    77    91    90    1
    78    56    55    1
    79    56    57    1
    80    83    75   am
    81    75    74    1
    82    90    93    1
    83    93    94    1
    84    65    57   am
    85    65    66    1
    86    57    58    2
    87    96    95    2
    88    74    73    1
    89    74    77    1
    90    73    67   am
    91    77    78    1
    92    94    95    1
    93    95    97   am
    94    70    69    1
    95    70    72    1
    96    66    67    1
    97    66    69    1
    98    67    68    2
    99    69    71    1
   100    78    79   ar
   101    78    80   ar
   102    79    81   ar
   103    80    82   ar
   104    81    82   ar
