@<TRIPOS>MOLECULE
tmp/4m21B00.pdb
 121 116 0 0 0
SMALL
GASTEIGER

@<TRIPOS>ATOM
      1  N         45.2800   16.1890   96.4450 N.3     7  VAL7       -0.1231
      2  CA        45.1060   15.2280   97.5270 C.3     7  VAL7        0.1692
      3  C         46.3060   14.2950   97.6150 C.2     7  VAL7        0.2592
      4  O         46.7460   13.7300   96.6170 O.2     7  VAL7       -0.2718
      5  CB        43.8270   14.4000   97.3300 C.3     7  VAL7        0.0266
      6  CG1       43.6020   13.4710   98.5090 C.3     7  VAL7        0.0020
      7  CG2       42.6290   15.3200   97.1510 C.3     7  VAL7        0.0020
      8  N         46.8360   14.1470   98.8220 N.am    8  VAL8       -0.1966
      9  CA        47.9950   13.3020   99.0570 C.3     8  VAL8        0.1727
     10  C         47.5050   11.9990   99.6810 C.2     8  VAL8        0.2616
     11  O         46.8760   12.0080  100.7380 O.2     8  VAL8       -0.2715
     12  CB        49.0260   14.0100   99.9670 C.3     8  VAL8        0.0290
     13  CG1       50.3080   13.1960  100.0490 C.3     8  VAL8        0.0023
     14  CG2       49.3320   15.4080   99.4350 C.3     8  VAL8        0.0023
     15  N         47.7540   10.8850   98.9970 N.am    9  VAL9       -0.1963
     16  CA        47.2880    9.5850   99.4700 C.3     9  VAL9        0.1727
     17  C         48.4560    8.6130   99.6180 C.2     9  VAL9        0.2617
     18  O         49.5250    8.8060   99.0420 O.2     9  VAL9       -0.2715
     19  CB        46.1860    8.9710   98.5480 C.3     9  VAL9        0.0290
     20  CG1       45.0350    9.9310   98.3770 C.3     9  VAL9        0.0023
     21  CG2       46.7440    8.5810   97.1940 C.3     9  VAL9        0.0023
     22  N         48.2450    7.5790  100.4180 N.am   10  GLY10      -0.1940
     23  CA        49.2750    6.5930  100.6670 C.3    10  GLY10       0.2014
     24  C         49.1340    6.0260  102.0620 C.2    10  GLY10       0.2639
     25  O         48.4000    6.5610  102.8950 O.2    10  GLY10      -0.2714
     26  N         49.8600    4.9450  102.3160 N.am   11  ALA11      -0.1963
     27  CA        49.7760    4.2370  103.5800 C.3    11  ALA11       0.1728
     28  C         50.1980    5.1200  104.7540 C.2    11  ALA11       0.2616
     29  O         50.8930    6.1290  104.5860 O.2    11  ALA11      -0.2715
     30  CB        50.6450    2.9970  103.5220 C.3    11  ALA11       0.0334
     31  N         49.7600    4.7250  105.9410 N.am   12  CYS12      -0.1954
     32  CA        50.2150    5.3220  107.1940 C.3    12  CYS12       0.1843
     33  C         51.7310    5.4560  107.2760 C.2    12  CYS12       0.2626
     34  O         52.4570    4.5040  107.0130 O.2    12  CYS12      -0.2714
     35  CB        49.7580    4.4520  108.3640 C.3    12  CYS12       0.0997
     36  SG        48.0790    4.7290  108.8250 S.3    12  CYS12      -0.0797
     37  N         52.1980    6.6450  107.6450 N.am   13  GLY13      -0.1954
     38  CA        53.6010    6.8540  107.9520 C.3    13  GLY13       0.1869
     39  C         54.5580    7.0220  106.7830 C.2    13  GLY13       0.2309
     40  O         55.7700    7.0410  106.9930 O.2    13  GLY13      -0.2863
     41  N         53.1260   11.7300  104.1660 N.3    16  LYS16      -0.1245
     42  CA        52.1850   12.5820  103.4550 C.3    16  LYS16       0.1561
     43  C         52.1490   13.9610  104.1010 C.2    16  LYS16       0.2260
     44  O         52.2170   14.9770  103.4110 O.2    16  LYS16      -0.2867
     45  CB        50.7850   11.9710  103.4590 C.3    16  LYS16       0.0271
     46  CG        50.6920   10.6620  102.6680 C.3    16  LYS16       0.0035
     47  CD        49.2650   10.1260  102.6210 C.3    16  LYS16       0.0206
     48  CE        48.7230    9.7460  103.9920 C.3    16  LYS16       0.1093
     49  NZ        49.6260    8.7950  104.6930 N.3    16  LYS16      -0.1314
     50  N         43.3240   16.0320  104.6870 N.3    50  THR50      -0.1203
     51  CA        42.6210   14.7550  104.6740 C.3    50  THR50       0.1994
     52  C         42.7870   13.9350  105.9550 C.2    50  THR50       0.2617
     53  O         41.8620   13.2310  106.3670 O.2    50  THR50      -0.2717
     54  CB        43.0850   13.8990  103.4870 C.3    50  THR50       0.1784
     55  OG1       44.5180   13.8910  103.4230 O.3    50  THR50      -0.2211
     56  CG2       42.5140   14.4440  102.1840 C.3    50  THR50       0.0376
     57  N         43.9630   14.0180  106.5710 N.am   51  ALA51      -0.1979
     58  CA        44.2510   13.2690  107.7940 C.3    51  ALA51       0.1597
     59  C         43.1890   13.4960  108.8710 C.2    51  ALA51       0.2287
     60  O         42.4900   14.5090  108.8690 O.2    51  ALA51      -0.2864
     61  CB        45.6240   13.6470  108.3270 C.3    51  ALA51       0.0319
     62  N         36.5600    9.9040  102.9170 N.3    56  ARG56      -0.1245
     63  CA        37.5690    9.6470  101.9050 C.3    56  ARG56       0.1563
     64  C         36.9670    9.8740  100.5250 C.2    56  ARG56       0.2260
     65  O         37.5570   10.5550   99.6890 O.2    56  ARG56      -0.2867
     66  CB        38.1080    8.2190  102.0210 C.3    56  ARG56       0.0307
     67  CG        38.9570    8.1530  103.3380 C.3    56  ARG56       0.0489
     68  CD        39.6180    6.8340  103.4400 C.3    56  ARG56       0.2205
     69  NE        40.4590    6.4210  102.3380 N.pl3  56  ARG56      -0.0865
     70  CZ        41.7440    6.8010  102.2710 C.cat  56  ARG56       0.5346
     71  NH1       42.2920    7.5310  103.2520 N.pl3  56  ARG56       0.1354
     72  NH2       42.4600    6.4680  101.2080 N.pl3  56  ARG56       0.1354
     73  N         36.5230   13.6860   99.6470 N.3    59  TYR59      -0.1227
     74  CA        37.7730   14.3310   99.2600 C.3    59  TYR59       0.1736
     75  C         38.2730   13.8320   97.9070 C.2    59  TYR59       0.2595
     76  O         38.8300   14.6010   97.1270 O.2    59  TYR59      -0.2718
     77  CB        38.8410   14.1390  100.3440 C.3    59  TYR59       0.0548
     78  CG        38.5320   14.9040  101.6110 C.ar   59  TYR59      -0.0200
     79  CD1       38.5730   16.2920  101.6290 C.ar   59  TYR59      -0.0009
     80  CD2       38.1910   14.2420  102.7830 C.ar   59  TYR59      -0.0009
     81  CE1       38.2820   17.0030  102.7780 C.ar   59  TYR59       0.0417
     82  CE2       37.9000   14.9430  103.9420 C.ar   59  TYR59       0.0417
     83  CZ        37.9470   16.3240  103.9340 C.ar   59  TYR59       0.1957
     84  OH        37.6560   17.0300  105.0800 O.3    59  TYR59      -0.2866
     85  N         38.0600   12.5520   97.6210 N.am   60  MET60      -0.1979
     86  CA        38.4760   11.9860   96.3440 C.3    60  MET60       0.1605
     87  C         37.6580   12.5900   95.1950 C.2    60  MET60       0.2287
     88  O         38.1900   12.9040   94.1270 O.2    60  MET60      -0.2864
     89  CB        38.3370   10.4570   96.3580 C.3    60  MET60       0.0413
     90  CG        39.4850    9.7290   97.0690 C.3    60  MET60       0.0598
     91  SD        39.3920    7.9240   96.9230 S.3    60  MET60      -0.1393
     92  CE        38.3260    7.5000   98.2950 C.3    60  MET60       0.0692
     93  N         45.1450    2.0910   96.1140 N.3    84  TYR84      -0.1241
     94  CA        44.7350    3.4880   96.2010 C.3    84  TYR84       0.1605
     95  C         44.3770    4.0240   94.8220 C.2    84  TYR84       0.2264
     96  O         43.3610    4.7140   94.6660 O.2    84  TYR84      -0.2867
     97  CB        45.8240    4.3450   96.8570 C.3    84  TYR84       0.0534
     98  CG        46.0590    3.9950   98.3090 C.ar   84  TYR84      -0.0201
     99  CD1       45.0080    3.9500   99.2130 C.ar   84  TYR84      -0.0009
    100  CD2       47.3290    3.6860   98.7710 C.ar   84  TYR84      -0.0009
    101  CE1       45.2230    3.6200  100.5440 C.ar   84  TYR84       0.0417
    102  CE2       47.5530    3.3620  100.0940 C.ar   84  TYR84       0.0417
    103  CZ        46.5040    3.3310  100.9750 C.ar   84  TYR84       0.1957
    104  OH        46.7300    3.0020  102.2940 O.3    84  TYR84      -0.2866
    105  N         40.9210    2.6710   93.9900 N.3    87  GLN87      -0.1231
    106  CA        39.8900    3.3520   94.7710 C.3    87  GLN87       0.1698
    107  C         39.5150    4.6630   94.0990 C.2    87  GLN87       0.2592
    108  O         38.3420    4.9310   93.8440 O.2    87  GLN87      -0.2718
    109  CB        40.3710    3.6460   96.1920 C.3    87  GLN87       0.0381
    110  CG        40.1160    2.5360   97.1930 C.3    87  GLN87       0.0905
    111  CD        40.6220    2.8850   98.5840 C.2    87  GLN87       0.2608
    112  OE1       41.4310    3.7970   98.7520 O.2    87  GLN87      -0.2717
    113  NE2       40.1360    2.1660   99.5900 N.am   87  GLN87      -0.0878
    114  N         40.5290    5.4770   93.8220 N.am   88  ILE88      -0.1980
    115  CA        40.3260    6.7770   93.1920 C.3    88  ILE88       0.1595
    116  C         39.5730    6.6450   91.8620 C.2    88  ILE88       0.2287
    117  O         38.5660    7.3250   91.6370 O.2    88  ILE88      -0.2864
    118  CB        41.6800    7.4940   92.9790 C.3    88  ILE88       0.0276
    119  CG1       42.3200    7.8090   94.3300 C.3    88  ILE88       0.0022
    120  CG2       41.5000    8.7890   92.2010 C.3    88  ILE88       0.0022
    121  CD1       43.8040    8.1410   94.2360 C.3    88  ILE88       0.0001
@<TRIPOS>BOND
     1   117   116    2
     2   116   115    1
     3   120   118    1
     4   118   115    1
     5   118   119    1
     6   115   114    1
     7   114   107   am
     8   108   107    2
     9   105   106    1
    10   107   106    1
    11    88    87    2
    12   121   119    1
    13    96    95    2
    14   106   109    1
    15    95    94    1
    16    87    86    1
    17    93    94    1
    18   109   110    1
    19    94    97    1
    20    86    89    1
    21    86    85    1
    22    89    90    1
    23     1     2    1
    24     4     3    2
    25    97    98    1
    26    91    90    1
    27    91    92    1
    28    76    75    2
    29     7     5    1
    30   110   111    1
    31    21    19    1
    32     5     2    1
    33     5     6    1
    34     2     3    1
    35     3     8   am
    36    85    75   am
    37    75    74    1
    38    98   100   ar
    39    98    99   ar
    40    20    19    1
    41    19    16    1
    42   111   112    2
    43   111   113   am
    44   100   102   ar
    45     8     9    1
    46    15    16    1
    47    15    10   am
    48    18    17    2
    49     9    10    1
    50     9    12    1
    51    99   101   ar
    52    74    73    1
    53    74    77    1
    54    14    12    1
    55    16    17    1
    56    17    22   am
    57    10    11    2
    58    65    64    2
    59    12    13    1
    60   102   103   ar
    61    77    78    1
    62    22    23    1
    63    64    63    1
    64   101   103   ar
    65    23    24    1
    66   103   104    1
    67    72    70    1
    68    78    79   ar
    69    78    80   ar
    70    79    81   ar
    71    63    66    1
    72    63    62    1
    73    66    67    1
    74    24    26   am
    75    24    25    2
    76    56    54    1
    77    70    69    2
    78    70    71    1
    79    26    27    1
    80    69    68    1
    81    47    46    1
    82    47    48    1
    83    46    45    1
    84    81    83   ar
    85    80    82   ar
    86    67    68    1
    87    44    43    2
    88    55    54    1
    89    42    45    1
    90    42    43    1
    91    42    41    1
    92    54    51    1
    93    30    27    1
    94    27    28    1
    95    83    82   ar
    96    83    84    1
    97    48    49    1
    98    29    28    2
    99    51    50    1
   100    51    52    1
   101    28    31   am
   102    31    32    1
   103    52    53    2
   104    52    57   am
   105    57    58    1
   106    39    40    2
   107    39    38    1
   108    34    33    2
   109    32    33    1
   110    32    35    1
   111    33    37   am
   112    37    38    1
   113    58    61    1
   114    58    59    1
   115    35    36    1
   116    60    59    2
