@<TRIPOS>MOLECULE
tmp/4m22C00.pdb
 118 113 0 0 0
SMALL
GASTEIGER

@<TRIPOS>ATOM
      1  N         25.5190    6.2770   18.0640 N.3     8  VAL8       -0.1231
      2  CA        25.9050    7.5680   18.6120 C.3     8  VAL8        0.1692
      3  C         24.7320    8.5370   18.6740 C.2     8  VAL8        0.2593
      4  O         23.7120    8.3520   18.0020 O.2     8  VAL8       -0.2718
      5  CB        27.0170    8.1910   17.7970 C.3     8  VAL8        0.0266
      6  CG1       28.2130    7.2670   17.7700 C.3     8  VAL8        0.0020
      7  CG2       26.5590    8.4840   16.3970 C.3     8  VAL8        0.0020
      8  N         24.9030    9.5920   19.4630 N.am    9  GLY9       -0.1942
      9  CA        23.8600   10.5830   19.6690 C.3     9  GLY9        0.2014
     10  C         23.9700   11.1180   21.0820 C.2     9  GLY9        0.2639
     11  O         24.6940   10.5680   21.9100 O.2     9  GLY9       -0.2714
     12  N         23.2430   12.1980   21.3340 N.am   10  ALA10      -0.1963
     13  CA        23.2330   12.8720   22.6120 C.3    10  ALA10       0.1728
     14  C         22.7710   11.9650   23.7580 C.2    10  ALA10       0.2616
     15  O         22.0520   10.9930   23.5590 O.2    10  ALA10      -0.2715
     16  CB        22.3480   14.0910   22.5090 C.3    10  ALA10       0.0334
     17  N         23.1790   12.3210   24.9690 N.am   11  CYS11      -0.1954
     18  CA        22.8320   11.5860   26.1690 C.3    11  CYS11       0.1843
     19  C         21.3130   11.5710   26.2730 C.2    11  CYS11       0.2626
     20  O         20.6630   12.6030   26.0840 O.2    11  CYS11      -0.2714
     21  CB        23.4760   12.2780   27.3740 C.3    11  CYS11       0.0997
     22  SG        23.5100   11.3740   28.9470 S.3    11  CYS11      -0.0797
     23  N         20.7480   10.3910   26.5150 N.am   12  GLY12      -0.1954
     24  CA        19.3350   10.2670   26.8390 C.3    12  GLY12       0.1869
     25  C         18.3940   10.1320   25.6460 C.2    12  GLY12       0.2309
     26  O         17.1680   10.1820   25.8160 O.2    12  GLY12      -0.2863
     27  N         20.1000    5.4640   22.9030 N.3    15  LYS15      -0.1245
     28  CA        21.1400    4.5860   22.3600 C.3    15  LYS15       0.1561
     29  C         21.1450    3.2060   23.0490 C.2    15  LYS15       0.2260
     30  O         21.1050    2.1750   22.3840 O.2    15  LYS15      -0.2867
     31  CB        22.5200    5.2370   22.4800 C.3    15  LYS15       0.0271
     32  CG        22.6360    6.5750   21.7350 C.3    15  LYS15       0.0035
     33  CD        24.0440    7.1510   21.8110 C.3    15  LYS15       0.0206
     34  CE        24.4650    7.4660   23.2390 C.3    15  LYS15       0.1093
     35  NZ        23.5510    8.4240   23.9080 N.3    15  LYS15      -0.1314
     36  N         23.4060    5.1830   32.2740 N.3    31  PRO31      -0.2116
     37  CA        23.8480    6.1280   31.2430 C.3    31  PRO31       0.1372
     38  C         25.3610    6.0930   31.0040 C.2    31  PRO31       0.2244
     39  O         25.8130    6.5450   29.9490 O.2    31  PRO31      -0.2868
     40  CB        23.4340    7.4890   31.7650 C.3    31  PRO31       0.0268
     41  CG        22.1620    7.2510   32.5920 C.3    31  PRO31       0.0207
     42  CD        22.4650    5.9080   33.2770 C.3    31  PRO31       0.0892
     43  N         27.6030    3.6080   22.4550 N.3    55  THR55      -0.1203
     44  CA        28.5260    4.5810   23.0400 C.3    55  THR55       0.1994
     45  C         27.9380    5.3880   24.1870 C.2    55  THR55       0.2618
     46  O         26.7310    5.5840   24.2730 O.2    55  THR55      -0.2717
     47  CB        29.0590    5.5930   21.9990 C.3    55  THR55       0.1784
     48  OG1       27.9740    6.3410   21.4440 O.3    55  THR55      -0.2211
     49  CG2       29.8380    4.8790   20.8890 C.3    55  THR55       0.0376
     50  N         28.8200    5.8780   25.0540 N.am   56  ALA56      -0.1965
     51  CA        28.3960    6.6720   26.1960 C.3    56  ALA56       0.1728
     52  C         29.4210    7.7500   26.4910 C.2    56  ALA56       0.2616
     53  O         30.3990    7.9190   25.7500 O.2    56  ALA56      -0.2715
     54  CB        28.2060    5.7850   27.4170 C.3    56  ALA56       0.0334
     55  N         29.1870    8.4730   27.5800 N.am   57  GLY57      -0.1955
     56  CA        30.1350    9.4660   28.0510 C.3    57  GLY57       0.1869
     57  C         31.5750    8.9760   28.0300 C.2    57  GLY57       0.2309
     58  O         32.4930    9.7840   28.0210 O.2    57  GLY57      -0.2863
     59  N         37.9360    8.0400   21.4280 N.3    59  ARG59      -0.1245
     60  CA        36.6730    7.7800   20.7520 C.3    59  ARG59       0.1563
     61  C         36.9750    7.4660   19.2920 C.2    59  ARG59       0.2260
     62  O         36.2860    6.6670   18.6540 O.2    59  ARG59      -0.2867
     63  CB        35.7340    8.9890   20.8670 C.3    59  ARG59       0.0307
     64  CG        35.4370    9.3360   22.3090 C.3    59  ARG59       0.0489
     65  CD        34.4460   10.4810   22.2900 C.3    59  ARG59       0.2205
     66  NE        33.1900   10.0640   21.6080 N.pl3  59  ARG59      -0.0865
     67  CZ        32.4440   11.0930   21.1600 C.cat  59  ARG59       0.5346
     68  NH1       32.9240   12.3210   21.3620 N.pl3  59  ARG59       0.1354
     69  NH2       31.2990   10.8510   20.5580 N.pl3  59  ARG59       0.1354
     70  N         37.0640    3.6570   18.0360 N.3    62  TYR62      -0.1227
     71  CA        35.8690    2.9320   17.6090 C.3    62  TYR62       0.1736
     72  C         35.2240    3.5370   16.3490 C.2    62  TYR62       0.2595
     73  O         34.4940    2.8550   15.6290 O.2    62  TYR62      -0.2718
     74  CB        34.8550    2.7680   18.7600 C.3    62  TYR62       0.0548
     75  CG        34.1360    4.0200   19.2500 C.ar   62  TYR62      -0.0200
     76  CD1       34.3220    4.4920   20.5510 C.ar   62  TYR62      -0.0009
     77  CD2       33.2360    4.6990   18.4340 C.ar   62  TYR62      -0.0009
     78  CE1       33.6350    5.6190   21.0120 C.ar   62  TYR62       0.0417
     79  CE2       32.5600    5.8250   18.8840 C.ar   62  TYR62       0.0417
     80  CZ        32.7580    6.2810   20.1710 C.ar   62  TYR62       0.1957
     81  OH        32.0740    7.4060   20.6080 O.3    62  TYR62      -0.2866
     82  N         35.4920    4.8100   16.0820 N.am   63  MET63      -0.1979
     83  CA        35.0350    5.4260   14.8470 C.3    63  MET63       0.1605
     84  C         35.8340    4.8970   13.6480 C.2    63  MET63       0.2287
     85  O         35.2860    4.6860   12.5590 O.2    63  MET63      -0.2864
     86  CB        35.1470    6.9430   14.9490 C.3    63  MET63       0.0413
     87  CG        33.9860    7.5830   15.6770 C.3    63  MET63       0.0598
     88  SD        34.1120    9.3750   15.7150 S.3    63  MET63      -0.1393
     89  CE        35.0570    9.6070   17.2230 C.3    63  MET63       0.0692
     90  N         27.9250   14.9540   15.2220 N.3    87  TYR87      -0.1241
     91  CA        28.2990   13.5430   15.2290 C.3    87  TYR87       0.1605
     92  C         28.7400   13.1150   13.8280 C.2    87  TYR87       0.2264
     93  O         29.8050   12.5220   13.6760 O.2    87  TYR87      -0.2867
     94  CB        27.1680   12.6590   15.7820 C.3    87  TYR87       0.0534
     95  CG        26.9590   12.8480   17.2830 C.ar   87  TYR87      -0.0201
     96  CD1       27.5940   12.0200   18.2030 C.ar   87  TYR87      -0.0009
     97  CD2       26.1370   13.8620   17.7820 C.ar   87  TYR87      -0.0009
     98  CE1       27.4120   12.1910   19.5870 C.ar   87  TYR87       0.0417
     99  CE2       25.9520   14.0440   19.1650 C.ar   87  TYR87       0.0417
    100  CZ        26.5980   13.2020   20.0560 C.ar   87  TYR87       0.1957
    101  OH        26.4580   13.3720   21.4200 O.3    87  TYR87      -0.2866
    102  N         32.1960   14.5820   12.9840 N.3    90  GLN90      -0.1231
    103  CA        33.2710   13.8880   13.6860 C.3    90  GLN90       0.1698
    104  C         33.6140   12.5630   13.0030 C.2    90  GLN90       0.2592
    105  O         34.7850   12.2460   12.8100 O.2    90  GLN90      -0.2718
    106  CB        32.8970   13.6260   15.1360 C.3    90  GLN90       0.0381
    107  CG        33.0650   14.8260   16.0340 C.3    90  GLN90       0.0905
    108  CD        32.9450   14.4570   17.5020 C.2    90  GLN90       0.2608
    109  OE1       33.6260   13.5370   17.9780 O.2    90  GLN90      -0.2717
    110  NE2       32.0680   15.1620   18.2310 N.am   90  GLN90      -0.0878
    111  N         32.5890   11.7990   12.6330 N.am   91  ILE91      -0.1980
    112  CA        32.8020   10.5200   11.9610 C.3    91  ILE91       0.1595
    113  C         33.4800   10.6940   10.5970 C.2    91  ILE91       0.2287
    114  O         34.3810    9.9330   10.2560 O.2    91  ILE91      -0.2864
    115  CB        31.4850    9.7340   11.7900 C.3    91  ILE91       0.0276
    116  CG1       30.8800    9.4370   13.1600 C.3    91  ILE91       0.0022
    117  CG2       31.7190    8.4110   11.0300 C.3    91  ILE91       0.0022
    118  CD1       29.4740    8.9050   13.1060 C.3    91  ILE91       0.0001
@<TRIPOS>BOND
     1   114   113    2
     2   113   112    1
     3   117   115    1
     4   115   112    1
     5   115   116    1
     6   112   111    1
     7    85    84    2
     8   111   104   am
     9   105   104    2
    10   102   103    1
    11   104   103    1
    12   118   116    1
    13    84    83    1
    14    93    92    2
    15   103   106    1
    16    92    91    1
    17    83    86    1
    18    83    82    1
    19    86    87    1
    20   106   107    1
    21    90    91    1
    22    91    94    1
    23    73    72    2
    24    87    88    1
    25    88    89    1
    26    94    95    1
    27   107   108    1
    28    82    72   am
    29    72    71    1
    30     7     5    1
    31    95    97   ar
    32    95    96   ar
    33   108   109    2
    34   108   110   am
    35    71    70    1
    36    71    74    1
    37     6     5    1
    38    97    99   ar
    39     5     2    1
    40     4     3    2
    41     1     2    1
    42    96    98   ar
    43    77    79   ar
    44    77    75   ar
    45     2     3    1
    46    62    61    2
    47     3     8   am
    48    74    75    1
    49    79    80   ar
    50    99   100   ar
    51    75    76   ar
    52    61    60    1
    53     8     9    1
    54    98   100   ar
    55     9    10    1
    56   100   101    1
    57    80    81    1
    58    80    78   ar
    59    76    78   ar
    60    69    67    1
    61    60    63    1
    62    60    59    1
    63    63    64    1
    64    49    47    1
    65    10    12   am
    66    10    11    2
    67    67    68    1
    68    67    66    2
    69    12    13    1
    70    48    47    1
    71    66    65    1
    72    32    33    1
    73    32    31    1
    74    33    34    1
    75    47    44    1
    76    65    64    1
    77    28    31    1
    78    28    27    1
    79    28    29    1
    80    30    29    2
    81    43    44    1
    82    16    13    1
    83    13    14    1
    84    44    45    1
    85    34    35    1
    86    15    14    2
    87    14    17   am
    88    45    46    2
    89    45    50   am
    90    17    18    1
    91    50    51    1
    92    25    26    2
    93    25    24    1
    94    53    52    2
    95    20    19    2
    96    18    19    1
    97    18    21    1
    98    51    52    1
    99    51    54    1
   100    19    23   am
   101    52    55   am
   102    23    24    1
   103    21    22    1
   104    55    56    1
   105    58    57    2
   106    57    56    1
   107    39    38    2
   108    38    37    1
   109    37    40    1
   110    37    36    1
   111    40    41    1
   112    36    42    1
   113    41    42    1
