@<TRIPOS>MOLECULE
tmp/4m24A02.pdb
 96 93 0 0 0
SMALL
GASTEIGER

@<TRIPOS>ATOM
      1  N         38.2350   42.4820   33.5430 N.3    92  TYR92      -0.1241
      2  CA        39.1390   43.6330   33.4470 C.3    92  TYR92       0.1605
      3  C         40.0170   43.7700   34.6950 C.2    92  TYR92       0.2264
      4  O         40.4320   44.8660   35.0610 O.2    92  TYR92      -0.2867
      5  CB        38.3410   44.9230   33.1750 C.3    92  TYR92       0.0534
      6  CG        37.3870   44.7590   32.0090 C.ar   92  TYR92      -0.0201
      7  CD1       37.8120   44.9450   30.6950 C.ar   92  TYR92      -0.0009
      8  CD2       36.0650   44.3770   32.2210 C.ar   92  TYR92      -0.0009
      9  CE1       36.9370   44.7680   29.6270 C.ar   92  TYR92       0.0417
     10  CE2       35.1820   44.1960   31.1590 C.ar   92  TYR92       0.0417
     11  CZ        35.6230   44.3960   29.8640 C.ar   92  TYR92       0.1957
     12  OH        34.7580   44.2140   28.8090 O.3    92  TYR92      -0.2866
     13  N         40.9970   41.2610   29.5450 N.3   135  GLU135     -0.1245
     14  CA        41.4300   42.6560   29.3900 C.3   135  GLU135      0.1567
     15  C         41.7490   43.4560   30.6570 C.2   135  GLU135      0.2260
     16  O         41.1070   44.4630   30.9390 O.2   135  GLU135     -0.2867
     17  CB        40.4290   43.4330   28.5170 C.3   135  GLU135      0.0388
     18  CG        40.4110   42.9230   27.0880 C.3   135  GLU135      0.1160
     19  CD        39.5360   43.7440   26.1660 C.2   135  GLU135      0.3649
     20  OE1       38.9730   44.7750   26.6030 O.co2 135  GLU135     -0.2457
     21  OE2       39.4140   43.3400   24.9900 O.co2 135  GLU135     -0.2457
     22  N         44.3980   46.1320   27.8870 N.3   171  TRP171     -0.1241
     23  CA        43.3350   45.4220   27.1750 C.3   171  TRP171      0.1605
     24  C         43.8680   44.2490   26.3520 C.2   171  TRP171      0.2264
     25  O         43.3180   43.9010   25.3040 O.2   171  TRP171     -0.2867
     26  CB        42.5080   46.3660   26.2990 C.3   171  TRP171      0.0550
     27  CG        41.8430   47.4870   27.0530 C.ar  171  TRP171      0.0003
     28  CD1       40.6300   47.4540   27.6890 C.ar  171  TRP171      0.0946
     29  CD2       42.3570   48.8140   27.2390 C.ar  171  TRP171      0.0152
     30  NE1       40.3650   48.6790   28.2620 N.ar  171  TRP171     -0.2442
     31  CE2       41.4050   49.5300   27.9960 C.ar  171  TRP171      0.0810
     32  CE3       43.5250   49.4640   26.8380 C.ar  171  TRP171      0.0012
     33  CZ2       41.5940   50.8630   28.3650 C.ar  171  TRP171      0.0191
     34  CZ3       43.7110   50.7920   27.1990 C.ar  171  TRP171      0.0001
     35  CH2       42.7490   51.4750   27.9580 C.ar  171  TRP171      0.0015
     36  N         50.4300   46.4160   21.1150 N.3   176  ARG176     -0.1245
     37  CA        51.3670   46.9820   22.0800 C.3   176  ARG176      0.1563
     38  C         52.0230   45.9210   22.9510 C.2   176  ARG176      0.2260
     39  O         52.7230   46.2490   23.8950 O.2   176  ARG176     -0.2867
     40  CB        50.6170   47.9430   23.0050 C.3   176  ARG176      0.0307
     41  CG        50.0420   49.1560   22.3060 C.3   176  ARG176      0.0489
     42  CD        49.4060   50.1260   23.2840 C.3   176  ARG176      0.2205
     43  NE        48.2070   49.5990   23.9360 N.pl3 176  ARG176     -0.0865
     44  CZ        47.0040   49.5620   23.3810 C.cat 176  ARG176      0.5346
     45  NH1       46.8180   49.9960   22.1510 N.pl3 176  ARG176      0.1354
     46  NH2       45.9780   49.0830   24.0610 N.pl3 176  ARG176      0.1354
     47  N         44.2720   40.4530   22.1300 N.3   199  HIS199     -0.1241
     48  CA        43.0710   40.9110   21.4420 C.3   199  HIS199      0.1621
     49  C         43.4540   41.9030   20.3610 C.2   199  HIS199      0.2264
     50  O         44.3990   42.6550   20.5170 O.2   199  HIS199     -0.2867
     51  CB        42.1010   41.5730   22.4290 C.3   199  HIS199      0.0745
     52  CG        41.5120   40.6230   23.4230 C.ar  199  HIS199      0.0817
     53  ND1       40.5730   41.0090   24.3520 N.ar  199  HIS199     -0.2268
     54  CD2       41.7190   39.3020   23.6220 C.ar  199  HIS199      0.1154
     55  CE1       40.2450   39.9700   25.0980 C.ar  199  HIS199      0.1986
     56  NE2       40.9270   38.9230   24.6750 N.ar  199  HIS199     -0.2212
     57  N         41.5320   44.5270   17.3610 N.3   201  TYR201     -0.1241
     58  CA        40.5230   45.1230   16.5040 C.3   201  TYR201      0.1605
     59  C         41.2360   46.0410   15.5310 C.2   201  TYR201      0.2264
     60  O         42.2960   46.5830   15.8520 O.2   201  TYR201     -0.2867
     61  CB        39.4960   45.8920   17.3350 C.3   201  TYR201      0.0534
     62  CG        38.6800   44.9640   18.1990 C.ar  201  TYR201     -0.0201
     63  CD1       37.5450   44.3300   17.6960 C.ar  201  TYR201     -0.0009
     64  CD2       39.0670   44.6740   19.5040 C.ar  201  TYR201     -0.0009
     65  CE1       36.8110   43.4500   18.4740 C.ar  201  TYR201      0.0417
     66  CE2       38.3370   43.7930   20.2940 C.ar  201  TYR201      0.0417
     67  CZ        37.2090   43.1880   19.7710 C.ar  201  TYR201      0.1957
     68  OH        36.4740   42.3200   20.5370 O.3   201  TYR201     -0.2866
     69  N         41.5150   53.1720   16.7080 N.3   205  ASP205     -0.1225
     70  CA        42.0090   53.1000   18.0880 C.3   205  ASP205      0.1805
     71  C         42.0370   51.6800   18.6770 C.2   205  ASP205      0.2598
     72  O         42.3280   51.4990   19.8590 O.2   205  ASP205     -0.2718
     73  CB        41.2230   54.0540   19.0000 C.3   205  ASP205      0.1424
     74  CG        39.8030   53.5820   19.2710 C.2   205  ASP205      0.3668
     75  OD1       39.3630   52.5890   18.6610 O.co2 205  ASP205     -0.2456
     76  OD2       39.1140   54.2340   20.0860 O.co2 205  ASP205     -0.2456
     77  N         41.7290   50.6830   17.8500 N.am  206  ALA206     -0.1966
     78  CA        41.7520   49.2780   18.2640 C.3   206  ALA206      0.1728
     79  C         40.7850   48.9540   19.4010 C.2   206  ALA206      0.2616
     80  O         40.9520   47.9560   20.1080 O.2   206  ALA206     -0.2715
     81  CB        43.1790   48.8280   18.6070 C.3   206  ALA206      0.0334
     82  N         39.7670   49.7940   19.5610 N.am  207  SER207     -0.1950
     83  CA        38.7570   49.5940   20.6000 C.3   207  SER207      0.1924
     84  C         37.6270   48.6840   20.1440 C.2   207  SER207      0.2314
     85  O         36.8520   48.1930   20.9690 O.2   207  SER207     -0.2863
     86  CB        38.1530   50.9310   21.0290 C.3   207  SER207      0.2116
     87  OG        37.3450   51.4620   19.9900 O.3   207  SER207     -0.2180
     88  N         39.9760   37.7130   20.9460 N.3   245  GLU245     -0.1245
     89  CA        38.9600   38.5770   20.3440 C.3   245  GLU245      0.1567
     90  C         39.4860   39.2480   19.0940 C.2   245  GLU245      0.2260
     91  O         40.6020   39.7800   19.0840 O.2   245  GLU245     -0.2867
     92  CB        38.5160   39.6830   21.3030 C.3   245  GLU245      0.0388
     93  CG        37.8550   39.1860   22.5640 C.3   245  GLU245      0.1160
     94  CD        37.2860   40.3090   23.4270 C.2   245  GLU245      0.3649
     95  OE1       37.2050   41.4570   22.9410 O.co2 245  GLU245     -0.2457
     96  OE2       36.9140   40.0460   24.5900 O.co2 245  GLU245     -0.2457
@<TRIPOS>BOND
     1    59    60    2
     2    59    58    1
     3    58    61    1
     4    58    57    1
     5    69    70    1
     6    61    62    1
     7    63    62   ar
     8    63    65   ar
     9    77    78    1
    10    77    71   am
    11    70    71    1
    12    70    73    1
    13    62    64   ar
    14    78    81    1
    15    78    79    1
    16    65    67   ar
    17    75    74   ar
    18    71    72    2
    19    73    74    1
    20    91    90    2
    21    90    89    1
    22    74    76   ar
    23    79    82   am
    24    79    80    2
    25    64    66   ar
    26    82    83    1
    27    67    66   ar
    28    67    68    1
    29    87    86    1
    30    84    83    1
    31    84    85    2
    32    89    88    1
    33    89    92    1
    34    49    50    2
    35    49    48    1
    36    83    86    1
    37    36    37    1
    38    92    93    1
    39    48    47    1
    40    48    51    1
    41    37    38    1
    42    37    40    1
    43    45    44    1
    44    41    40    1
    45    41    42    1
    46    51    52    1
    47    93    94    1
    48    95    94   ar
    49    38    39    2
    50    42    43    1
    51    44    43    2
    52    44    46    1
    53    52    54   ar
    54    52    53   ar
    55    94    96   ar
    56    54    56   ar
    57    53    55   ar
    58    56    55   ar
    59    21    19   ar
    60    25    24    2
    61    19    20   ar
    62    19    18    1
    63    26    27    1
    64    26    23    1
    65    24    23    1
    66    32    34   ar
    67    32    29   ar
    68    27    29   ar
    69    27    28   ar
    70    18    17    1
    71    23    22    1
    72    34    35   ar
    73    29    31   ar
    74    28    30   ar
    75    35    33   ar
    76    31    30   ar
    77    31    33   ar
    78    17    14    1
    79    12    11    1
    80    14    13    1
    81    14    15    1
    82     9    11   ar
    83     9     7   ar
    84    11    10   ar
    85    15    16    2
    86     7     6   ar
    87    10     8   ar
    88     6     8   ar
    89     6     5    1
    90     5     2    1
    91     2     1    1
    92     2     3    1
    93     3     4    2
