@<TRIPOS>MOLECULE
tmp/4m25C00.pdb
 117 107 0 0 0
SMALL
GASTEIGER

@<TRIPOS>ATOM
      1  N         -5.3150   16.2910    2.5840 N.3   125  ILE125     -0.1245
      2  CA        -5.6630   17.1690    3.7040 C.3   125  ILE125      0.1561
      3  C         -6.7360   18.1460    3.2250 C.2   125  ILE125      0.2260
      4  O         -6.4660   19.0350    2.4300 O.2   125  ILE125     -0.2867
      5  CB        -4.4900   18.0180    4.1790 C.3   125  ILE125      0.0252
      6  CG1       -3.2850   17.1470    4.4760 C.3   125  ILE125      0.0019
      7  CG2       -4.8520   18.8610    5.4020 C.3   125  ILE125      0.0019
      8  CD1       -2.0160   17.9600    4.4780 C.3   125  ILE125      0.0001
      9  N         -5.5800   16.2640   10.7160 N.3   137  GLY137     -0.1225
     10  CA        -5.4100   16.9230    9.4110 C.3   137  GLY137      0.1811
     11  C         -6.7390   17.2580    8.6970 C.2   137  GLY137      0.2280
     12  O         -6.8300   18.2620    7.9950 O.2   137  GLY137     -0.2866
     13  N         -4.6440   22.6490   15.4030 N.3   144  LEU144     -0.1245
     14  CA        -3.8480   21.4170   15.3750 C.3   144  LEU144      0.1561
     15  C         -2.5340   21.7680   16.0640 C.2   144  LEU144      0.2260
     16  O         -1.7200   22.5360   15.5360 O.2   144  LEU144     -0.2867
     17  CB        -3.6530   20.8890   13.9540 C.3   144  LEU144      0.0270
     18  CG        -2.8750   19.6000   13.7450 C.3   144  LEU144      0.0019
     19  CD1       -3.6020   18.4110   14.3500 C.3   144  LEU144      0.0001
     20  CD2       -2.6620   19.3700   12.2490 C.3   144  LEU144      0.0001
     21  N          3.7040   19.6030   16.4840 N.3   147  HIS147     -0.1241
     22  CA         4.2410   18.2790   16.7190 C.3   147  HIS147      0.1621
     23  C          5.3130   17.9400   15.7210 C.2   147  HIS147      0.2264
     24  O          5.3230   18.4500   14.6200 O.2   147  HIS147     -0.2867
     25  CB         3.1440   17.2080   16.5830 C.3   147  HIS147      0.0745
     26  CG         2.3440   17.3190   15.3080 C.ar  147  HIS147      0.0817
     27  ND1        1.3350   18.2090   15.1590 N.ar  147  HIS147     -0.2268
     28  CD2        2.4150   16.6030   14.1170 C.ar  147  HIS147      0.1154
     29  CE1        0.8100   18.1000   13.9120 C.ar  147  HIS147      0.1986
     30  NE2        1.4550   17.0900   13.2860 N.ar  147  HIS147     -0.2212
     31  N          5.9860   14.9640   13.3560 N.3   149  GLU149     -0.1245
     32  CA         5.1430   13.8680   12.8580 C.3   149  GLU149      0.1567
     33  C          5.5000   12.5060   13.4640 C.2   149  GLU149      0.2260
     34  O          6.6530   12.0770   13.4460 O.2   149  GLU149     -0.2867
     35  CB         5.1450   13.8000   11.3100 C.3   149  GLU149      0.0388
     36  CG         3.8880   13.1060   10.7790 C.3   149  GLU149      0.1160
     37  CD         2.6460   13.9240   11.0470 C.2   149  GLU149      0.3649
     38  OE1        2.7390   15.1570   11.2220 O.co2 149  GLU149     -0.2457
     39  OE2        1.5420   13.3440   11.0390 O.co2 149  GLU149     -0.2457
     40  N          8.3310   15.6690    5.4630 N.3   160  LEU160     -0.1245
     41  CA         6.9460   15.7120    4.9260 C.3   160  LEU160      0.1561
     42  C          6.8910   16.6920    3.7700 C.2   160  LEU160      0.2260
     43  O          7.5230   17.7450    3.8020 O.2   160  LEU160     -0.2867
     44  CB         5.9370   16.2080    5.9610 C.3   160  LEU160      0.0270
     45  CG         5.7420   15.6450    7.3510 C.3   160  LEU160      0.0019
     46  CD1        4.4730   16.3070    7.9560 C.3   160  LEU160      0.0001
     47  CD2        5.5520   14.1470    7.2070 C.3   160  LEU160      0.0001
     48  N          4.1760   18.8370    1.4680 N.3   162  LEU162     -0.1245
     49  CA         2.7780   19.2990    1.4490 C.3   162  LEU162      0.1561
     50  C          2.5890   20.1450    0.2050 C.2   162  LEU162      0.2260
     51  O          3.2390   21.1720    0.0790 O.2   162  LEU162     -0.2867
     52  CB         2.4770   20.1690    2.6900 C.3   162  LEU162      0.0270
     53  CG         2.4900   19.3780    4.0110 C.3   162  LEU162      0.0019
     54  CD1        2.3960   20.2990    5.2180 C.3   162  LEU162      0.0001
     55  CD2        1.3600   18.3750    4.0280 C.3   162  LEU162      0.0001
     56  N          0.1200   26.9720    7.9460 N.3   173  THR173     -0.1218
     57  CA         0.7250   25.8510    8.6280 C.3   173  THR173      0.1862
     58  C          1.7100   26.4980    9.6150 C.2   173  THR173      0.2287
     59  O          2.4520   27.3870    9.2340 O.2   173  THR173     -0.2866
     60  CB         1.5290   25.0240    7.6000 C.3   173  THR173      0.1770
     61  OG1        0.6170   24.5630    6.6020 O.3   173  THR173     -0.2211
     62  CG2        2.2740   23.8160    8.2650 C.3   173  THR173      0.0375
     63  N          5.4780   21.0740   13.4530 N.3   276  HIS276     -0.1226
     64  CA         4.5110   21.7760   12.6210 C.3   276  HIS276      0.1752
     65  C          3.1050   21.5990   13.1450 C.2   276  HIS276      0.2597
     66  O          2.8270   20.6750   13.9200 O.2   276  HIS276     -0.2718
     67  CB         4.5740   21.2480   11.1860 C.3   276  HIS276      0.0759
     68  CG         4.1180   19.8370   11.0680 C.ar  276  HIS276      0.0818
     69  ND1        4.9420   18.7780   11.2770 N.ar  276  HIS276     -0.2268
     70  CD2        2.8630   19.3200   10.8110 C.ar  276  HIS276      0.1154
     71  CE1        4.2520   17.6430   11.1390 C.ar  276  HIS276      0.1986
     72  NE2        2.9570   17.9780   10.8770 N.ar  276  HIS276     -0.2212
     73  N          2.2170   22.4900   12.7410 N.am  277  GLY277     -0.1942
     74  CA         0.8060   22.3090   13.0790 C.3   277  GLY277      0.2014
     75  C         -0.0160   23.1660   12.1530 C.2   277  GLY277      0.2638
     76  O          0.4230   23.4990   11.0540 O.2   277  GLY277     -0.2714
     77  N         -1.2080   23.5550   12.5960 N.am  278  ARG278     -0.1977
     78  CA        -2.1160   24.2370   11.6780 C.3   278  ARG278      0.1597
     79  C         -3.1820   25.0060   12.4540 C.2   278  ARG278      0.2287
     80  O         -3.7670   24.4890   13.4010 O.2   278  ARG278     -0.2864
     81  CB        -2.7390   23.2550   10.6730 C.3   278  ARG278      0.0334
     82  CG        -3.3630   23.9770    9.4710 C.3   278  ARG278      0.0492
     83  CD        -4.7450   23.4150    9.1690 C.3   278  ARG278      0.2205
     84  NE        -5.6170   23.6780   10.2930 N.pl3 278  ARG278     -0.0865
     85  CZ        -6.2610   22.7740   11.0220 C.cat 278  ARG278      0.5346
     86  NH1       -6.2060   21.4650   10.7520 N.pl3 278  ARG278      0.1354
     87  NH2       -6.9960   23.2190   12.0260 N.pl3 278  ARG278      0.1354
     88  N         -9.7470   24.6660    1.3340 N.3   290  ARG290     -0.1245
     89  CA        -8.3110   24.3510    1.3710 C.3   290  ARG290      0.1563
     90  C         -8.0690   22.8880    1.1170 C.2   290  ARG290      0.2260
     91  O         -8.6840   22.0250    1.7380 O.2   290  ARG290     -0.2867
     92  CB        -7.7670   24.6990    2.7420 C.3   290  ARG290      0.0307
     93  CG        -6.2440   24.5490    2.8980 C.3   290  ARG290      0.0489
     94  CD        -5.8720   24.8420    4.3320 C.3   290  ARG290      0.2205
     95  NE        -4.4320   24.9290    4.6120 N.pl3 290  ARG290     -0.0865
     96  CZ        -3.7390   23.9960    5.2600 C.cat 290  ARG290      0.5346
     97  NH1       -4.3130   22.8690    5.6660 N.pl3 290  ARG290      0.1354
     98  NH2       -2.4570   24.1960    5.4900 N.pl3 290  ARG290      0.1354
     99  N         -4.7590   20.2260    0.4620 N.3   292  LEU292     -0.1245
    100  CA        -3.3460   19.8690    0.2340 C.3   292  LEU292      0.1561
    101  C         -3.2190   18.3820   -0.0020 C.2   292  LEU292      0.2260
    102  O         -4.0580   17.6160    0.4630 O.2   292  LEU292     -0.2867
    103  CB        -2.4450   20.2470    1.4340 C.3   292  LEU292      0.0270
    104  CG        -2.4040   21.5540    2.2200 C.3   292  LEU292      0.0019
    105  CD1       -1.0790   21.6930    2.9670 C.3   292  LEU292      0.0001
    106  CD2       -2.7220   22.8240    1.4740 C.3   292  LEU292      0.0001
    107  N         -0.2250   15.2070    0.4730 N.3   294  ARG294     -0.1245
    108  CA         0.8570   15.0050    1.4200 C.3   294  ARG294      0.1563
    109  C          1.5570   13.6890    1.2060 C.2   294  ARG294      0.2260
    110  O          0.9080   12.6530    0.9990 O.2   294  ARG294     -0.2867
    111  CB         0.2730   15.0960    2.8120 C.3   294  ARG294      0.0307
    112  CG         1.2030   14.8030    3.9320 C.3   294  ARG294      0.0489
    113  CD         0.2760   14.1970    4.9570 C.3   294  ARG294      0.2205
    114  NE         0.7560   14.3110    6.3160 N.pl3 294  ARG294     -0.0865
    115  CZ         0.9450   13.2720    7.1110 C.cat 294  ARG294      0.5346
    116  NH1        0.7230   12.0380    6.6720 N.pl3 294  ARG294      0.1354
    117  NH2        1.3720   13.4810    8.3430 N.pl3 294  ARG294      0.1354
@<TRIPOS>BOND
     1   101   100    1
     2   101   102    2
     3    51    50    2
     4    50    49    1
     5   100    99    1
     6   100   103    1
     7   107   108    1
     8   110   109    2
     9    90    89    1
    10    90    91    2
    11   109   108    1
    12    88    89    1
    13    89    92    1
    14   108   111    1
    15   103   104    1
    16    49    48    1
    17    49    52    1
    18   106   104    1
    19   104   105    1
    20     4     3    2
    21     1     2    1
    22    52    53    1
    23    92    93    1
    24   111   112    1
    25    93    94    1
    26     3     2    1
    27     2     5    1
    28    42    43    2
    29    42    41    1
    30   112   113    1
    31    53    55    1
    32    53    54    1
    33     5     6    1
    34     5     7    1
    35    94    95    1
    36     6     8    1
    37    95    96    2
    38    41    40    1
    39    41    44    1
    40   113   114    1
    41    96    98    1
    42    96    97    1
    43    44    45    1
    44   114   115    2
    45    61    60    1
    46   116   115    1
    47   115   117    1
    48    47    45    1
    49    45    46    1
    50    60    62    1
    51    60    57    1
    52    56    57    1
    53    12    11    2
    54    57    58    1
    55    11    10    1
    56    83    82    1
    57    83    84    1
    58    59    58    2
    59    10     9    1
    60    82    81    1
    61    84    85    2
    62    81    78    1
    63    86    85    1
    64    36    37    1
    65    36    35    1
    66    70    72   ar
    67    70    68   ar
    68    72    71   ar
    69    85    87    1
    70    39    37   ar
    71    37    38   ar
    72    76    75    2
    73    68    67    1
    74    68    69   ar
    75    71    69   ar
    76    67    64    1
    77    35    32    1
    78    78    79    1
    79    78    77    1
    80    75    77   am
    81    75    74    1
    82    20    18    1
    83    79    80    2
    84    64    65    1
    85    64    63    1
    86    73    74    1
    87    73    65   am
    88    32    31    1
    89    32    33    1
    90    65    66    2
    91    30    29   ar
    92    30    28   ar
    93    34    33    2
    94    18    17    1
    95    18    19    1
    96    29    27   ar
    97    17    14    1
    98    28    26   ar
    99    24    23    2
   100    27    26   ar
   101    26    25    1
   102    14    13    1
   103    14    15    1
   104    16    15    2
   105    23    22    1
   106    21    22    1
   107    25    22    1
