@<TRIPOS>MOLECULE
tmp/4m26D00.pdb
 117 107 0 0 0
SMALL
GASTEIGER

@<TRIPOS>ATOM
      1  N         41.8400   -0.2760   -2.6930 N.3   124  ILE124     -0.1245
      2  CA        42.1180   -1.6580   -2.3220 C.3   124  ILE124      0.1561
      3  C         43.1530   -2.2410   -3.2930 C.2   124  ILE124      0.2260
      4  O         42.8530   -2.5020   -4.4600 O.2   124  ILE124     -0.2867
      5  CB        40.8690   -2.5730   -2.3380 C.3   124  ILE124      0.0252
      6  CG1       39.7900   -2.0820   -1.3720 C.3   124  ILE124      0.0019
      7  CG2       41.2610   -3.9880   -1.9260 C.3   124  ILE124      0.0019
      8  CD1       38.4340   -2.7300   -1.6040 C.3   124  ILE124      0.0001
      9  N         42.3170   -4.7440    3.8880 N.3   136  GLY136     -0.1225
     10  CA        42.1040   -4.6800    2.4390 C.3   136  GLY136      0.1811
     11  C         43.3930   -4.6590    1.6250 C.2   136  GLY136      0.2280
     12  O         43.4470   -5.2270    0.5310 O.2   136  GLY136     -0.2866
     13  N         41.3450  -13.0140    3.7770 N.3   143  LEU143     -0.1245
     14  CA        40.5890  -11.9810    4.4810 C.3   143  LEU143      0.1561
     15  C         39.2980  -12.6410    4.9380 C.2   143  LEU143      0.2260
     16  O         38.4530  -12.9840    4.1090 O.2   143  LEU143     -0.2867
     17  CB        40.3170  -10.7780    3.5650 C.3   143  LEU143      0.0270
     18  CG        39.5870   -9.5270    4.0980 C.3   143  LEU143      0.0019
     19  CD1       40.3610   -8.7920    5.1880 C.3   143  LEU143      0.0001
     20  CD2       39.3070   -8.5830    2.9370 C.3   143  LEU143      0.0001
     21  N         33.1920  -10.8090    6.6530 N.3   146  HIS146     -0.1241
     22  CA        32.6750   -9.8730    7.6340 C.3   146  HIS146      0.1621
     23  C         31.5980   -8.9910    7.0350 C.2   146  HIS146      0.2264
     24  O         31.5380   -8.8040    5.8110 O.2   146  HIS146     -0.2867
     25  CB        33.8200   -9.0000    8.1390 C.3   146  HIS146      0.0745
     26  CG        34.5460   -8.2720    7.0380 C.ar  146  HIS146      0.0817
     27  ND1       35.5220   -8.8540    6.3020 N.ar  146  HIS146     -0.2268
     28  CD2       34.3940   -6.9790    6.5410 C.ar  146  HIS146      0.1154
     29  CE1       35.9720   -7.9700    5.3820 C.ar  146  HIS146      0.1986
     30  NE2       35.2870   -6.8220    5.5340 N.ar  146  HIS146     -0.2212
     31  N         30.8150   -5.1780    6.7570 N.3   148  GLU148     -0.1245
     32  CA        31.7020   -4.0280    6.8630 C.3   148  GLU148      0.1567
     33  C         31.3820   -3.2410    8.1220 C.2   148  GLU148      0.2260
     34  O         30.2330   -2.9100    8.3600 O.2   148  GLU148     -0.2867
     35  CB        31.6130   -3.1240    5.6450 C.3   148  GLU148      0.0388
     36  CG        32.8490   -2.2580    5.4360 C.3   148  GLU148      0.1160
     37  CD        34.0890   -3.0790    5.0750 C.2   148  GLU148      0.3649
     38  OE1       33.9570   -4.2660    4.7440 O.co2 148  GLU148     -0.2457
     39  OE2       35.2040   -2.5420    5.1370 O.co2 148  GLU148     -0.2457
     40  N         28.0430   -1.4900    0.0670 N.3   159  LEU159     -0.1245
     41  CA        29.4220   -1.2620   -0.3420 C.3   159  LEU159      0.1561
     42  C         29.4950   -1.3460   -1.8420 C.2   159  LEU159      0.2260
     43  O         28.8790   -2.2340   -2.4440 O.2   159  LEU159     -0.2867
     44  CB        30.3310   -2.3830    0.1460 C.3   159  LEU159      0.0270
     45  CG        30.8360   -2.5490    1.5580 C.3   159  LEU159      0.0019
     46  CD1       31.0890   -1.1880    2.1840 C.3   159  LEU159      0.0001
     47  CD2       29.8440   -3.3850    2.3610 C.3   159  LEU159      0.0001
     48  N         32.2420   -1.8760   -4.8870 N.3   161  LEU161     -0.1245
     49  CA        33.5970   -2.2700   -5.2340 C.3   161  LEU161      0.1561
     50  C         33.7950   -2.2780   -6.7520 C.2   161  LEU161      0.2260
     51  O         33.2180   -3.1050   -7.4410 O.2   161  LEU161     -0.2867
     52  CB        33.8840   -3.6680   -4.6780 C.3   161  LEU161      0.0270
     53  CG        33.7290   -3.8880   -3.1750 C.3   161  LEU161      0.0019
     54  CD1       33.9770   -5.3520   -2.8640 C.3   161  LEU161      0.0001
     55  CD2       34.6950   -3.0070   -2.4130 C.3   161  LEU161      0.0001
     56  N         36.3460  -12.2200   -4.6920 N.3   172  THR172     -0.1218
     57  CA        35.7710  -11.6280   -3.4950 C.3   172  THR172      0.1862
     58  C         34.8140  -12.7110   -3.0110 C.2   172  THR172      0.2287
     59  O         34.0550  -13.2690   -3.8040 O.2   172  THR172     -0.2866
     60  CB        35.0000  -10.3280   -3.8190 C.3   172  THR172      0.1770
     61  OG1       35.9080   -9.3210   -4.2900 O.3   172  THR172     -0.2211
     62  CG2       34.2540   -9.8080   -2.5840 C.3   172  THR172      0.0375
     63  N         31.2550  -10.3240    3.4160 N.3   295  HIS295     -0.1226
     64  CA        32.1930  -10.4520    2.3400 C.3   295  HIS295      0.1752
     65  C         33.5940  -10.6610    2.8460 C.2   295  HIS295      0.2597
     66  O         33.9350  -10.2820    3.9700 O.2   295  HIS295     -0.2718
     67  CB        32.1480   -9.2150    1.4450 C.3   295  HIS295      0.0759
     68  CG        32.6570   -7.9740    2.1330 C.ar  295  HIS295      0.0818
     69  ND1       31.8750   -7.2230    2.9260 N.ar  295  HIS295     -0.2268
     70  CD2       33.9240   -7.4080    2.1760 C.ar  295  HIS295      0.1154
     71  CE1       32.5970   -6.2000    3.4270 C.ar  295  HIS295      0.1986
     72  NE2       33.8510   -6.3160    2.9800 N.ar  295  HIS295     -0.2212
     73  N         34.4200  -11.2530    1.9920 N.am  296  GLY296     -0.1942
     74  CA        35.8370  -11.4420    2.2820 C.3   296  GLY296      0.2014
     75  C         36.5860  -11.4610    0.9710 C.2   296  GLY296      0.2638
     76  O         36.0620  -11.0090   -0.0580 O.2   296  GLY296     -0.2714
     77  N         37.8150  -11.9760    1.0030 N.am  297  ARG297     -0.1977
     78  CA        38.6700  -12.0150   -0.1830 C.3   297  ARG297      0.1597
     79  C         39.6910  -13.1400   -0.0040 C.2   297  ARG297      0.2287
     80  O         40.3080  -13.2600    1.0670 O.2   297  ARG297     -0.2864
     81  CB        39.3730  -10.6680   -0.3700 C.3   297  ARG297      0.0334
     82  CG        40.0050  -10.4490   -1.7410 C.3   297  ARG297      0.0492
     83  CD        41.4260   -9.9190   -1.6000 C.3   297  ARG297      0.2205
     84  NE        42.2610  -10.8690   -0.8760 N.pl3 297  ARG297     -0.0865
     85  CZ        42.8440  -10.6530    0.3070 C.cat 297  ARG297      0.5346
     86  NH1       42.7320   -9.4840    0.9440 N.pl3 297  ARG297      0.1354
     87  NH2       43.5610  -11.6280    0.8530 N.pl3 297  ARG297      0.1354
     88  N         46.1090   -6.4710   -8.7370 N.3   309  ARG309     -0.1245
     89  CA        44.6790   -6.2520   -8.5180 C.3   309  ARG309      0.1563
     90  C         44.4200   -4.9220   -7.8130 C.2   309  ARG309      0.2260
     91  O         45.0160   -4.6160   -6.7740 O.2   309  ARG309     -0.2867
     92  CB        44.1290   -7.4030   -7.6800 C.3   309  ARG309      0.0307
     93  CG        42.6960   -7.2550   -7.1910 C.3   309  ARG309      0.0489
     94  CD        42.3860   -8.3980   -6.2340 C.3   309  ARG309      0.2205
     95  NE        40.9600   -8.6580   -6.0680 N.pl3 309  ARG309     -0.0865
     96  CZ        40.2490   -8.3170   -4.9970 C.cat 309  ARG309      0.5346
     97  NH1       40.8180   -7.6790   -3.9880 N.pl3 309  ARG309      0.1354
     98  NH2       38.9650   -8.6160   -4.9390 N.pl3 309  ARG309      0.1354
     99  N         41.1410   -2.4820   -6.7500 N.3   311  LEU311     -0.1245
    100  CA        39.7230   -2.1270   -6.6650 C.3   311  LEU311      0.1561
    101  C         39.5730   -0.7810   -5.9860 C.2   311  LEU311      0.2260
    102  O         40.4760   -0.3250   -5.2710 O.2   311  LEU311     -0.2867
    103  CB        38.9070   -3.1470   -5.8740 C.3   311  LEU311      0.0270
    104  CG        39.0220   -4.6630   -6.0000 C.3   311  LEU311      0.0019
    105  CD1       37.7570   -5.3020   -5.4490 C.3   311  LEU311      0.0001
    106  CD2       39.2960   -5.1430   -7.4180 C.3   311  LEU311      0.0001
    107  N         36.6750    1.2230   -3.5010 N.3   313  ARG313     -0.1245
    108  CA        35.5030    1.0260   -2.6560 C.3   313  ARG313      0.1563
    109  C         34.8380    2.3390   -2.2430 C.2   313  ARG313      0.2260
    110  O         35.5230    3.3030   -1.9020 O.2   313  ARG313     -0.2867
    111  CB        35.8410    0.2540   -1.3800 C.3   313  ARG313      0.0307
    112  CG        34.5930   -0.3780   -0.7700 C.3   313  ARG313      0.0489
    113  CD        34.5250   -0.3770    0.7480 C.3   313  ARG313      0.2205
    114  NE        35.6750   -1.0220    1.3540 N.pl3 313  ARG313     -0.0865
    115  CZ        36.4700   -0.4500    2.2460 C.cat 313  ARG313      0.5346
    116  NH1       36.2300    0.7860    2.6630 N.pl3 313  ARG313      0.1354
    117  NH2       37.5110   -1.1270    2.7230 N.pl3 313  ARG313      0.1354
@<TRIPOS>BOND
     1    88    89    1
     2    89    90    1
     3    89    92    1
     4    90    91    2
     5    92    93    1
     6    51    50    2
     7   106   104    1
     8    93    94    1
     9    50    49    1
    10    99   100    1
    11   100   101    1
    12   100   103    1
    13    94    95    1
    14    95    96    2
    15   104   103    1
    16   104   105    1
    17   101   102    2
    18    49    48    1
    19    49    52    1
    20    96    98    1
    21    96    97    1
    22    56    57    1
    23    52    53    1
    24     4     3    2
    25    61    60    1
    26    60    57    1
    27    60    62    1
    28    59    58    2
    29   107   108    1
    30    57    58    1
    31     3     2    1
    32    53    54    1
    33    53    55    1
    34     1     2    1
    35   108   109    1
    36   108   111    1
    37    43    42    2
    38     5     2    1
    39     5     7    1
    40     5     6    1
    41   109   110    2
    42    42    41    1
    43    82    83    1
    44    82    81    1
    45     8     6    1
    46    83    84    1
    47   111   112    1
    48    84    85    2
    49   112   113    1
    50    81    78    1
    51    41    40    1
    52    41    44    1
    53    78    79    1
    54    78    77    1
    55    76    75    2
    56    79    80    2
    57    44    45    1
    58    85    87    1
    59    85    86    1
    60    12    11    2
    61   113   114    1
    62    75    77   am
    63    75    74    1
    64   114   115    2
    65    67    68    1
    66    67    64    1
    67    45    46    1
    68    45    47    1
    69    11    10    1
    70    73    74    1
    71    73    65   am
    72    68    70   ar
    73    68    69   ar
    74    70    72   ar
    75   115   116    1
    76   115   117    1
    77    64    65    1
    78    64    63    1
    79    10     9    1
    80    65    66    2
    81    69    71   ar
    82    20    18    1
    83    72    71   ar
    84    17    18    1
    85    17    14    1
    86    13    14    1
    87    18    19    1
    88    16    15    2
    89    14    15    1
    90    38    37   ar
    91    37    39   ar
    92    37    36    1
    93    29    30   ar
    94    29    27   ar
    95    36    35    1
    96    30    28   ar
    97    35    32    1
    98    24    23    2
    99    27    26   ar
   100    28    26   ar
   101    21    22    1
   102    31    32    1
   103    32    33    1
   104    23    22    1
   105    26    25    1
   106    22    25    1
   107    33    34    2
