@<TRIPOS>MOLECULE
tmp/4m26D01.pdb
 154 148 0 0 0
SMALL
GASTEIGER

@<TRIPOS>ATOM
      1  N         39.6690    6.1500    8.9960 N.3   115  GLN115     -0.1231
      2  CA        40.0370    5.1570    7.9680 C.3   115  GLN115      0.1698
      3  C         40.4640    5.7930    6.6240 C.2   115  GLN115      0.2592
      4  O         39.7010    6.5410    6.0130 O.2   115  GLN115     -0.2718
      5  CB        38.9090    4.1320    7.7630 C.3   115  GLN115      0.0381
      6  CG        39.2690    3.0040    6.8100 C.3   115  GLN115      0.0905
      7  CD        38.1780    1.9640    6.6480 C.2   115  GLN115      0.2608
      8  OE1       38.4010    0.9180    6.0460 O.2   115  GLN115     -0.2717
      9  NE2       36.9970    2.2390    7.1850 N.am  115  GLN115     -0.0878
     10  N         41.6870    5.4760    6.1860 N.am  116  GLN116     -0.1979
     11  CA        42.2830    5.9350    4.9050 C.3   116  GLN116      0.1601
     12  C         42.2790    7.4490    4.6440 C.2   116  GLN116      0.2287
     13  O         42.2670    7.8950    3.4870 O.2   116  GLN116     -0.2864
     14  CB        41.7480    5.1440    3.6930 C.3   116  GLN116      0.0394
     15  CG        42.7730    4.1670    3.1280 C.3   116  GLN116      0.0908
     16  CD        42.3480    3.4640    1.8420 C.2   116  GLN116      0.2608
     17  OE1       42.2880    4.0650    0.7640 O.2   116  GLN116     -0.2717
     18  NE2       42.0940    2.1630    1.9470 N.am  116  GLN116     -0.0878
     19  N         44.7410   -8.7080    8.4210 N.3   134  GLN134     -0.1231
     20  CA        43.3390   -8.8850    8.0500 C.3   134  GLN134      0.1698
     21  C         42.7560   -7.5620    7.5470 C.2   134  GLN134      0.2592
     22  O         41.7060   -7.1010    8.0160 O.2   134  GLN134     -0.2718
     23  CB        42.5400   -9.4470    9.2310 C.3   134  GLN134      0.0381
     24  CG        42.8670  -10.8950    9.5630 C.3   134  GLN134      0.0905
     25  CD        42.4060  -11.8510    8.4820 C.2   134  GLN134      0.2608
     26  OE1       43.2110  -12.5660    7.8800 O.2   134  GLN134     -0.2717
     27  NE2       41.1060  -11.8580    8.2200 N.am  134  GLN134     -0.0878
     28  N         43.4600   -6.9620    6.5850 N.am  135  LEU135     -0.1966
     29  CA        43.0850   -5.6750    6.0010 C.3   135  LEU135      0.1728
     30  C         42.8690   -5.8000    4.4950 C.2   135  LEU135      0.2616
     31  O         43.2010   -6.8390    3.8990 O.2   135  LEU135     -0.2715
     32  CB        44.1700   -4.6290    6.2860 C.3   135  LEU135      0.0311
     33  CG        44.4840   -4.2800    7.7470 C.3   135  LEU135      0.0022
     34  CD1       45.7460   -3.4260    7.8390 C.3   135  LEU135      0.0001
     35  CD2       43.3140   -3.5790    8.4260 C.3   135  LEU135      0.0001
     36  N         42.3170   -4.7440    3.8880 N.am  136  GLY136     -0.1955
     37  CA        42.1040   -4.6800    2.4390 C.3   136  GLY136      0.1869
     38  C         43.3930   -4.6590    1.6250 C.2   136  GLY136      0.2309
     39  O         43.4470   -5.2270    0.5310 O.2   136  GLY136     -0.2863
     40  N         41.3450  -13.0140    3.7770 N.3   143  LEU143     -0.1231
     41  CA        40.5890  -11.9810    4.4810 C.3   143  LEU143      0.1693
     42  C         39.2980  -12.6410    4.9380 C.2   143  LEU143      0.2592
     43  O         38.4530  -12.9840    4.1090 O.2   143  LEU143     -0.2718
     44  CB        40.3170  -10.7780    3.5650 C.3   143  LEU143      0.0284
     45  CG        39.5870   -9.5270    4.0980 C.3   143  LEU143      0.0019
     46  CD1       40.3610   -8.7920    5.1880 C.3   143  LEU143      0.0001
     47  CD2       39.3070   -8.5830    2.9370 C.3   143  LEU143      0.0001
     48  N         39.1620  -12.8610    6.2500 N.am  144  THR144     -0.1953
     49  CA        38.0140  -13.5930    6.7770 C.3   144  THR144      0.1897
     50  C         36.7560  -12.7600    6.5570 C.2   144  THR144      0.2313
     51  O         36.7910  -11.5350    6.6450 O.2   144  THR144     -0.2863
     52  CB        38.1540  -13.9550    8.2760 C.3   144  THR144      0.1794
     53  OG1       38.4380  -12.7690    9.0250 O.3   144  THR144     -0.2208
     54  CG2       39.3050  -14.9660    8.5030 C.3   144  THR144      0.0378
     55  N         33.1920  -10.8090    6.6530 N.3   146  HIS146     -0.1226
     56  CA        32.6750   -9.8730    7.6340 C.3   146  HIS146      0.1752
     57  C         31.5980   -8.9910    7.0350 C.2   146  HIS146      0.2597
     58  O         31.5380   -8.8040    5.8110 O.2   146  HIS146     -0.2718
     59  CB        33.8200   -9.0000    8.1390 C.3   146  HIS146      0.0759
     60  CG        34.5460   -8.2720    7.0380 C.ar  146  HIS146      0.0818
     61  ND1       35.5220   -8.8540    6.3020 N.ar  146  HIS146     -0.2268
     62  CD2       34.3940   -6.9790    6.5410 C.ar  146  HIS146      0.1154
     63  CE1       35.9720   -7.9700    5.3820 C.ar  146  HIS146      0.1986
     64  NE2       35.2870   -6.8220    5.5340 N.ar  146  HIS146     -0.2212
     65  N         30.7510   -8.4500    7.9020 N.am  147  THR147     -0.1939
     66  CA        29.9210   -7.2900    7.5950 C.3   147  THR147      0.2028
     67  C         30.8970   -6.1350    7.6750 C.2   147  THR147      0.2642
     68  O         31.7810   -6.1290    8.5450 O.2   147  THR147     -0.2714
     69  CB        28.7880   -7.1410    8.6350 C.3   147  THR147      0.1808
     70  OG1       28.0240   -8.3390    8.6850 O.3   147  THR147     -0.2208
     71  CG2       27.8180   -5.9730    8.3220 C.3   147  THR147      0.0379
     72  N         30.8150   -5.1780    6.7570 N.am  148  GLU148     -0.1963
     73  CA        31.7020   -4.0280    6.8630 C.3   148  GLU148      0.1733
     74  C         31.3820   -3.2410    8.1220 C.2   148  GLU148      0.2616
     75  O         30.2330   -2.9100    8.3600 O.2   148  GLU148     -0.2715
     76  CB        31.6130   -3.1240    5.6450 C.3   148  GLU148      0.0429
     77  CG        32.8490   -2.2580    5.4360 C.3   148  GLU148      0.1163
     78  CD        34.0890   -3.0790    5.0750 C.2   148  GLU148      0.3649
     79  OE1       33.9570   -4.2660    4.7440 O.co2 148  GLU148     -0.2457
     80  OE2       35.2040   -2.5420    5.1370 O.co2 148  GLU148     -0.2457
     81  N         32.4050   -2.9510    8.9170 N.am  149  ASP149     -0.1971
     82  CA        32.2560   -2.1730   10.1490 C.3   149  ASP149      0.1709
     83  C         31.1560   -2.7340   11.0410 C.2   149  ASP149      0.2293
     84  O         30.3420   -1.9990   11.5920 O.2   149  ASP149     -0.2864
     85  CB        31.9990   -0.7080    9.7960 C.3   149  ASP149      0.1436
     86  CG        33.1470   -0.1070    9.0340 C.2   149  ASP149      0.3671
     87  OD1       34.2660   -0.1190    9.5860 O.co2 149  ASP149     -0.2456
     88  OD2       32.9560    0.3220    7.8740 O.co2 149  ASP149     -0.2456
     89  N         37.5630   -3.2970   14.1000 N.3   200  ASP200     -0.1239
     90  CA        38.7260   -3.8680   13.4160 C.3   200  ASP200      0.1674
     91  C         39.9170   -2.9150   13.4230 C.2   200  ASP200      0.2266
     92  O         39.8350   -1.7960   13.9420 O.2   200  ASP200     -0.2867
     93  CB        38.3950   -4.3920   11.9930 C.3   200  ASP200      0.1410
     94  CG        37.9870   -3.2920   11.0130 C.2   200  ASP200      0.3668
     95  OD1       36.8210   -2.8320   11.0680 O.co2 200  ASP200     -0.2456
     96  OD2       38.8190   -2.9210   10.1550 O.co2 200  ASP200     -0.2456
     97  N         42.4810   -0.8590   10.7470 N.3   202  SER202     -0.1217
     98  CA        42.0240    0.2010    9.8170 C.3   202  SER202      0.1889
     99  C         41.3690    1.3670   10.5710 C.2   202  SER202      0.2288
    100  O         41.4360    2.5110   10.1190 O.2   202  SER202     -0.2866
    101  CB        41.1100   -0.3380    8.6830 C.3   202  SER202      0.2089
    102  OG        39.7220   -0.3650    9.0220 O.3   202  SER202     -0.2183
    103  N         31.2910  -10.4510   12.2230 N.3   247  ASP247     -0.1239
    104  CA        32.7300  -10.2450   12.0150 C.3   247  ASP247      0.1674
    105  C         33.4840  -11.2210   12.9420 C.2   247  ASP247      0.2266
    106  O         34.0190  -10.8220   13.9940 O.2   247  ASP247     -0.2867
    107  CB        33.1200   -8.8000   12.2890 C.3   247  ASP247      0.1410
    108  CG        34.4910   -8.4710   11.8090 C.2   247  ASP247      0.3668
    109  OD1       35.2140   -9.3940   11.3760 O.co2 247  ASP247     -0.2456
    110  OD2       34.8680   -7.2860   11.9010 O.co2 247  ASP247     -0.2456
    111  N         36.2520  -12.6980   13.2380 N.3   249  TYR249     -0.1227
    112  CA        37.6090  -12.4160   13.6860 C.3   249  TYR249      0.1736
    113  C         37.6310  -11.4590   14.8750 C.2   249  TYR249      0.2595
    114  O         38.5700  -11.4920   15.6710 O.2   249  TYR249     -0.2718
    115  CB        38.4820  -11.8870   12.5340 C.3   249  TYR249      0.0548
    116  CG        39.9930  -11.9400   12.7750 C.ar  249  TYR249     -0.0200
    117  CD1       40.7000  -13.1530   12.7110 C.ar  249  TYR249     -0.0009
    118  CD2       40.7170  -10.7780   13.0280 C.ar  249  TYR249     -0.0009
    119  CE1       42.0810  -13.1980   12.9160 C.ar  249  TYR249      0.0417
    120  CE2       42.1050  -10.8150   13.2320 C.ar  249  TYR249      0.0417
    121  CZ        42.7740  -12.0260   13.1880 C.ar  249  TYR249      0.1957
    122  OH        44.1370  -12.0560   13.3800 O.3   249  TYR249     -0.2866
    123  N         36.5970  -10.6210   14.9990 N.am  250  PHE250     -0.1976
    124  CA        36.5320   -9.6690   16.1030 C.3   250  PHE250      0.1639
    125  C         35.3690   -9.9490   17.0540 C.2   250  PHE250      0.2290
    126  O         34.9050   -9.0510   17.7620 O.2   250  PHE250     -0.2864
    127  CB        36.5130   -8.2180   15.5860 C.3   250  PHE250      0.0560
    128  CG        37.8000   -7.8030   14.9110 C.ar  250  PHE250     -0.0200
    129  CD1       38.8590   -7.2780   15.6550 C.ar  250  PHE250     -0.0042
    130  CD2       37.9650   -7.9670   13.5250 C.ar  250  PHE250     -0.0042
    131  CE1       40.0420   -6.9130   15.0250 C.ar  250  PHE250     -0.0003
    132  CE2       39.1480   -7.6100   12.8930 C.ar  250  PHE250     -0.0003
    133  CZ        40.1860   -7.0810   13.6460 C.ar  250  PHE250     -0.0000
    134  N         31.2550  -10.3240    3.4160 N.3   295  HIS295     -0.1241
    135  CA        32.1930  -10.4520    2.3400 C.3   295  HIS295      0.1621
    136  C         33.5940  -10.6610    2.8460 C.2   295  HIS295      0.2264
    137  O         33.9350  -10.2820    3.9700 O.2   295  HIS295     -0.2867
    138  CB        32.1480   -9.2150    1.4450 C.3   295  HIS295      0.0745
    139  CG        32.6570   -7.9740    2.1330 C.ar  295  HIS295      0.0817
    140  ND1       31.8750   -7.2230    2.9260 N.ar  295  HIS295     -0.2268
    141  CD2       33.9240   -7.4080    2.1760 C.ar  295  HIS295      0.1154
    142  CE1       32.5970   -6.2000    3.4270 C.ar  295  HIS295      0.1986
    143  NE2       33.8510   -6.3160    2.9800 N.ar  295  HIS295     -0.2212
    144  N         36.6750    1.2230   -3.5010 N.3   313  ARG313     -0.1245
    145  CA        35.5030    1.0260   -2.6560 C.3   313  ARG313      0.1563
    146  C         34.8380    2.3390   -2.2430 C.2   313  ARG313      0.2260
    147  O         35.5230    3.3030   -1.9020 O.2   313  ARG313     -0.2867
    148  CB        35.8410    0.2540   -1.3800 C.3   313  ARG313      0.0307
    149  CG        34.5930   -0.3780   -0.7700 C.3   313  ARG313      0.0489
    150  CD        34.5250   -0.3770    0.7480 C.3   313  ARG313      0.2205
    151  NE        35.6750   -1.0220    1.3540 N.pl3 313  ARG313     -0.0865
    152  CZ        36.4700   -0.4500    2.2460 C.cat 313  ARG313      0.5346
    153  NH1       36.2300    0.7860    2.6630 N.pl3 313  ARG313      0.1354
    154  NH2       37.5110   -1.1270    2.7230 N.pl3 313  ARG313      0.1354
@<TRIPOS>BOND
     1   144   145    1
     2   145   146    1
     3   145   148    1
     4   146   147    2
     5   148   149    1
     6   149   150    1
     7    39    38    2
     8   150   151    1
     9    17    16    2
    10   151   152    2
    11   138   139    1
    12   138   135    1
    13    38    37    1
    14    16    18   am
    15    16    15    1
    16   139   141   ar
    17   139   140   ar
    18   141   143   ar
    19   152   153    1
    20   152   154    1
    21   135   136    1
    22   135   134    1
    23    37    36    1
    24   136   137    2
    25   140   142   ar
    26    47    45    1
    27   143   142   ar
    28    15    14    1
    29    13    12    2
    30    44    45    1
    31    44    41    1
    32    14    11    1
    33    40    41    1
    34    36    30   am
    35    31    30    2
    36    45    46    1
    37    43    42    2
    38    41    42    1
    39    30    29    1
    40    12    11    1
    41    79    78   ar
    42    11    10    1
    43    42    48   am
    44    78    80   ar
    45    78    77    1
    46    63    64   ar
    47    63    61   ar
    48    77    76    1
    49    64    62   ar
    50    76    73    1
    51    58    57    2
    52    29    32    1
    53    29    28    1
    54     4     3    2
    55     8     7    2
    56    10     3   am
    57    48    49    1
    58    32    33    1
    59    61    60   ar
    60    62    60   ar
    61    50    51    2
    62    50    49    1
    63    28    21   am
    64     3     2    1
    65     7     6    1
    66     7     9   am
    67    55    56    1
    68    72    73    1
    69    72    67   am
    70    49    52    1
    71     6     5    1
    72    73    74    1
    73    57    56    1
    74    57    65   am
    75    60    59    1
    76    21    22    2
    77    21    20    1
    78    66    67    1
    79    66    65    1
    80    66    69    1
    81    56    59    1
    82    67    68    2
    83    33    34    1
    84    33    35    1
    85     5     2    1
    86    88    86   ar
    87    26    25    2
    88     2     1    1
    89    20    19    1
    90    20    23    1
    91    74    75    2
    92    74    81   am
    93    27    25   am
    94    52    54    1
    95    52    53    1
    96    71    69    1
    97    25    24    1
    98    69    70    1
    99   101   102    1
   100   101    98    1
   101    81    82    1
   102    86    87   ar
   103    86    85    1
   104    23    24    1
   105    85    82    1
   106    98    99    1
   107    98    97    1
   108   100    99    2
   109    82    83    1
   110    96    94   ar
   111    94    95   ar
   112    94    93    1
   113    83    84    2
   114   109   108   ar
   115   108   110   ar
   116   108   107    1
   117    93    90    1
   118   104   103    1
   119   104   107    1
   120   104   105    1
   121   115   116    1
   122   115   112    1
   123   117   116   ar
   124   117   119   ar
   125   116   118   ar
   126   132   130   ar
   127   132   133   ar
   128   119   121   ar
   129   105   106    2
   130   118   120   ar
   131   121   120   ar
   132   121   122    1
   133   111   112    1
   134    90    91    1
   135    90    89    1
   136    91    92    2
   137   130   128   ar
   138   133   131   ar
   139   112   113    1
   140   113   123   am
   141   113   114    2
   142   128   127    1
   143   128   129   ar
   144   123   124    1
   145   131   129   ar
   146   127   124    1
   147   124   125    1
   148   125   126    2
