@<TRIPOS>MOLECULE
tmp/4m26A00.pdb
 117 107 0 0 0
SMALL
GASTEIGER

@<TRIPOS>ATOM
      1  N        -14.9640  -29.1030   35.0740 N.3   124  ILE124     -0.1245
      2  CA       -15.9410  -29.9990   35.6070 C.3   124  ILE124      0.1561
      3  C        -16.3430  -31.0060   34.5040 C.2   124  ILE124      0.2260
      4  O        -17.1320  -30.6760   33.5940 O.2   124  ILE124     -0.2867
      5  CB       -17.1990  -29.2700   36.1130 C.3   124  ILE124      0.0252
      6  CG1      -16.8810  -28.2100   37.1980 C.3   124  ILE124      0.0019
      7  CG2      -18.1550  -30.2910   36.6940 C.3   124  ILE124      0.0019
      8  CD1      -18.1220  -27.4430   37.6440 C.3   124  ILE124      0.0001
      9  N        -16.8520  -32.8560   42.0590 N.3   136  GLY136     -0.1225
     10  CA       -17.0800  -32.2750   40.7410 C.3   136  GLY136      0.1811
     11  C        -16.7290  -33.1960   39.5850 C.2   136  GLY136      0.2280
     12  O        -17.4510  -33.2630   38.6120 O.2   136  GLY136     -0.2866
     13  N        -24.3730  -35.3300   44.0830 N.3   143  LEU143     -0.1245
     14  CA       -23.6580  -34.2650   44.7890 C.3   143  LEU143      0.1561
     15  C        -24.7500  -33.4820   45.4910 C.2   143  LEU143      0.2260
     16  O        -25.4220  -32.6570   44.8590 O.2   143  LEU143     -0.2867
     17  CB       -22.8830  -33.3890   43.7870 C.3   143  LEU143      0.0270
     18  CG       -21.6950  -32.5030   44.1780 C.3   143  LEU143      0.0019
     19  CD1      -20.5910  -33.2900   44.8710 C.3   143  LEU143      0.0001
     20  CD2      -21.1260  -31.8090   42.9480 C.3   143  LEU143      0.0001
     21  N        -25.3460  -27.6730   48.5480 N.3   146  HIS146     -0.1241
     22  CA       -24.4710  -26.9580   49.4700 C.3   146  HIS146      0.1621
     23  C        -24.2870  -25.5190   49.0360 C.2   146  HIS146      0.2264
     24  O        -24.2970  -25.2140   47.8390 O.2   146  HIS146     -0.2867
     25  CB       -23.0900  -27.6210   49.5220 C.3   146  HIS146      0.0745
     26  CG       -22.4590  -27.8410   48.1550 C.ar  146  HIS146      0.0817
     27  ND1      -22.8550  -28.8260   47.3250 N.ar  146  HIS146     -0.2268
     28  CD2      -21.4430  -27.1550   47.4890 C.ar  146  HIS146      0.1154
     29  CE1      -22.1210  -28.7940   46.1950 C.ar  146  HIS146      0.1986
     30  NE2      -21.2560  -27.7650   46.2930 N.ar  146  HIS146     -0.2212
     31  N        -21.2510  -23.2270   48.6720 N.3   148  GLU148     -0.1245
     32  CA       -19.8250  -23.5240   48.4940 C.3   148  GLU148      0.1567
     33  C        -18.9780  -23.0080   49.6630 C.2   148  GLU148      0.2260
     34  O        -18.9810  -21.8100   49.9610 O.2   148  GLU148     -0.2867
     35  CB       -19.3030  -22.9500   47.1670 C.3   148  GLU148      0.0388
     36  CG       -18.0160  -23.5890   46.6960 C.3   148  GLU148      0.1160
     37  CD       -18.2630  -24.9790   46.1110 C.2   148  GLU148      0.3649
     38  OE1      -19.4150  -25.3080   45.7790 O.co2 148  GLU148     -0.2457
     39  OE2      -17.3030  -25.7420   46.0090 O.co2 148  GLU148     -0.2457
     40  N        -20.5480  -17.9330   42.0310 N.3   159  LEU159     -0.1245
     41  CA       -19.9370  -18.9640   41.2170 C.3   159  LEU159      0.1561
     42  C        -20.4490  -18.8050   39.8190 C.2   159  LEU159      0.2260
     43  O        -21.6340  -18.5570   39.6180 O.2   159  LEU159     -0.2867
     44  CB       -20.3540  -20.3630   41.6890 C.3   159  LEU159      0.0270
     45  CG       -19.9150  -20.9240   43.0380 C.3   159  LEU159      0.0019
     46  CD1      -18.4370  -20.7710   43.2730 C.3   159  LEU159      0.0001
     47  CD2      -20.6890  -20.3290   44.1970 C.3   159  LEU159      0.0001
     48  N        -20.8340  -20.8860   36.2730 N.3   161  LEU161     -0.1245
     49  CA       -20.7040  -22.1890   35.6060 C.3   161  LEU161      0.1561
     50  C        -21.0550  -22.0690   34.1340 C.2   161  LEU161      0.2260
     51  O        -22.1720  -21.7310   33.8060 O.2   161  LEU161     -0.2867
     52  CB       -21.6480  -23.2090   36.2610 C.3   161  LEU161      0.0270
     53  CG       -21.3850  -23.5030   37.7430 C.3   161  LEU161      0.0019
     54  CD1      -22.5550  -24.2690   38.3680 C.3   161  LEU161      0.0001
     55  CD2      -20.1170  -24.3060   37.8550 C.3   161  LEU161      0.0001
     56  N        -28.0610  -28.9370   37.1600 N.3   172  THR172     -0.1218
     57  CA       -27.4470  -28.4210   38.3640 C.3   172  THR172      0.1862
     58  C        -28.6300  -28.0890   39.2510 C.2   172  THR172      0.2287
     59  O        -29.5050  -27.2960   38.8620 O.2   172  THR172     -0.2866
     60  CB       -26.6260  -27.1420   38.0700 C.3   172  THR172      0.1770
     61  OG1      -25.5640  -27.4490   37.1580 O.3   172  THR172     -0.2211
     62  CG2      -26.0260  -26.5400   39.3470 C.3   172  THR172      0.0375
     63  N        -26.4170  -25.2200   45.8780 N.3   295  HIS295     -0.1226
     64  CA       -26.3940  -25.9460   44.6120 C.3   295  HIS295      0.1752
     65  C        -25.8050  -27.3260   44.7700 C.2   295  HIS295      0.2597
     66  O        -25.1320  -27.6280   45.7580 O.2   295  HIS295     -0.2718
     67  CB       -25.5690  -25.1690   43.5980 C.3   295  HIS295      0.0759
     68  CG       -24.1190  -25.1420   43.9460 C.ar  295  HIS295      0.0818
     69  ND1      -23.5980  -24.2320   44.7850 N.ar  295  HIS295     -0.2268
     70  CD2      -23.0920  -26.0110   43.6100 C.ar  295  HIS295      0.1154
     71  CE1      -22.2930  -24.4840   44.9520 C.ar  295  HIS295      0.1986
     72  NE2      -21.9840  -25.5790   44.2300 N.ar  295  HIS295     -0.2212
     73  N        -26.0470  -28.1580   43.7630 N.am  296  GLY296     -0.1942
     74  CA       -25.5760  -29.5210   43.7280 C.3   296  GLY296      0.2014
     75  C        -25.6740  -29.9990   42.2970 C.2   296  GLY296      0.2638
     76  O        -25.7350  -29.1850   41.3520 O.2   296  GLY296     -0.2714
     77  N        -25.6420  -31.3190   42.1400 N.am  297  ARG297     -0.1977
     78  CA       -25.7470  -31.9630   40.8360 C.3   297  ARG297      0.1597
     79  C        -26.2180  -33.4120   41.0050 C.2   297  ARG297      0.2287
     80  O        -25.7290  -34.1630   41.8680 O.2   297  ARG297     -0.2864
     81  CB       -24.4160  -31.9360   40.0980 C.3   297  ARG297      0.0334
     82  CG       -24.5360  -32.3800   38.6510 C.3   297  ARG297      0.0492
     83  CD       -23.2260  -32.8080   38.0390 C.3   297  ARG297      0.2205
     84  NE       -22.5250  -33.8360   38.7960 N.pl3 297  ARG297     -0.0865
     85  CZ       -21.2590  -33.7230   39.2140 C.cat 297  ARG297      0.5346
     86  NH1      -20.5150  -32.6120   38.9560 N.pl3 297  ARG297      0.1354
     87  NH2      -20.7270  -34.7350   39.8900 N.pl3 297  ARG297      0.1354
     88  N        -20.4420  -34.4590   29.4200 N.3   309  ARG309     -0.1245
     89  CA       -20.7140  -33.1470   30.0280 C.3   309  ARG309      0.1563
     90  C        -19.4050  -32.4790   30.4160 C.2   309  ARG309      0.2260
     91  O        -18.4920  -33.1320   30.9350 O.2   309  ARG309     -0.2867
     92  CB       -21.5870  -33.3420   31.2750 C.3   309  ARG309      0.0307
     93  CG       -22.1780  -32.0860   31.9030 C.3   309  ARG309      0.0489
     94  CD       -22.8370  -32.4800   33.2060 C.3   309  ARG309      0.2205
     95  NE       -23.5070  -31.3690   33.8700 N.pl3 309  ARG309     -0.0865
     96  CZ       -23.0640  -30.7670   34.9740 C.cat 309  ARG309      0.5346
     97  NH1      -21.9350  -31.1470   35.5520 N.pl3 309  ARG309      0.1354
     98  NH2      -23.7580  -29.7700   35.4870 N.pl3 309  ARG309      0.1354
     99  N        -18.2520  -28.6880   32.0270 N.3   311  LEU311     -0.1245
    100  CA       -18.4900  -27.3200   32.4790 C.3   311  LEU311      0.1561
    101  C        -17.1560  -26.7000   32.8900 C.2   311  LEU311      0.2260
    102  O        -16.1980  -27.4140   33.2470 O.2   311  LEU311     -0.2867
    103  CB       -19.5170  -27.2620   33.6300 C.3   311  LEU311      0.0270
    104  CG       -21.0330  -27.1820   33.3580 C.3   311  LEU311      0.0019
    105  CD1      -21.5840  -28.3080   32.5010 C.3   311  LEU311      0.0001
    106  CD2      -21.7980  -27.1320   34.6740 C.3   311  LEU311      0.0001
    107  N        -15.6710  -23.5990   35.4980 N.3   313  ARG313     -0.1245
    108  CA       -16.0990  -22.9570   36.7290 C.3   313  ARG313      0.1563
    109  C        -15.1080  -21.8900   37.1980 C.2   313  ARG313      0.2260
    110  O        -13.9110  -22.1480   37.2390 O.2   313  ARG313     -0.2867
    111  CB       -16.3030  -24.0200   37.8150 C.3   313  ARG313      0.0307
    112  CG       -16.9680  -23.4870   39.0670 C.3   313  ARG313      0.0489
    113  CD       -16.0030  -23.5620   40.2250 C.3   313  ARG313      0.2205
    114  NE       -16.5830  -24.2940   41.3340 N.pl3 313  ARG313     -0.0865
    115  CZ       -15.9020  -24.6490   42.4180 C.cat 313  ARG313      0.5346
    116  NH1      -14.6270  -24.3630   42.5180 N.pl3 313  ARG313      0.1354
    117  NH2      -16.5150  -25.2880   43.3940 N.pl3 313  ARG313      0.1354
@<TRIPOS>BOND
     1    88    89    1
     2    89    90    1
     3    89    92    1
     4    90    91    2
     5    92    93    1
     6    93    94    1
     7    99   100    1
     8   100   101    1
     9   100   103    1
    10   105   104    1
    11   101   102    2
    12    94    95    1
    13   104   103    1
    14   104   106    1
    15     4     3    2
    16    51    50    2
    17    95    96    2
    18    50    49    1
    19     3     2    1
    20    96    98    1
    21    96    97    1
    22     1     2    1
    23   107   108    1
    24    49    52    1
    25    49    48    1
    26     2     5    1
    27     5     7    1
    28     5     6    1
    29    52    53    1
    30   108   109    1
    31   108   111    1
    32    61    60    1
    33    56    57    1
    34     6     8    1
    35   109   110    2
    36    53    55    1
    37    53    54    1
    38   111   112    1
    39    83    82    1
    40    83    84    1
    41    60    57    1
    42    60    62    1
    43    57    58    1
    44    12    11    2
    45    82    81    1
    46    84    85    2
    47    59    58    2
    48    86    85    1
    49   112   113    1
    50    85    87    1
    51    11    10    1
    52    43    42    2
    53    42    41    1
    54    81    78    1
    55   113   114    1
    56    10     9    1
    57    78    79    1
    58    78    77    1
    59    79    80    2
    60    41    44    1
    61    41    40    1
    62   114   115    2
    63    76    75    2
    64    44    45    1
    65    77    75   am
    66    75    74    1
    67   115   116    1
    68   115   117    1
    69    20    18    1
    70    45    46    1
    71    45    47    1
    72    67    68    1
    73    67    64    1
    74    70    68   ar
    75    70    72   ar
    76    74    73    1
    77    73    65   am
    78    17    18    1
    79    17    14    1
    80    68    69   ar
    81    13    14    1
    82    18    19    1
    83    72    71   ar
    84    64    65    1
    85    64    63    1
    86    65    66    2
    87    69    71   ar
    88    14    15    1
    89    16    15    2
    90    38    37   ar
    91    39    37   ar
    92    37    36    1
    93    29    30   ar
    94    29    27   ar
    95    30    28   ar
    96    36    35    1
    97    35    32    1
    98    27    26   ar
    99    28    26   ar
   100    24    23    2
   101    26    25    1
   102    32    31    1
   103    32    33    1
   104    21    22    1
   105    23    22    1
   106    22    25    1
   107    33    34    2
