@<TRIPOS>MOLECULE
tmp/4m28A00.pdb
 110 104 0 0 0
SMALL
GASTEIGER

@<TRIPOS>ATOM
      1  N          9.8890   18.4270  -21.0570 N.3    76  LEU76      -0.1231
      2  CA         8.5620   18.2570  -21.5830 C.3    76  LEU76       0.1693
      3  C          8.6280   18.3830  -23.1040 C.2    76  LEU76       0.2592
      4  O          9.0730   19.4250  -23.6140 O.2    76  LEU76      -0.2718
      5  CB         7.6410   19.3120  -20.9700 C.3    76  LEU76       0.0284
      6  CG         7.5800   19.3760  -19.4390 C.3    76  LEU76       0.0019
      7  CD1        6.4040   20.2180  -18.9820 C.3    76  LEU76       0.0001
      8  CD2        7.4390   18.0030  -18.8130 C.3    76  LEU76       0.0001
      9  N          8.2240   17.3090  -23.8120 N.am   77  ASN77      -0.1960
     10  CA         8.2780   17.2110  -25.3110 C.3    77  ASN77       0.1819
     11  C          6.8980   16.9550  -25.9410 C.2    77  ASN77       0.2622
     12  O          6.7990   16.4620  -27.0730 O.2    77  ASN77      -0.2715
     13  CB         9.1560   16.0220  -25.7240 C.3    77  ASN77       0.1195
     14  CG         9.9780   16.2880  -26.9580 C.2    77  ASN77       0.2630
     15  OD1       11.1410   15.9280  -26.9960 O.2    77  ASN77      -0.2716
     16  ND2        9.3920   16.9170  -27.9640 N.am   77  ASN77      -0.0877
     17  N          5.8320   17.2410  -25.1930 N.am   78  GLY78      -0.1940
     18  CA         4.4560   17.0540  -25.6880 C.3    78  GLY78       0.2014
     19  C          3.9750   18.0310  -26.7620 C.2    78  GLY78       0.2639
     20  O          3.1460   17.6670  -27.6010 O.2    78  GLY78      -0.2714
     21  N          4.5060   19.2580  -26.7440 N.am   79  GLY79      -0.1939
     22  CA         4.0280   20.3490  -27.5950 C.3    79  GLY79       0.2014
     23  C          4.3300   20.1780  -29.0630 C.2    79  GLY79       0.2639
     24  O          5.3980   19.7040  -29.4320 O.2    79  GLY79      -0.2714
     25  N          3.3740   20.5710  -29.9000 N.am   80  LEU80      -0.1963
     26  CA         3.5370   20.5170  -31.3460 C.3    80  LEU80       0.1728
     27  C          4.0810   21.8220  -31.9180 C.2    80  LEU80       0.2617
     28  O          4.5030   21.8620  -33.0700 O.2    80  LEU80      -0.2715
     29  CB         2.1960   20.2110  -31.9950 C.3    80  LEU80       0.0311
     30  CG         1.6640   18.8000  -31.7800 C.3    80  LEU80       0.0022
     31  CD1        0.1410   18.8360  -31.6870 C.3    80  LEU80       0.0001
     32  CD2        2.1460   17.8710  -32.8910 C.3    80  LEU80       0.0001
     33  N          4.0580   22.8840  -31.1180 N.am   81  GLY81      -0.1940
     34  CA         4.4530   24.2160  -31.5740 C.3    81  GLY81       0.2014
     35  C          3.6520   24.6770  -32.7840 C.2    81  GLY81       0.2640
     36  O          4.2090   25.1110  -33.7970 O.2    81  GLY81      -0.2714
     37  N          2.3340   24.5760  -32.6880 N.am   82  THR82      -0.1936
     38  CA         1.4750   24.9750  -33.8000 C.3    82  THR82       0.2028
     39  C          1.4630   26.5020  -33.9530 C.2    82  THR82       0.2642
     40  O          1.1630   27.0050  -35.0370 O.2    82  THR82      -0.2714
     41  CB         0.0180   24.4630  -33.6440 C.3    82  THR82       0.1808
     42  OG1       -0.6740   25.2240  -32.6400 O.3    82  THR82      -0.2208
     43  CG2       -0.0200   22.9730  -33.2850 C.3    82  THR82       0.0379
     44  N          1.8000   27.2240  -32.8760 N.am   83  GLY83      -0.1954
     45  CA         1.8970   28.6900  -32.8850 C.3    83  GLY83       0.1869
     46  C          2.7380   29.2580  -34.0190 C.2    83  GLY83       0.2309
     47  O          2.4950   30.3670  -34.4790 O.2    83  GLY83      -0.2863
     48  N          8.0000   20.4970  -31.6580 N.3    90  LYS90      -0.1245
     49  CA         8.6380   21.7990  -31.5510 C.3    90  LYS90       0.1561
     50  C         10.1050   21.7330  -31.2700 C.2    90  LYS90       0.2260
     51  O         10.8800   22.5040  -31.7660 O.2    90  LYS90      -0.2867
     52  CB         7.9990   22.5910  -30.4320 C.3    90  LYS90       0.0271
     53  CG         8.4430   24.0290  -30.3760 C.3    90  LYS90       0.0035
     54  CD         7.6680   24.7810  -29.3280 C.3    90  LYS90       0.0206
     55  CE         6.9620   25.9670  -29.9310 C.3    90  LYS90       0.1093
     56  NZ         5.6400   26.1980  -29.2970 N.3    90  LYS90      -0.1314
     57  N          9.1630   13.4870  -21.7170 N.3   125  MET125     -0.1245
     58  CA         7.7140   13.3410  -21.6410 C.3   125  MET125      0.1570
     59  C          7.1520   13.5560  -23.0410 C.2   125  MET125      0.2261
     60  O          7.1640   14.6670  -23.5370 O.2   125  MET125     -0.2867
     61  CB         7.1430   14.3840  -20.6940 C.3   125  MET125      0.0387
     62  CG         5.6240   14.4310  -20.6250 C.3   125  MET125      0.0595
     63  SD         5.0100   13.8070  -19.0510 S.3   125  MET125     -0.1393
     64  CE         3.2860   14.2910  -19.1150 C.3   125  MET125      0.0692
     65  N          2.6180   10.5980  -22.1510 N.3   157  GLN157     -0.1245
     66  CA         1.5740   11.3780  -21.5050 C.3   157  GLN157      0.1566
     67  C          0.2420   10.6650  -21.6750 C.2   157  GLN157      0.2260
     68  O         -0.0080   10.0250  -22.7090 O.2   157  GLN157     -0.2867
     69  CB         1.4940   12.7800  -22.1080 C.3   157  GLN157      0.0367
     70  CG         0.4610   13.6870  -21.4380 C.3   157  GLN157      0.0905
     71  CD         0.2920   15.0260  -22.1350 C.2   157  GLN157      0.2608
     72  OE1        0.4460   15.1420  -23.3600 O.2   157  GLN157     -0.2717
     73  NE2       -0.0480   16.0470  -21.3610 N.am  157  GLN157     -0.0878
     74  N         -5.1840   15.7470  -24.0630 N.3   183  PRO183     -0.2116
     75  CA        -4.1460   15.7730  -23.0400 C.3   183  PRO183      0.1372
     76  C         -4.6000   16.5550  -21.8070 C.2   183  PRO183      0.2244
     77  O         -5.2880   17.5820  -21.9560 O.2   183  PRO183     -0.2868
     78  CB        -3.0140   16.5230  -23.7110 C.3   183  PRO183      0.0268
     79  CG        -3.2890   16.3920  -25.1600 C.3   183  PRO183      0.0207
     80  CD        -4.7680   16.4800  -25.2580 C.3   183  PRO183      0.0892
     81  N         -3.0990   18.4930  -19.5820 N.3   185  GLY185     -0.1210
     82  CA        -2.1930   19.4820  -19.0650 C.3   185  GLY185      0.1956
     83  C         -0.9160   18.8030  -18.7090 C.2   185  GLY185      0.2611
     84  O         -0.8540   17.5840  -18.7250 O.2   185  GLY185     -0.2717
     85  N          0.1090   19.5890  -18.4030 N.am  186  HIS186     -0.1975
     86  CA         1.4430   19.0220  -18.1420 C.3   186  HIS186      0.1656
     87  C          1.5620   18.5470  -16.6860 C.2   186  HIS186      0.2291
     88  O          2.5480   17.9210  -16.2950 O.2   186  HIS186     -0.2864
     89  CB         2.5810   19.9990  -18.5240 C.3   186  HIS186      0.0771
     90  CG         2.3240   21.4250  -18.1450 C.ar  186  HIS186      0.0820
     91  ND1        1.5920   21.7810  -17.0310 N.ar  186  HIS186     -0.2267
     92  CD2        2.7100   22.5840  -18.7290 C.ar  186  HIS186      0.1154
     93  CE1        1.5200   23.0970  -16.9540 C.ar  186  HIS186      0.1986
     94  NE2        2.1890   23.6090  -17.9740 N.ar  186  HIS186     -0.2212
     95  N         10.4570   22.8770  -19.4550 N.3   214  ASN214     -0.1240
     96  CA         9.8700   22.8310  -20.7800 C.3   214  ASN214      0.1653
     97  C         10.9570   22.6040  -21.8030 C.2   214  ASN214      0.2266
     98  O         12.0510   23.1570  -21.6900 O.2   214  ASN214     -0.2867
     99  CB         9.1260   24.1310  -21.0710 C.3   214  ASN214      0.1155
    100  CG         8.0180   24.4160  -20.0550 C.2   214  ASN214      0.2627
    101  OD1        7.5270   23.5190  -19.3630 O.2   214  ASN214     -0.2716
    102  ND2        7.6150   25.6710  -19.9700 N.am  214  ASN214     -0.0877
    103  N         11.1000   23.6690  -24.8960 N.3   216  ASP216     -0.1239
    104  CA        11.3350   24.8810  -25.7060 C.3   216  ASP216      0.1674
    105  C         12.1070   25.9630  -24.9620 C.2   216  ASP216      0.2266
    106  O         12.4290   27.0110  -25.5310 O.2   216  ASP216     -0.2867
    107  CB        10.0260   25.4590  -26.2740 C.3   216  ASP216      0.1410
    108  CG         9.0440   25.8720  -25.2040 C.2   216  ASP216      0.3668
    109  OD1        9.3910   25.8120  -24.0090 O.co2 216  ASP216     -0.2456
    110  OD2        7.9070   26.2500  -25.5570 O.co2 216  ASP216     -0.2456
@<TRIPOS>BOND
     1    40    39    2
     2    47    46    2
     3    46    45    1
     4    39    38    1
     5    39    44   am
     6    38    41    1
     7    38    37    1
     8    36    35    2
     9    41    43    1
    10    41    42    1
    11    28    27    2
    12    32    30    1
    13    45    44    1
    14    35    37   am
    15    35    34    1
    16    29    30    1
    17    29    26    1
    18    27    26    1
    19    27    33   am
    20    30    31    1
    21    51    50    2
    22    48    49    1
    23    34    33    1
    24    49    50    1
    25    49    52    1
    26    26    25    1
    27    52    53    1
    28    53    54    1
    29    55    54    1
    30    55    56    1
    31    25    23   am
    32    24    23    2
    33    23    22    1
    34    16    14   am
    35    20    19    2
    36    22    21    1
    37    12    11    2
    38    15    14    2
    39    14    13    1
    40    19    21   am
    41    19    18    1
    42   107   104    1
    43   107   108    1
    44    11    10    1
    45    11    17   am
    46    13    10    1
    47   104   105    1
    48   104   103    1
    49    18    17    1
    50   110   108   ar
    51   106   105    2
    52    10     9    1
    53    80    79    1
    54    80    74    1
    55   108   109   ar
    56    79    78    1
    57    74    75    1
    58     9     3   am
    59    78    75    1
    60     4     3    2
    61    60    59    2
    62    72    71    2
    63     3     2    1
    64    59    58    1
    65    75    76    1
    66    68    67    2
    67    65    66    1
    68    71    70    1
    69    71    73   am
    70    69    66    1
    71    69    70    1
    72    77    76    2
    73    97    98    2
    74    97    96    1
    75    57    58    1
    76    67    66    1
    77    58    61    1
    78     2     1    1
    79     2     5    1
    80    99    96    1
    81    99   100    1
    82     5     6    1
    83    96    95    1
    84    61    62    1
    85    62    63    1
    86   100   102   am
    87   100   101    2
    88    81    82    1
    89     6     7    1
    90     6     8    1
    91    64    63    1
    92    82    83    1
    93    92    90   ar
    94    92    94   ar
    95    84    83    2
    96    83    85   am
    97    89    90    1
    98    89    86    1
    99    85    86    1
   100    90    91   ar
   101    86    87    1
   102    94    93   ar
   103    91    93   ar
   104    87    88    2
