@<TRIPOS>MOLECULE
tmp/4m2aA00.pdb
 191 181 0 0 0
SMALL
GASTEIGER

@<TRIPOS>ATOM
      1  N         24.0550   45.1970   45.2230 N.3    76  LEU76      -0.1231
      2  CA        24.8640   44.0120   45.2900 C.3    76  LEU76       0.1693
      3  C         26.0030   44.0280   44.2640 C.2    76  LEU76       0.2592
      4  O         25.8270   44.4630   43.1940 O.2    76  LEU76      -0.2718
      5  CB        23.9630   42.8450   45.0590 C.3    76  LEU76       0.0284
      6  CG        22.8310   42.6000   46.0110 C.3    76  LEU76       0.0019
      7  CD1       21.9280   41.4710   45.5920 C.3    76  LEU76       0.0001
      8  CD2       23.2710   42.3820   47.4310 C.3    76  LEU76       0.0001
      9  N         27.1910   43.5770   44.6580 N.am   77  ASN77      -0.1960
     10  CA        28.3140   43.6950   43.7800 C.3    77  ASN77       0.1819
     11  C         29.3440   42.6490   44.0960 C.2    77  ASN77       0.2622
     12  O         30.4670   42.9070   43.8800 O.2    77  ASN77      -0.2715
     13  CB        28.9120   45.0610   43.9570 C.3    77  ASN77       0.1195
     14  CG        29.8790   45.4610   42.8790 C.2    77  ASN77       0.2630
     15  OD1       29.6730   45.2170   41.7540 O.2    77  ASN77      -0.2716
     16  ND2       30.9110   46.1180   43.2690 N.am   77  ASN77      -0.0877
     17  N         28.9230   41.5620   44.7190 N.am   78  GLY78      -0.1940
     18  CA        29.8070   40.5050   45.1270 C.3    78  GLY78       0.2014
     19  C         30.0630   39.2990   44.2520 C.2    78  GLY78       0.2639
     20  O         30.9570   38.5450   44.5060 O.2    78  GLY78      -0.2714
     21  N         29.2650   39.1300   43.2300 N.am   79  GLY79      -0.1954
     22  CA        29.4300   37.9880   42.3360 C.3    79  GLY79       0.1869
     23  C         30.4730   38.1220   41.2260 C.2    79  GLY79       0.2309
     24  O         31.1590   39.1140   41.1190 O.2    79  GLY79      -0.2863
     25  N         31.2280   42.5790   37.4070 N.3    90  LYS90      -0.1245
     26  CA        30.4100   42.7810   36.2230 C.3    90  LYS90       0.1561
     27  C         30.0810   44.2170   36.0680 C.2    90  LYS90       0.2260
     28  O         29.9350   44.6890   34.9740 O.2    90  LYS90      -0.2867
     29  CB        29.1100   41.9970   36.3930 C.3    90  LYS90       0.0271
     30  CG        28.2170   42.1400   35.1600 C.3    90  LYS90       0.0035
     31  CD        26.9630   41.3520   35.3420 C.3    90  LYS90       0.0206
     32  CE        27.1330   39.9000   35.1870 C.3    90  LYS90       0.1093
     33  NZ        25.8570   39.1580   35.4000 N.3    90  LYS90      -0.1314
     34  N         27.6040   45.9520   48.3550 N.3   125  MET125     -0.1245
     35  CA        28.1080   44.7360   49.0040 C.3   125  MET125      0.1570
     36  C         29.1630   44.1250   48.0580 C.2   125  MET125      0.2261
     37  O         28.8320   43.7180   46.9300 O.2   125  MET125     -0.2867
     38  CB        26.9540   43.7380   49.3150 C.3   125  MET125      0.0387
     39  CG        27.5920   42.5280   49.9830 C.3   125  MET125      0.0595
     40  SD        26.3220   41.4130   50.5800 S.3   125  MET125     -0.1393
     41  CE        26.0490   40.3290   49.1570 C.3   125  MET125      0.0692
     42  N         31.0380   41.0210   51.9460 N.3   157  GLN157     -0.1245
     43  CA        30.3800   39.7540   52.1970 C.3   157  GLN157      0.1566
     44  C         31.3560   38.7410   52.8240 C.2   157  GLN157      0.2260
     45  O         32.5990   38.9090   52.7480 O.2   157  GLN157     -0.2867
     46  CB        29.7410   39.2130   50.9250 C.3   157  GLN157      0.0367
     47  CG        30.7390   38.8100   49.8690 C.3   157  GLN157      0.0905
     48  CD        30.0410   38.2740   48.5620 C.2   157  GLN157      0.2608
     49  OE1       28.9740   38.7230   48.1900 O.2   157  GLN157     -0.2717
     50  NE2       30.7160   37.3270   47.8760 N.am  157  GLN157     -0.0878
     51  N         31.9770   32.5050   48.1860 N.3   183  PRO183     -0.2116
     52  CA        31.0600   33.4870   48.6920 C.3   183  PRO183      0.1372
     53  C         29.6980   32.7470   48.9120 C.2   183  PRO183      0.2244
     54  O         29.4340   31.7250   48.2640 O.2   183  PRO183     -0.2868
     55  CB        31.0230   34.5220   47.5440 C.3   183  PRO183      0.0268
     56  CG        31.1040   33.6620   46.3310 C.3   183  PRO183      0.0207
     57  CD        31.9860   32.4590   46.7010 C.3   183  PRO183      0.0892
     58  N         26.5680   33.4300   48.5160 N.3   185  GLY185     -0.1210
     59  CA        25.4050   33.9140   47.8170 C.3   185  GLY185      0.1956
     60  C         24.9810   35.2730   48.3700 C.2   185  GLY185      0.2611
     61  O         25.4190   35.7280   49.4040 O.2   185  GLY185     -0.2717
     62  N         24.1320   35.9570   47.6200 N.am  186  HIS186     -0.1975
     63  CA        23.7880   37.3030   48.1210 C.3   186  HIS186      0.1656
     64  C         22.8920   37.2590   49.3210 C.2   186  HIS186      0.2291
     65  O         22.6240   38.3220   49.9300 O.2   186  HIS186     -0.2864
     66  CB        23.1600   38.1430   46.9560 C.3   186  HIS186      0.0771
     67  CG        22.1660   37.3960   46.1190 C.ar  186  HIS186      0.0820
     68  ND1       20.9880   37.0160   46.5810 N.ar  186  HIS186     -0.2267
     69  CD2       22.2190   37.0280   44.7940 C.ar  186  HIS186      0.1154
     70  CE1       20.3110   36.3230   45.5940 C.ar  186  HIS186      0.1986
     71  NE2       21.0620   36.3410   44.5020 N.ar  186  HIS186     -0.2212
     72  N         20.1100   44.3120   42.3310 N.3   214  ASN214     -0.1225
     73  CA        21.3100   43.6640   41.7290 C.3   214  ASN214      0.1785
     74  C         22.1710   44.7140   41.0500 C.2   214  ASN214      0.2598
     75  O         21.6400   45.7440   40.5050 O.2   214  ASN214     -0.2718
     76  CB        20.8850   42.6870   40.6520 C.3   214  ASN214      0.1169
     77  CG        20.2080   41.4840   41.2250 C.2   214  ASN214      0.2627
     78  OD1       20.4290   41.1250   42.4020 O.2   214  ASN214     -0.2716
     79  ND2       19.3990   40.8330   40.4150 N.am  214  ASN214     -0.0877
     80  N         23.4570   44.5650   41.2120 N.am  215  GLY215     -0.1942
     81  CA        24.4240   45.4860   40.5180 C.3   215  GLY215      0.2014
     82  C         24.1570   45.4730   38.9960 C.2   215  GLY215      0.2638
     83  O         24.4630   46.4360   38.3850 O.2   215  GLY215     -0.2714
     84  N         23.5920   44.3950   38.4180 N.am  216  ASP216     -0.1971
     85  CA        23.4320   44.3660   36.9580 C.3   216  ASP216      0.1709
     86  C         22.1190   44.9520   36.5100 C.2   216  ASP216      0.2293
     87  O         21.8830   45.0800   35.3280 O.2   216  ASP216     -0.2864
     88  CB        23.5480   42.9750   36.4360 C.3   216  ASP216      0.1436
     89  CG        22.4870   42.0660   37.0240 C.2   216  ASP216      0.3671
     90  OD1       22.6990   41.5270   38.1130 O.co2 216  ASP216     -0.2456
     91  OD2       21.4480   41.8750   36.3950 O.co2 216  ASP216     -0.2456
     92  N         17.0470   32.7640   34.1260 N.3   250  LYS250     -0.1231
     93  CA        18.1000   32.6980   35.1560 C.3   250  LYS250      0.1693
     94  C         17.7380   33.6210   36.3400 C.2   250  LYS250      0.2593
     95  O         17.9170   34.8480   36.2820 O.2   250  LYS250     -0.2718
     96  CB        19.4820   33.0700   34.6050 C.3   250  LYS250      0.0285
     97  CG        20.0050   32.1260   33.4990 C.3   250  LYS250      0.0035
     98  CD        21.3070   32.6940   32.8930 C.3   250  LYS250      0.0206
     99  CE        22.0240   31.7050   31.9460 C.3   250  LYS250      0.1093
    100  NZ        22.3060   30.3760   32.5590 N.3   250  LYS250     -0.1314
    101  N         17.2450   32.9840   37.3820 N.am  251  GLY251     -0.1942
    102  CA        16.7410   33.7230   38.5580 C.3   251  GLY251      0.2014
    103  C         15.7200   32.9160   39.3030 C.2   251  GLY251      0.2639
    104  O         15.8590   31.7000   39.3990 O.2   251  GLY251     -0.2714
    105  N         14.7070   33.5680   39.8760 N.am  252  GLY252     -0.1954
    106  CA        13.7610   32.8530   40.7390 C.3   252  GLY252      0.1869
    107  C         12.4120   33.4650   40.5490 C.2   252  GLY252      0.2309
    108  O         12.3070   34.6120   40.1160 O.2   252  GLY252     -0.2863
    109  N         10.4610   32.2270   47.7240 N.3   277  LEU277     -0.1245
    110  CA        11.1810   32.3480   46.4910 C.3   277  LEU277      0.1561
    111  C         11.6430   30.9880   46.0720 C.2   277  LEU277      0.2260
    112  O         12.0380   30.2370   46.9610 O.2   277  LEU277     -0.2867
    113  CB        12.3770   33.2680   46.7590 C.3   277  LEU277      0.0270
    114  CG        13.3070   33.3700   45.5770 C.3   277  LEU277      0.0019
    115  CD1       12.6280   34.1470   44.4380 C.3   277  LEU277      0.0001
    116  CD2       14.6170   34.0660   46.0120 C.3   277  LEU277      0.0001
    117  N         14.4250   29.7150   43.4910 N.3   279  GLU279     -0.1245
    118  CA        15.4680   29.9400   42.4930 C.3   279  GLU279      0.1567
    119  C         15.5500   28.7550   41.5150 C.2   279  GLU279      0.2260
    120  O         15.1420   27.6320   41.8870 O.2   279  GLU279     -0.2867
    121  CB        16.8100   29.9680   43.2220 C.3   279  GLU279      0.0388
    122  CG        16.9220   31.1680   44.1660 C.3   279  GLU279      0.1160
    123  CD        16.9860   32.4440   43.3860 C.2   279  GLU279      0.3649
    124  OE1       18.1290   32.9220   42.9600 O.co2 279  GLU279     -0.2457
    125  OE2       15.8910   33.0980   43.1620 O.co2 279  GLU279     -0.2457
    126  N          8.2510   36.9590   38.4880 N.3   300  PHE300     -0.1227
    127  CA         9.6790   36.7050   38.5010 C.3   300  PHE300      0.1736
    128  C         10.2810   37.7440   39.4570 C.2   300  PHE300      0.2595
    129  O          9.9600   38.9430   39.4270 O.2   300  PHE300     -0.2718
    130  CB        10.2080   36.8930   37.1110 C.3   300  PHE300      0.0547
    131  CG        11.5690   36.2790   36.9020 C.ar  300  PHE300     -0.0202
    132  CD1       11.6780   34.9140   36.8750 C.ar  300  PHE300     -0.0042
    133  CD2       12.7170   37.0670   36.7210 C.ar  300  PHE300     -0.0042
    134  CE1       12.8910   34.2870   36.6250 C.ar  300  PHE300     -0.0003
    135  CE2       13.9550   36.4540   36.5000 C.ar  300  PHE300     -0.0003
    136  CZ        14.0280   35.0740   36.4590 C.ar  300  PHE300     -0.0000
    137  N         11.0860   37.2250   40.3770 N.am  301  ASN301     -0.1960
    138  CA        11.7640   38.1570   41.3060 C.3   301  ASN301      0.1819
    139  C         12.7090   39.0280   40.5530 C.2   301  ASN301      0.2622
    140  O         13.6150   38.5510   39.8540 O.2   301  ASN301     -0.2715
    141  CB        12.4960   37.3180   42.3480 C.3   301  ASN301      0.1195
    142  CG        13.2180   38.1470   43.3740 C.2   301  ASN301      0.2630
    143  OD1       12.7800   39.2700   43.6520 O.2   301  ASN301     -0.2716
    144  ND2       14.3440   37.6370   43.8820 N.am  301  ASN301     -0.0877
    145  N         12.5830   40.3380   40.8010 N.am  302  THR302     -0.1937
    146  CA        13.5470   41.2870   40.2480 C.3   302  THR302      0.2028
    147  C         14.7930   41.3640   41.0810 C.2   302  THR302      0.2642
    148  O         15.8220   41.9240   40.5860 O.2   302  THR302     -0.2714
    149  CB        12.9850   42.7430   40.2150 C.3   302  THR302      0.1808
    150  OG1       12.6690   43.1620   41.5270 O.3   302  THR302     -0.2208
    151  CG2       11.6940   42.8270   39.3380 C.3   302  THR302      0.0379
    152  N         14.6790   40.9560   42.3510 N.am  303  ASN303     -0.1971
    153  CA        15.6870   41.1710   43.3770 C.3   303  ASN303      0.1688
    154  C         15.8170   42.6290   43.7800 C.2   303  ASN303      0.2292
    155  O         16.8060   42.9960   44.4150 O.2   303  ASN303     -0.2864
    156  CB        17.0680   40.5610   42.9950 C.3   303  ASN303      0.1181
    157  CG        17.6310   39.6780   44.1220 C.2   303  ASN303      0.2629
    158  OD1       16.9230   39.1910   44.9160 O.2   303  ASN303     -0.2716
    159  ND2       18.9430   39.4930   44.1570 N.am  303  ASN303     -0.0877
    160  N         19.7940   32.9130   48.9530 N.3   350  ALA350     -0.1245
    161  CA        19.3480   34.0070   48.0800 C.3   350  ALA350      0.1562
    162  C         18.6250   35.0880   48.9190 C.2   350  ALA350      0.2260
    163  O         17.8240   34.7690   49.7650 O.2   350  ALA350     -0.2867
    164  CB        18.3810   33.4120   47.0670 C.3   350  ALA350      0.0290
    165  N         13.3670   46.6090   35.8840 N.3   371  PHE371     -0.1241
    166  CA        14.0510   45.3300   35.7810 C.3   371  PHE371      0.1605
    167  C         14.7160   45.1460   34.4110 C.2   371  PHE371      0.2264
    168  O         14.0420   44.7510   33.4120 O.2   371  PHE371     -0.2867
    169  CB        13.0600   44.1920   36.0490 C.3   371  PHE371      0.0534
    170  CG        13.7310   42.8490   36.1110 C.ar  371  PHE371     -0.0203
    171  CD1       14.7650   42.6510   37.0090 C.ar  371  PHE371     -0.0042
    172  CD2       13.2150   41.7660   35.3800 C.ar  371  PHE371     -0.0042
    173  CE1       15.3760   41.3990   37.0770 C.ar  371  PHE371     -0.0003
    174  CE2       13.8520   40.5050   35.4050 C.ar  371  PHE371     -0.0003
    175  CZ        14.8960   40.3170   36.3050 C.ar  371  PHE371     -0.0000
    176  N         17.7450   43.0880   33.6840 N.3   373  PRO373     -0.2116
    177  CA        18.8180   42.1880   34.1870 C.3   373  PRO373      0.1372
    178  C         19.8640   41.9970   33.1310 C.2   373  PRO373      0.2244
    179  O         19.5560   41.9200   31.9080 O.2   373  PRO373     -0.2868
    180  CB        18.0630   40.8210   34.4570 C.3   373  PRO373      0.0268
    181  CG        16.8950   40.9160   33.5380 C.3   373  PRO373      0.0207
    182  CD        16.4560   42.3540   33.6140 C.3   373  PRO373      0.0892
    183  N         22.4160   39.0110   32.7950 N.3   375  LYS375     -0.1245
    184  CA        22.9670   37.7310   33.3210 C.3   375  LYS375      0.1561
    185  C         23.8440   37.0950   32.2560 C.2   375  LYS375      0.2260
    186  O         24.6960   36.2280   32.5390 O.2   375  LYS375     -0.2867
    187  CB        21.8650   36.7140   33.6330 C.3   375  LYS375      0.0271
    188  CG        20.7650   37.1270   34.6190 C.3   375  LYS375      0.0035
    189  CD        21.3610   37.5640   35.9790 C.3   375  LYS375      0.0206
    190  CE        20.5130   38.6490   36.6290 C.3   375  LYS375      0.1093
    191  NZ        21.0380   39.1710   37.9520 N.3   375  LYS375     -0.1314
@<TRIPOS>BOND
     1   179   178    2
     2    99   100    1
     3    99    98    1
     4   185   186    2
     5   185   184    1
     6   183   184    1
     7    98    97    1
     8   178   177    1
     9   184   187    1
    10   168   167    2
    11    97    96    1
    12   181   182    1
    13   181   180    1
    14   182   176    1
    15   187   188    1
    16   176   177    1
    17    92    93    1
    18   177   180    1
    19   167   166    1
    20    96    93    1
    21   188   189    1
    22    28    27    2
    23    93    94    1
    24    30    31    1
    25    30    29    1
    26    32    31    1
    27    32    33    1
    28    87    86    2
    29   172   174   ar
    30   172   170   ar
    31   174   175   ar
    32   166   165    1
    33   166   169    1
    34   189   190    1
    35   169   170    1
    36    27    26    1
    37   170   171   ar
    38    26    29    1
    39    26    25    1
    40    95    94    2
    41   175   173   ar
    42    94   101   am
    43    91    89   ar
    44    88    85    1
    45    88    89    1
    46   136   135   ar
    47   136   134   ar
    48   135   133   ar
    49    86    85    1
    50   134   132   ar
    51   190   191    1
    52   133   131   ar
    53   132   131   ar
    54   131   130    1
    55    85    84    1
    56   171   173   ar
    57    89    90   ar
    58   130   127    1
    59   101   102    1
    60    83    82    2
    61    84    82   am
    62   126   127    1
    63   127   128    1
    64   102   103    1
    65    82    81    1
    66   103   104    2
    67   103   105   am
    68   151   149    1
    69   129   128    2
    70   128   137   am
    71   140   139    2
    72   105   106    1
    73   108   107    2
    74   149   146    1
    75   149   150    1
    76   146   145    1
    77   146   147    1
    78   137   138    1
    79    79    77   am
    80    75    74    2
    81    81    80    1
    82   107   106    1
    83   139   145   am
    84   139   138    1
    85   148   147    2
    86    76    77    1
    87    76    73    1
    88    74    80   am
    89    74    73    1
    90   147   152   am
    91    24    23    2
    92    77    78    2
    93    23    22    1
    94   138   141    1
    95   119   120    2
    96   119   118    1
    97    73    72    1
    98    15    14    2
    99    22    21    1
   100   141   142    1
   101   152   153    1
   102   118   121    1
   103   118   117    1
   104    14    16   am
   105    14    13    1
   106   124   123   ar
   107   156   153    1
   108   156   157    1
   109   125   123   ar
   110     4     3    2
   111   121   122    1
   112    21    19   am
   113   142   143    2
   114   142   144   am
   115   153   154    1
   116   123   122    1
   117    10    13    1
   118    10    11    1
   119    10     9    1
   120   154   155    2
   121    12    11    2
   122    11    17   am
   123   157   159   am
   124   157   158    2
   125    19    20    2
   126    19    18    1
   127     3     9   am
   128     3     2    1
   129   115   114    1
   130    71    69   ar
   131    71    70   ar
   132    17    18    1
   133    69    67   ar
   134     5     2    1
   135     5     6    1
   136     1     2    1
   137   114   116    1
   138   114   113    1
   139     7     6    1
   140    70    68   ar
   141     6     8    1
   142   111   110    1
   143   111   112    2
   144    67    68   ar
   145    67    66    1
   146    56    57    1
   147    56    55    1
   148   110   113    1
   149   110   109    1
   150    57    51    1
   151    37    36    2
   152    66    63    1
   153   164   161    1
   154    55    52    1
   155    62    63    1
   156    62    60   am
   157    59    60    1
   158    59    58    1
   159    50    48   am
   160    36    35    1
   161   161   162    1
   162   161   160    1
   163    63    64    1
   164    51    52    1
   165    49    48    2
   166    54    53    2
   167    34    35    1
   168    60    61    2
   169    48    47    1
   170    52    53    1
   171   162   163    2
   172    35    38    1
   173    41    40    1
   174    38    39    1
   175    64    65    2
   176    47    46    1
   177    39    40    1
   178    46    43    1
   179    42    43    1
   180    43    44    1
   181    45    44    2
