@<TRIPOS>MOLECULE
tmp/4m2eD00.pdb
 161 153 0 0 0
SMALL
GASTEIGER

@<TRIPOS>ATOM
      1  N         39.4520    5.7940    8.9320 N.3   115  GLN115     -0.1231
      2  CA        39.8860    4.7980    7.9520 C.3   115  GLN115      0.1698
      3  C         40.3260    5.4530    6.6430 C.2   115  GLN115      0.2592
      4  O         39.5970    6.2650    6.0700 O.2   115  GLN115     -0.2718
      5  CB        38.8000    3.7440    7.6880 C.3   115  GLN115      0.0381
      6  CG        39.3190    2.5450    6.9000 C.3   115  GLN115      0.0905
      7  CD        38.2370    1.5870    6.4230 C.2   115  GLN115      0.2608
      8  OE1       38.5190    0.6720    5.6550 O.2   115  GLN115     -0.2717
      9  NE2       37.0020    1.7870    6.8740 N.am  115  GLN115     -0.0878
     10  N         41.5180    5.0760    6.1780 N.am  116  GLN116     -0.1979
     11  CA        42.1340    5.6400    4.9630 C.3   116  GLN116      0.1601
     12  C         42.0180    7.1640    4.8820 C.2   116  GLN116      0.2287
     13  O         41.6220    7.7220    3.8520 O.2   116  GLN116     -0.2864
     14  CB        41.6010    4.9550    3.6950 C.3   116  GLN116      0.0394
     15  CG        42.1070    3.5310    3.5260 C.3   116  GLN116      0.0908
     16  CD        41.7650    2.9110    2.1800 C.2   116  GLN116      0.2608
     17  OE1       41.8700    3.5540    1.1270 O.2   116  GLN116     -0.2717
     18  NE2       41.3760    1.6390    2.2070 N.am  116  GLN116     -0.0878
     19  N         40.6860    2.4160   -1.3070 N.3   123  ASP123     -0.1225
     20  CA        41.5190    1.5700   -2.1610 C.3   123  ASP123      0.1805
     21  C         41.6100    0.1400   -1.6460 C.2   123  ASP123      0.2597
     22  O         41.7800   -0.0940   -0.4450 O.2   123  ASP123     -0.2718
     23  CB        42.9250    2.1490   -2.2840 C.3   123  ASP123      0.1424
     24  CG        43.0060    3.2730   -3.2850 C.2   123  ASP123      0.3668
     25  OD1       42.7860    3.0180   -4.4860 O.co2 123  ASP123     -0.2456
     26  OD2       43.3030    4.4130   -2.8760 O.co2 123  ASP123     -0.2456
     27  N         41.4870   -0.8120   -2.5630 N.am  124  ILE124     -0.1980
     28  CA        41.7450   -2.2130   -2.2500 C.3   124  ILE124      0.1595
     29  C         42.8010   -2.7530   -3.2170 C.2   124  ILE124      0.2287
     30  O         42.4990   -3.0560   -4.3740 O.2   124  ILE124     -0.2864
     31  CB        40.4700   -3.0860   -2.2920 C.3   124  ILE124      0.0276
     32  CG1       39.3920   -2.5250   -1.3560 C.3   124  ILE124      0.0022
     33  CG2       40.8080   -4.5240   -1.9110 C.3   124  ILE124      0.0022
     34  CD1       38.0520   -3.2270   -1.4480 C.3   124  ILE124      0.0001
     35  N         44.5710   -8.9920    8.3510 N.3   134  GLN134     -0.1231
     36  CA        43.1400   -9.0900    8.0680 C.3   134  GLN134      0.1698
     37  C         42.6210   -7.7320    7.5910 C.2   134  GLN134      0.2592
     38  O         41.8690   -7.0480    8.2890 O.2   134  GLN134     -0.2718
     39  CB        42.3700   -9.5840    9.2940 C.3   134  GLN134      0.0381
     40  CG        42.5550  -11.0660    9.5830 C.3   134  GLN134      0.0905
     41  CD        41.5460  -11.9460    8.8700 C.2   134  GLN134      0.2608
     42  OE1       40.6890  -12.5540    9.5070 O.2   134  GLN134     -0.2717
     43  NE2       41.6390  -12.0190    7.5470 N.am  134  GLN134     -0.0878
     44  N         43.0530   -7.3520    6.3920 N.am  135  LEU135     -0.1966
     45  CA        42.7480   -6.0480    5.8170 C.3   135  LEU135      0.1728
     46  C         42.4360   -6.1910    4.3310 C.2   135  LEU135      0.2617
     47  O         42.5750   -7.2800    3.7600 O.2   135  LEU135     -0.2715
     48  CB        43.9260   -5.0830    6.0300 C.3   135  LEU135      0.0311
     49  CG        44.2870   -4.6850    7.4720 C.3   135  LEU135      0.0022
     50  CD1       45.6500   -4.0100    7.5300 C.3   135  LEU135      0.0001
     51  CD2       43.2250   -3.7930    8.1040 C.3   135  LEU135      0.0001
     52  N         42.0040   -5.0950    3.7110 N.am  136  GLY136     -0.1940
     53  CA        41.7870   -5.0600    2.2680 C.3   136  GLY136      0.2014
     54  C         43.0970   -5.1210    1.4970 C.2   136  GLY136      0.2638
     55  O         43.1470   -5.6650    0.3910 O.2   136  GLY136     -0.2714
     56  N         44.1510   -4.5610    2.0950 N.am  137  MET137     -0.1976
     57  CA        45.4920   -4.5340    1.5040 C.3   137  MET137      0.1605
     58  C         46.2750   -5.8380    1.7480 C.2   137  MET137      0.2287
     59  O         47.4640   -5.9250    1.4380 O.2   137  MET137     -0.2864
     60  CB        46.3040   -3.3270    2.0150 C.3   137  MET137      0.0413
     61  CG        45.5000   -2.0920    2.4100 C.3   137  MET137      0.0598
     62  SD        44.3070   -1.5830    1.1610 S.3   137  MET137     -0.1393
     63  CE        45.2790   -0.4740    0.1430 C.3   137  MET137      0.0692
     64  N         41.0030  -13.3890    3.6760 N.3   143  LEU143     -0.1231
     65  CA        40.2350  -12.3550    4.3590 C.3   143  LEU143      0.1693
     66  C         38.9430  -13.0150    4.7970 C.2   143  LEU143      0.2592
     67  O         38.0910  -13.3350    3.9590 O.2   143  LEU143     -0.2718
     68  CB        39.9640  -11.1520    3.4420 C.3   143  LEU143      0.0284
     69  CG        39.3230   -9.8980    4.0550 C.3   143  LEU143      0.0019
     70  CD1       40.2280   -9.2220    5.0770 C.3   143  LEU143      0.0001
     71  CD2       38.9370   -8.9070    2.9680 C.3   143  LEU143      0.0001
     72  N         38.8200  -13.2560    6.1040 N.am  144  THR144     -0.1953
     73  CA        37.6460  -13.9310    6.6500 C.3   144  THR144      0.1897
     74  C         36.4130  -13.0860    6.3850 C.2   144  THR144      0.2313
     75  O         36.4710  -11.8510    6.4330 O.2   144  THR144     -0.2863
     76  CB        37.7490  -14.2050    8.1670 C.3   144  THR144      0.1794
     77  OG1       37.9340  -12.9700    8.8740 O.3   144  THR144     -0.2208
     78  CG2       38.8940  -15.1780    8.4830 C.3   144  THR144      0.0378
     79  N         32.8230  -11.1840    6.5990 N.3   146  HIS146     -0.1241
     80  CA        32.3240  -10.2520    7.6110 C.3   146  HIS146      0.1621
     81  C         31.4060   -9.2310    7.0000 C.2   146  HIS146      0.2264
     82  O         31.5170   -8.9160    5.8180 O.2   146  HIS146     -0.2867
     83  CB        33.4950   -9.5040    8.2350 C.3   146  HIS146      0.0745
     84  CG        34.2300   -8.6410    7.2520 C.ar  146  HIS146      0.0817
     85  ND1       35.0620   -9.1490    6.3360 N.ar  146  HIS146     -0.2268
     86  CD2       34.1830   -7.2680    7.0240 C.ar  146  HIS146      0.1154
     87  CE1       35.5500   -8.1510    5.5720 C.ar  146  HIS146      0.1986
     88  NE2       35.0060   -7.0030    5.9950 N.ar  146  HIS146     -0.2212
     89  N         30.6980   -5.4160    6.6450 N.3   148  GLU148     -0.1231
     90  CA        31.6150   -4.2760    6.6790 C.3   148  GLU148      0.1699
     91  C         31.3130   -3.3670    7.8700 C.2   148  GLU148      0.2592
     92  O         30.1650   -2.9230    8.0660 O.2   148  GLU148     -0.2718
     93  CB        31.6000   -3.4990    5.3650 C.3   148  GLU148      0.0402
     94  CG        32.7720   -2.5350    5.1930 C.3   148  GLU148      0.1161
     95  CD        34.1050   -3.2140    4.8520 C.2   148  GLU148      0.3649
     96  OE1       34.1590   -4.4570    4.7200 O.co2 148  GLU148     -0.2457
     97  OE2       35.1180   -2.4970    4.7130 O.co2 148  GLU148     -0.2457
     98  N         32.3500   -3.1300    8.6730 N.am  149  ASP149     -0.1974
     99  CA        32.2500   -2.3400    9.9040 C.3   149  ASP149      0.1709
    100  C         31.1430   -2.8240   10.8380 C.2   149  ASP149      0.2293
    101  O         30.4430   -2.0280   11.4640 O.2   149  ASP149     -0.2864
    102  CB        32.0900   -0.8550    9.5660 C.3   149  ASP149      0.1436
    103  CG        33.2610   -0.3220    8.7820 C.2   149  ASP149      0.3671
    104  OD1       34.3210   -0.0740    9.3990 O.co2 149  ASP149     -0.2456
    105  OD2       33.1370   -0.1730    7.5470 O.co2 149  ASP149     -0.2456
    106  N         37.9690   -3.3830   13.6890 N.3   200  ASP200     -0.1239
    107  CA        39.1300   -3.9640   13.0120 C.3   200  ASP200      0.1674
    108  C         40.3460   -3.0330   13.0080 C.2   200  ASP200      0.2266
    109  O         40.2690   -1.8880   13.4790 O.2   200  ASP200     -0.2867
    110  CB        38.7810   -4.3740   11.5800 C.3   200  ASP200      0.1410
    111  CG        38.4560   -3.1890   10.7060 C.2   200  ASP200      0.3668
    112  OD1       37.3040   -2.7190   10.7420 O.co2 200  ASP200     -0.2456
    113  OD2       39.3570   -2.7200    9.9920 O.co2 200  ASP200     -0.2456
    114  N         41.8380   -1.5350   10.4860 N.3   202  SER202     -0.1217
    115  CA        41.7920   -0.3840    9.5610 C.3   202  SER202      0.1889
    116  C         41.4590    0.9280   10.2860 C.2   202  SER202      0.2288
    117  O         41.8120    2.0150    9.8110 O.2   202  SER202     -0.2866
    118  CB        40.8410   -0.6300    8.3790 C.3   202  SER202      0.2089
    119  OG        39.4730   -0.5370    8.7610 O.3   202  SER202     -0.2183
    120  N         30.9150  -10.8160   12.1200 N.3   247  ASP247     -0.1239
    121  CA        32.3630  -10.6330   11.9250 C.3   247  ASP247      0.1674
    122  C         33.1200  -11.5710   12.8760 C.2   247  ASP247      0.2266
    123  O         33.6120  -11.1410   13.9320 O.2   247  ASP247     -0.2867
    124  CB        32.7760   -9.1700   12.1420 C.3   247  ASP247      0.1410
    125  CG        34.2450   -8.9150   11.8220 C.2   247  ASP247      0.3668
    126  OD1       34.9860   -9.8980   11.5690 O.co2 247  ASP247     -0.2456
    127  OD2       34.6660   -7.7330   11.8350 O.co2 247  ASP247     -0.2456
    128  N         36.0470  -12.9850   13.1510 N.3   249  TYR249     -0.1227
    129  CA        37.4020  -12.6580   13.6200 C.3   249  TYR249      0.1736
    130  C         37.4310  -11.6790   14.7970 C.2   249  TYR249      0.2595
    131  O         38.3730  -11.6860   15.6120 O.2   249  TYR249     -0.2718
    132  CB        38.2360  -12.1080   12.4650 C.3   249  TYR249      0.0548
    133  CG        39.7370  -12.1740   12.6740 C.ar  249  TYR249     -0.0200
    134  CD1       40.4180  -13.3970   12.6560 C.ar  249  TYR249     -0.0009
    135  CD2       40.4780  -11.0200   12.8500 C.ar  249  TYR249     -0.0009
    136  CE1       41.7930  -13.4600   12.8350 C.ar  249  TYR249      0.0417
    137  CE2       41.8520  -11.0710   13.0300 C.ar  249  TYR249      0.0417
    138  CZ        42.5020  -12.2920   13.0210 C.ar  249  TYR249      0.1957
    139  OH        43.8710  -12.3290   13.1980 O.3   249  TYR249     -0.2866
    140  N         36.4050  -10.8350   14.8870 N.am  250  PHE250     -0.1976
    141  CA        36.3520   -9.8510   15.9590 C.3   250  PHE250      0.1639
    142  C         35.2130  -10.0790   16.9320 C.2   250  PHE250      0.2290
    143  O         34.8580   -9.1840   17.6960 O.2   250  PHE250     -0.2864
    144  CB        36.3390   -8.4410   15.3760 C.3   250  PHE250      0.0560
    145  CG        37.5900   -8.1030   14.6190 C.ar  250  PHE250     -0.0200
    146  CD1       38.7110   -7.6170   15.2890 C.ar  250  PHE250     -0.0042
    147  CD2       37.6610   -8.3010   13.2390 C.ar  250  PHE250     -0.0042
    148  CE1       39.8750   -7.3110   14.5950 C.ar  250  PHE250     -0.0003
    149  CE2       38.8250   -8.0030   12.5430 C.ar  250  PHE250     -0.0003
    150  CZ        39.9330   -7.5030   13.2220 C.ar  250  PHE250     -0.0000
    151  N         36.4280    1.0360   -3.3100 N.3   313  ARG313     -0.1245
    152  CA        35.2250    0.8920   -2.4960 C.3   313  ARG313      0.1563
    153  C         34.6200    2.2320   -2.1020 C.2   313  ARG313      0.2260
    154  O         35.3390    3.1510   -1.7130 O.2   313  ARG313     -0.2867
    155  CB        35.4820    0.0800   -1.2260 C.3   313  ARG313      0.0307
    156  CG        34.1930   -0.4870   -0.6440 C.3   313  ARG313      0.0489
    157  CD        34.2660   -0.9920    0.7950 C.3   313  ARG313      0.2205
    158  NE        35.6190   -1.2370    1.2780 N.pl3 313  ARG313     -0.0865
    159  CZ        36.2240   -0.4660    2.1680 C.cat 313  ARG313      0.5346
    160  NH1       35.5770    0.5810    2.6560 N.pl3 313  ARG313      0.1354
    161  NH2       37.4590   -0.7300    2.5710 N.pl3 313  ARG313      0.1354
@<TRIPOS>BOND
     1    25    24   ar
     2    30    29    2
     3   151   152    1
     4    24    26   ar
     5    24    23    1
     6    29    28    1
     7    27    28    1
     8    27    21   am
     9   152   153    1
    10   152   155    1
    11    31    28    1
    12    31    33    1
    13    31    32    1
    14    23    20    1
    15    20    21    1
    16    20    19    1
    17   153   154    2
    18    21    22    2
    19    34    32    1
    20   155   156    1
    21   156   157    1
    22    63    62    1
    23    55    54    2
    24   157   158    1
    25    17    16    2
    26    62    61    1
    27   158   159    2
    28    59    58    2
    29    54    56   am
    30    54    53    1
    31    57    58    1
    32    57    60    1
    33    57    56    1
    34    60    61    1
    35   159   161    1
    36   159   160    1
    37    16    18   am
    38    16    15    1
    39    53    52    1
    40    71    69    1
    41    68    69    1
    42    68    65    1
    43    15    14    1
    44    64    65    1
    45    14    11    1
    46    52    46   am
    47    47    46    2
    48    13    12    2
    49    67    66    2
    50    69    70    1
    51    46    45    1
    52    65    66    1
    53    97    95   ar
    54    96    95   ar
    55    66    72   am
    56    95    94    1
    57    12    11    1
    58    11    10    1
    59    94    93    1
    60    93    90    1
    61    87    88   ar
    62    87    85   ar
    63     8     7    2
    64    45    48    1
    65    45    44    1
    66    82    81    2
    67    88    86   ar
    68    48    49    1
    69     4     3    2
    70    72    73    1
    71    10     3   am
    72    85    84   ar
    73    74    75    2
    74    74    73    1
    75    44    37   am
    76     7     9   am
    77     7     6    1
    78    79    80    1
    79     3     2    1
    80    89    90    1
    81    73    76    1
    82    90    91    1
    83     6     5    1
    84    81    80    1
    85    86    84   ar
    86    84    83    1
    87    49    50    1
    88    49    51    1
    89   105   103   ar
    90    43    41   am
    91    37    36    1
    92    37    38    2
    93    80    83    1
    94     5     2    1
    95    91    92    2
    96    91    98   am
    97     2     1    1
    98    36    35    1
    99    36    39    1
   100    76    78    1
   101    76    77    1
   102   118   119    1
   103   118   115    1
   104    98    99    1
   105   103   104   ar
   106   103   102    1
   107    41    42    2
   108    41    40    1
   109    39    40    1
   110   115   116    1
   111   115   114    1
   112   102    99    1
   113   117   116    2
   114    99   100    1
   115   113   111   ar
   116   111   112   ar
   117   111   110    1
   118   100   101    2
   119   126   125   ar
   120   110   107    1
   121   125   127   ar
   122   125   124    1
   123   121   120    1
   124   121   124    1
   125   121   122    1
   126   132   133    1
   127   132   129    1
   128   149   150   ar
   129   149   147   ar
   130   134   133   ar
   131   134   136   ar
   132   133   135   ar
   133   136   138   ar
   134   135   137   ar
   135   122   123    2
   136   108   107    1
   137   108   109    2
   138   107   106    1
   139   138   137   ar
   140   138   139    1
   141   128   129    1
   142   150   148   ar
   143   147   145   ar
   144   129   130    1
   145   148   146   ar
   146   145   146   ar
   147   145   144    1
   148   130   140   am
   149   130   131    2
   150   140   141    1
   151   144   141    1
   152   141   142    1
   153   142   143    2
