@<TRIPOS>MOLECULE
tmp/4m2eA00.pdb
 91 85 0 0 0
SMALL
GASTEIGER

@<TRIPOS>ATOM
      1  N        -11.0080  -13.1350   19.5840 N.3    20  GLU20      -0.1231
      2  CA       -10.0260  -12.0500   19.5370 C.3    20  GLU20       0.1699
      3  C         -9.1270  -12.0380   20.7810 C.2    20  GLU20       0.2592
      4  O         -7.8950  -12.0520   20.6820 O.2    20  GLU20      -0.2718
      5  CB       -10.7250  -10.6850   19.3700 C.3    20  GLU20       0.0402
      6  CG        -9.7690   -9.4940   19.3700 C.3    20  GLU20       0.1161
      7  CD       -10.4690   -8.1410   19.4260 C.2    20  GLU20       0.3649
      8  OE1       -9.8930   -7.1990   20.0180 O.co2  20  GLU20      -0.2457
      9  OE2      -11.5910   -8.0100   18.8890 O.co2  20  GLU20      -0.2457
     10  N         -9.7510  -12.0030   21.9490 N.am   21  LEU21      -0.1980
     11  CA        -9.0190  -12.0060   23.2090 C.3    21  LEU21       0.1596
     12  C         -8.1970  -13.2770   23.4150 C.2    21  LEU21       0.2287
     13  O         -7.0990  -13.2140   23.9510 O.2    21  LEU21      -0.2864
     14  CB        -9.9840  -11.7930   24.3780 C.3    21  LEU21       0.0297
     15  CG       -10.3690  -10.3590   24.7790 C.3    21  LEU21       0.0022
     16  CD1       -9.9680   -9.2640   23.7980 C.3    21  LEU21       0.0001
     17  CD2      -11.8480  -10.2780   25.1200 C.3    21  LEU21       0.0001
     18  N         -5.0810  -12.6550   21.4470 N.3    24  ALA24      -0.1231
     19  CA        -4.3120  -11.5060   21.9510 C.3    24  ALA24       0.1694
     20  C         -3.5580  -11.7350   23.2630 C.2    24  ALA24       0.2592
     21  O         -2.5660  -11.0600   23.5290 O.2    24  ALA24      -0.2718
     22  CB        -5.2140  -10.2860   22.0830 C.3    24  ALA24       0.0304
     23  N         -4.0440  -12.6510   24.0960 N.am   25  TYR25      -0.1962
     24  CA        -3.3840  -12.9640   25.3640 C.3    25  TYR25       0.1771
     25  C         -2.9300  -14.4270   25.3920 C.2    25  TYR25       0.2620
     26  O         -3.5790  -15.2910   24.8070 O.2    25  TYR25      -0.2715
     27  CB        -4.3200  -12.7020   26.5450 C.3    25  TYR25       0.0574
     28  CG        -4.7860  -11.2690   26.7280 C.ar   25  TYR25      -0.0198
     29  CD1       -4.0630  -10.3710   27.5210 C.ar   25  TYR25      -0.0009
     30  CD2       -5.9710  -10.8240   26.1440 C.ar   25  TYR25      -0.0009
     31  CE1       -4.5000   -9.0650   27.7150 C.ar   25  TYR25       0.0417
     32  CE2       -6.4160   -9.5200   26.3220 C.ar   25  TYR25       0.0417
     33  CZ        -5.6840   -8.6450   27.1110 C.ar   25  TYR25       0.1957
     34  OH        -6.1450   -7.3580   27.2880 O.3    25  TYR25      -0.2866
     35  N         -1.8250  -14.6970   26.0820 N.am   26  GLY26      -0.1954
     36  CA        -1.2380  -16.0470   26.1120 C.3    26  GLY26       0.1869
     37  C         -2.0220  -17.0560   26.9320 C.2    26  GLY26       0.2309
     38  O         -2.4030  -18.1190   26.4320 O.2    26  GLY26      -0.2863
     39  N         -0.9450  -14.7850   32.4750 N.3    30  ASP30      -0.1239
     40  CA        -0.5590  -13.4240   32.1120 C.3    30  ASP30       0.1674
     41  C         -1.2400  -12.4280   33.0530 C.2    30  ASP30       0.2266
     42  O         -2.4740  -12.3180   33.0660 O.2    30  ASP30      -0.2867
     43  CB        -0.9170  -13.1610   30.6420 C.3    30  ASP30       0.1410
     44  CG        -0.5240  -11.7660   30.1600 C.2    30  ASP30       0.3668
     45  OD1        0.1490  -10.9990   30.8860 O.co2  30  ASP30      -0.2456
     46  OD2       -0.9040  -11.4360   29.0170 O.co2  30  ASP30      -0.2456
     47  N         -1.3940   -9.2570   32.9380 N.3    32  VAL32      -0.1245
     48  CA        -2.0390   -8.1510   32.2310 C.3    32  VAL32       0.1561
     49  C         -3.4880   -8.5120   31.8990 C.2    32  VAL32       0.2260
     50  O         -4.3710   -7.6570   31.9520 O.2    32  VAL32      -0.2867
     51  CB        -1.2590   -7.7450   30.9540 C.3    32  VAL32       0.0252
     52  CG1       -1.8840   -6.5180   30.2970 C.3    32  VAL32       0.0019
     53  CG2        0.2070   -7.4670   31.2840 C.3    32  VAL32       0.0019
     54  N         -6.7090   -6.4910   32.8450 N.3    36  ASP36      -0.1239
     55  CA        -7.5930   -5.9480   31.7980 C.3    36  ASP36       0.1674
     56  C         -9.0530   -6.4170   31.8430 C.2    36  ASP36       0.2266
     57  O         -9.9110   -5.8100   31.1990 O.2    36  ASP36      -0.2867
     58  CB        -7.0280   -6.2480   30.4050 C.3    36  ASP36       0.1410
     59  CG        -5.7450   -5.4890   30.1070 C.2    36  ASP36       0.3668
     60  OD1       -5.3850   -4.5650   30.8750 O.co2  36  ASP36      -0.2456
     61  OD2       -5.0850   -5.8310   29.1040 O.co2  36  ASP36      -0.2456
     62  N        -12.2230   -4.0030   31.9920 N.3    39  ARG39      -0.1231
     63  CA       -12.2740   -3.1520   30.7960 C.3    39  ARG39       0.1694
     64  C        -12.6830   -3.9600   29.5580 C.2    39  ARG39       0.2591
     65  O        -13.5170   -3.5150   28.7600 O.2    39  ARG39      -0.2718
     66  CB       -10.9390   -2.4200   30.5670 C.3    39  ARG39       0.0321
     67  CG       -10.9560   -1.5050   29.3490 C.3    39  ARG39       0.0489
     68  CD        -9.7870   -0.5270   29.3110 C.3    39  ARG39       0.2205
     69  NE        -8.4740   -1.1330   29.5490 N.pl3  39  ARG39      -0.0865
     70  CZ        -7.6970   -1.6880   28.6190 C.cat  39  ARG39       0.5346
     71  NH1       -8.0870   -1.7600   27.3490 N.pl3  39  ARG39       0.1354
     72  NH2       -6.5180   -2.1860   28.9640 N.pl3  39  ARG39       0.1354
     73  N        -12.1080   -5.1510   29.4200 N.am   40  LEU40      -0.1980
     74  CA       -12.4580   -6.0820   28.3350 C.3    40  LEU40       0.1596
     75  C        -13.9240   -6.4960   28.3630 C.2    40  LEU40       0.2287
     76  O        -14.5490   -6.6470   27.3160 O.2    40  LEU40      -0.2864
     77  CB       -11.5920   -7.3300   28.4300 C.3    40  LEU40       0.0297
     78  CG       -10.2870   -7.4760   27.6620 C.3    40  LEU40       0.0022
     79  CD1       -9.6400   -6.1640   27.2380 C.3    40  LEU40       0.0001
     80  CD2       -9.3340   -8.3500   28.4670 C.3    40  LEU40       0.0001
     81  N        -16.6340   -4.5590   26.5950 N.3    43  ARG43      -0.1245
     82  CA       -16.8020   -4.7860   25.1520 C.3    43  ARG43       0.1563
     83  C        -17.8950   -5.8170   24.8430 C.2    43  ARG43       0.2260
     84  O        -18.2120   -6.0590   23.6850 O.2    43  ARG43      -0.2867
     85  CB       -15.4660   -5.1840   24.5160 C.3    43  ARG43       0.0307
     86  CG       -14.3720   -4.1380   24.7090 C.3    43  ARG43       0.0489
     87  CD       -13.0070   -4.6150   24.2440 C.3    43  ARG43       0.2205
     88  NE       -12.9810   -4.8670   22.8050 N.pl3  43  ARG43      -0.0865
     89  CZ       -11.9800   -5.4750   22.1660 C.cat  43  ARG43       0.5346
     90  NH1      -10.9090   -5.8980   22.8300 N.pl3  43  ARG43       0.1354
     91  NH2      -12.0550   -5.6630   20.8560 N.pl3  43  ARG43       0.1354
@<TRIPOS>BOND
     1     9     7   ar
     2     5     6    1
     3     5     2    1
     4     6     7    1
     5     7     8   ar
     6     2     1    1
     7     2     3    1
     8     4     3    2
     9     3    10   am
    10    91    89    1
    11    18    19    1
    12    10    11    1
    13    19    22    1
    14    19    20    1
    15    89    88    2
    16    89    90    1
    17    88    87    1
    18    11    12    1
    19    11    14    1
    20    20    21    2
    21    20    23   am
    22    12    13    2
    23    84    83    2
    24    16    15    1
    25    23    24    1
    26    87    86    1
    27    14    15    1
    28    85    86    1
    29    85    82    1
    30    15    17    1
    31    26    25    2
    32    83    82    1
    33    82    81    1
    34    24    25    1
    35    24    27    1
    36    25    35   am
    37    35    36    1
    38    36    37    1
    39    30    32   ar
    40    30    28   ar
    41    32    33   ar
    42    38    37    2
    43    27    28    1
    44    28    29   ar
    45    33    34    1
    46    33    31   ar
    47    79    78    1
    48    76    75    2
    49    71    70    1
    50    29    31   ar
    51    78    77    1
    52    78    80    1
    53    74    75    1
    54    74    77    1
    55    74    73    1
    56    70    72    1
    57    70    69    2
    58    65    64    2
    59    46    44   ar
    60    61    59   ar
    61    68    67    1
    62    68    69    1
    63    67    66    1
    64    73    64   am
    65    64    63    1
    66    59    58    1
    67    59    60   ar
    68    44    43    1
    69    44    45   ar
    70    52    51    1
    71    58    55    1
    72    66    63    1
    73    43    40    1
    74    63    62    1
    75    51    53    1
    76    51    48    1
    77    57    56    2
    78    55    56    1
    79    55    54    1
    80    49    50    2
    81    49    48    1
    82    40    39    1
    83    40    41    1
    84    48    47    1
    85    41    42    2
