@<TRIPOS>MOLECULE
tmp/4m2fC00.pdb
 170 163 0 0 0
SMALL
GASTEIGER

@<TRIPOS>ATOM
      1  N        -37.2850    4.8000    8.9440 N.3   115  GLN115     -0.1231
      2  CA       -37.7120    6.1810    8.7120 C.3   115  GLN115      0.1698
      3  C        -38.2160    6.3680    7.2860 C.2   115  GLN115      0.2592
      4  O        -37.5470    5.9760    6.3310 O.2   115  GLN115     -0.2718
      5  CB       -36.5850    7.1840    9.0140 C.3   115  GLN115      0.0381
      6  CG       -37.0660    8.6320    9.0760 C.3   115  GLN115      0.0905
      7  CD       -35.9540    9.6530    9.2500 C.2   115  GLN115      0.2608
      8  OE1      -34.8230    9.3170    9.6150 O.2   115  GLN115     -0.2717
      9  NE2      -36.2800   10.9200    8.9970 N.am  115  GLN115     -0.0878
     10  N        -39.4010    6.9670    7.1610 N.am  116  GLN116     -0.1979
     11  CA       -40.0250    7.3000    5.8620 C.3   116  GLN116      0.1601
     12  C        -40.0830    6.1540    4.8260 C.2   116  GLN116      0.2287
     13  O        -39.9810    6.3820    3.6090 O.2   116  GLN116     -0.2864
     14  CB       -39.4070    8.5750    5.2620 C.3   116  GLN116      0.0394
     15  CG       -39.8370    9.8570    5.9630 C.3   116  GLN116      0.0908
     16  CD       -39.5420   11.1060    5.1540 C.2   116  GLN116      0.2608
     17  OE1      -39.9020   11.2050    3.9790 O.2   116  GLN116     -0.2717
     18  NE2      -38.8910   12.0780    5.7880 N.am  116  GLN116     -0.0878
     19  N        -39.4910   16.8460    3.0620 N.3   124  ILE124     -0.1245
     20  CA       -39.7220   17.7780    4.1470 C.3   124  ILE124      0.1561
     21  C        -40.7720   18.7600    3.6240 C.2   124  ILE124      0.2260
     22  O        -40.4630   19.6820    2.8700 O.2   124  ILE124     -0.2867
     23  CB       -38.4250   18.5000    4.6070 C.3   124  ILE124      0.0252
     24  CG1      -37.4070   17.4940    5.1590 C.3   124  ILE124      0.0019
     25  CG2      -38.7340   19.5630    5.6650 C.3   124  ILE124      0.0019
     26  CD1      -36.0050   18.0510    5.3380 C.3   124  ILE124      0.0001
     27  N        -42.0060   17.3740   16.9710 N.3   134  GLN134     -0.1231
     28  CA       -40.5860   17.6310   16.7390 C.3   134  GLN134      0.1698
     29  C        -40.0930   16.8340   15.5250 C.2   134  GLN134      0.2592
     30  O        -39.2290   15.9550   15.6320 O.2   134  GLN134     -0.2718
     31  CB       -39.7550   17.3460   18.0010 C.3   134  GLN134      0.0381
     32  CG       -39.8470   18.4420   19.0560 C.3   134  GLN134      0.0905
     33  CD       -39.6530   19.8350   18.4750 C.2   134  GLN134      0.2608
     34  OE1      -40.5960   20.6260   18.3990 O.2   134  GLN134     -0.2717
     35  NE2      -38.4330   20.1320   18.0410 N.am  134  GLN134     -0.0878
     36  N        -40.6730   17.1610   14.3710 N.am  135  LEU135     -0.1966
     37  CA       -40.3650   16.5040   13.1080 C.3   135  LEU135      0.1728
     38  C        -40.2600   17.5260   11.9830 C.2   135  LEU135      0.2617
     39  O        -40.8270   18.6210   12.0690 O.2   135  LEU135     -0.2715
     40  CB       -41.4380   15.4610   12.7580 C.3   135  LEU135      0.0311
     41  CG       -41.6050   14.2190   13.6430 C.3   135  LEU135      0.0022
     42  CD1      -42.8220   13.4140   13.2140 C.3   135  LEU135      0.0001
     43  CD2      -40.3510   13.3510   13.6410 C.3   135  LEU135      0.0001
     44  N        -39.5330   17.1550   10.9290 N.am  136  GLY136     -0.1940
     45  CA       -39.4220   17.9750    9.7230 C.3   136  GLY136      0.2014
     46  C        -40.7690   18.2980    9.0950 C.2   136  GLY136      0.2638
     47  O        -40.9060   19.3150    8.4220 O.2   136  GLY136     -0.2714
     48  N        -41.7610   17.4370    9.3350 N.am  137  MET137     -0.1976
     49  CA       -43.1240   17.6020    8.8030 C.3   137  MET137      0.1605
     50  C        -43.9650   18.5900    9.6150 C.2   137  MET137      0.2287
     51  O        -45.1260   18.8360    9.2850 O.2   137  MET137     -0.2864
     52  CB       -43.8600   16.2560    8.7440 C.3   137  MET137      0.0413
     53  CG       -43.0470   15.0830    8.2200 C.3   137  MET137      0.0598
     54  SD       -42.5640   15.2270    6.4890 S.3   137  MET137     -0.1393
     55  CE       -41.8970   13.5830    6.2470 C.3   137  MET137      0.0692
     56  N        -38.6780   23.6470   15.4440 N.3   143  LEU143     -0.1231
     57  CA       -37.8730   22.4310   15.3340 C.3   143  LEU143      0.1693
     58  C        -36.5740   22.6760   16.0950 C.2   143  LEU143      0.2592
     59  O        -35.6240   23.2760   15.5600 O.2   143  LEU143     -0.2718
     60  CB       -37.5900   22.0550   13.8740 C.3   143  LEU143      0.0284
     61  CG       -36.8100   20.7570   13.5940 C.3   143  LEU143      0.0019
     62  CD1      -37.6300   19.5230   13.9430 C.3   143  LEU143      0.0001
     63  CD2      -36.3690   20.7050   12.1350 C.3   143  LEU143      0.0001
     64  N        -36.5600   22.2360   17.3560 N.am  144  THR144     -0.1953
     65  CA       -35.4110   22.4080   18.2310 C.3   144  THR144      0.1897
     66  C        -34.2240   21.8050   17.5110 C.2   144  THR144      0.2313
     67  O        -34.3360   20.7620   16.8500 O.2   144  THR144     -0.2863
     68  CB       -35.5890   21.6990   19.5900 C.3   144  THR144      0.1794
     69  OG1      -35.6410   20.2800   19.3900 O.3   144  THR144     -0.2208
     70  CG2      -36.8610   22.1620   20.2990 C.3   144  THR144      0.0378
     71  N        -30.6590   20.0570   16.4310 N.3   146  HIS146     -0.1226
     72  CA       -30.0970   18.7480   16.7280 C.3   146  HIS146      0.1752
     73  C        -29.1560   18.3340   15.6390 C.2   146  HIS146      0.2597
     74  O        -29.2290   18.8290   14.5070 O.2   146  HIS146     -0.2718
     75  CB       -31.2060   17.7100   16.8210 C.3   146  HIS146      0.0759
     76  CG       -31.9970   17.5960   15.5530 C.ar  146  HIS146      0.0818
     77  ND1      -32.9640   18.4690   15.2340 N.ar  146  HIS146     -0.2268
     78  CD2      -31.8760   16.7280   14.4770 C.ar  146  HIS146      0.1154
     79  CE1      -33.4720   18.1510   14.0260 C.ar  146  HIS146      0.1986
     80  NE2      -32.8040   17.0800   13.5690 N.ar  146  HIS146     -0.2212
     81  N        -28.2700   17.4130   15.9890 N.am  147  THR147     -0.1939
     82  CA       -27.5310   16.5920   15.0500 C.3   147  THR147      0.2028
     83  C        -28.5090   15.5580   14.5260 C.2   147  THR147      0.2642
     84  O        -29.2470   14.9800   15.3070 O.2   147  THR147     -0.2714
     85  CB       -26.4430   15.8190   15.8150 C.3   147  THR147      0.1808
     86  OG1      -25.6000   16.7600   16.4780 O.3   147  THR147     -0.2208
     87  CG2      -25.6290   14.9330   14.8970 C.3   147  THR147      0.0379
     88  N        -28.5140   15.3240   13.2150 N.am  148  GLU148     -0.1963
     89  CA       -29.3690   14.2890   12.6340 C.3   148  GLU148      0.1733
     90  C        -29.0090   12.8920   13.1480 C.2   148  GLU148      0.2616
     91  O        -27.8570   12.4560   13.0560 O.2   148  GLU148     -0.2715
     92  CB       -29.3380   14.3520   11.1000 C.3   148  GLU148      0.0429
     93  CG       -30.4870   13.6240   10.4090 C.3   148  GLU148      0.1163
     94  CD       -31.8450   14.3000   10.6060 C.2   148  GLU148      0.3649
     95  OE1      -31.9090   15.4390   11.1030 O.co2 148  GLU148     -0.2457
     96  OE2      -32.8670   13.6870   10.2470 O.co2 148  GLU148     -0.2457
     97  N        -30.0100   12.2080   13.7070 N.am  149  ASP149     -0.1971
     98  CA       -29.8520   10.8740   14.3050 C.3   149  ASP149      0.1709
     99  C        -28.7330   10.8060   15.3420 C.2   149  ASP149      0.2293
    100  O        -27.9190    9.8760   15.3480 O.2   149  ASP149     -0.2864
    101  CB       -29.6720    9.8150   13.2130 C.3   149  ASP149      0.1436
    102  CG       -30.8050    9.8410   12.2170 C.2   149  ASP149      0.3671
    103  OD1      -31.9370    9.5250   12.6340 O.co2 149  ASP149     -0.2456
    104  OD2      -30.5670   10.2170   11.0490 O.co2 149  ASP149     -0.2456
    105  N        -35.1650    9.6840   18.3970 N.3   200  ASP200     -0.1239
    106  CA       -36.2800   10.5960   18.0860 C.3   200  ASP200      0.1674
    107  C        -37.5110    9.8770   17.5160 C.2   200  ASP200      0.2266
    108  O        -37.4790    8.6640   17.2830 O.2   200  ASP200     -0.2867
    109  CB       -35.8170   11.7030   17.1210 C.3   200  ASP200      0.1410
    110  CG       -35.5560   11.1830   15.7130 C.2   200  ASP200      0.3668
    111  OD1      -36.5060   11.1450   14.8970 O.co2 200  ASP200     -0.2456
    112  OD2      -34.3990   10.8100   15.4230 O.co2 200  ASP200     -0.2456
    113  N        -39.1950   10.1560   14.5280 N.3   202  SER202     -0.1217
    114  CA       -39.2670    9.7640   13.1070 C.3   202  SER202      0.1889
    115  C        -38.9630    8.2750   12.9150 C.2   202  SER202      0.2288
    116  O        -39.3610    7.6790   11.9110 O.2   202  SER202     -0.2866
    117  CB       -38.3670   10.6370   12.2130 C.3   202  SER202      0.2089
    118  OG       -36.9850   10.4050   12.4430 O.3   202  SER202     -0.2183
    119  N        -28.5590   16.4720   20.7820 N.3   247  ASP247     -0.1239
    120  CA       -30.0040   16.4710   20.5840 C.3   247  ASP247      0.1674
    121  C        -30.6450   16.7640   21.9400 C.2   247  ASP247      0.2266
    122  O        -31.0400   15.8330   22.6580 O.2   247  ASP247     -0.2867
    123  CB       -30.4750   15.1310   20.0240 C.3   247  ASP247      0.1410
    124  CG       -31.9080   15.1720   19.5070 C.2   247  ASP247      0.3668
    125  OD1      -32.6660   16.1060   19.8380 O.co2 247  ASP247     -0.2456
    126  OD2      -32.2750   14.2440   18.7620 O.co2 247  ASP247     -0.2456
    127  N        -33.4690   17.9580   23.0970 N.3   249  TYR249     -0.1227
    128  CA       -34.8210   17.4630   23.3890 C.3   249  TYR249      0.1736
    129  C        -34.8050   16.0180   23.8930 C.2   249  TYR249      0.2595
    130  O        -35.6510   15.6290   24.6860 O.2   249  TYR249     -0.2718
    131  CB       -35.7310   17.6230   22.1650 C.3   249  TYR249      0.0548
    132  CG       -37.2210   17.4960   22.4490 C.ar  249  TYR249     -0.0200
    133  CD1      -37.9000   18.4560   23.1930 C.ar  249  TYR249     -0.0009
    134  CD2      -37.9460   16.4230   21.9490 C.ar  249  TYR249     -0.0009
    135  CE1      -39.2640   18.3370   23.4420 C.ar  249  TYR249      0.0417
    136  CE2      -39.3020   16.2970   22.1840 C.ar  249  TYR249      0.0417
    137  CZ       -39.9570   17.2520   22.9260 C.ar  249  TYR249      0.1957
    138  OH       -41.3050   17.0980   23.1600 O.3   249  TYR249     -0.2866
    139  N        -33.8120   15.2460   23.4610 N.am  250  PHE250     -0.1976
    140  CA       -33.7390   13.8280   23.7870 C.3   250  PHE250      0.1639
    141  C        -32.5540   13.4800   24.6840 C.2   250  PHE250      0.2290
    142  O        -32.1140   12.3310   24.7140 O.2   250  PHE250     -0.2864
    143  CB       -33.7280   12.9830   22.4970 C.3   250  PHE250      0.0560
    144  CG       -35.0400   13.0020   21.7640 C.ar  250  PHE250     -0.0200
    145  CD1      -36.0890   12.1900   22.1770 C.ar  250  PHE250     -0.0042
    146  CD2      -35.2360   13.8540   20.6800 C.ar  250  PHE250     -0.0042
    147  CE1      -37.3130   12.2150   21.5150 C.ar  250  PHE250     -0.0003
    148  CE2      -36.4550   13.8800   20.0080 C.ar  250  PHE250     -0.0003
    149  CZ       -37.4960   13.0590   20.4300 C.ar  250  PHE250     -0.0000
    150  N        -28.8590   21.5250   13.3060 N.3   295  HIS295     -0.1241
    151  CA       -29.8100   22.2310   12.4580 C.3   295  HIS295      0.1621
    152  C        -31.1770   22.1230   13.0400 C.2   295  HIS295      0.2264
    153  O        -31.4780   21.1860   13.7810 O.2   295  HIS295     -0.2867
    154  CB       -29.7970   21.6610   11.0400 C.3   295  HIS295      0.0745
    155  CG       -30.3590   20.2750   10.9540 C.ar  295  HIS295      0.0817
    156  ND1      -29.6540   19.1920   11.3190 N.ar  295  HIS295     -0.2268
    157  CD2      -31.6180   19.8190   10.5730 C.ar  295  HIS295      0.1154
    158  CE1      -30.4120   18.0940   11.1780 C.ar  295  HIS295      0.1986
    159  NE2      -31.6210   18.4790   10.7240 N.ar  295  HIS295     -0.2212
    160  N        -34.4210   15.6930    1.2140 N.3   313  ARG313     -0.1245
    161  CA       -33.2660   15.4090    2.0580 C.3   313  ARG313      0.1563
    162  C        -32.6170   14.0950    1.6720 C.2   313  ARG313      0.2260
    163  O        -33.2930   13.0750    1.5630 O.2   313  ARG313     -0.2867
    164  CB       -33.6460   15.3620    3.5450 C.3   313  ARG313      0.0307
    165  CG       -32.5000   14.8890    4.4450 C.3   313  ARG313      0.0489
    166  CD       -32.9900   14.0940    5.6500 C.3   313  ARG313      0.2205
    167  NE       -33.5670   14.9760    6.6490 N.pl3 313  ARG313     -0.0865
    168  CZ       -34.6210   14.6870    7.4080 C.cat 313  ARG313      0.5346
    169  NH1      -35.2390   13.5160    7.3000 N.pl3 313  ARG313      0.1354
    170  NH2      -35.0650   15.5900    8.2750 N.pl3 313  ARG313      0.1354
@<TRIPOS>BOND
     1   160   161    1
     2   163   162    2
     3   162   161    1
     4   161   164    1
     5    22    21    2
     6    19    20    1
     7   164   165    1
     8    13    12    2
     9    21    20    1
    10    17    16    2
    11    20    23    1
    12   165   166    1
    13    23    24    1
    14    23    25    1
    15    12    11    1
    16    16    18   am
    17    16    15    1
    18    24    26    1
    19    14    11    1
    20    14    15    1
    21   166   167    1
    22    11    10    1
    23    55    54    1
    24     4     3    2
    25    54    53    1
    26   167   168    2
    27    10     3   am
    28     3     2    1
    29   169   168    1
    30   168   170    1
    31    53    52    1
    32    47    46    2
    33     2     1    1
    34     2     5    1
    35    52    49    1
    36    49    48    1
    37    49    50    1
    38     9     7   am
    39     5     6    1
    40     6     7    1
    41    46    48   am
    42    46    45    1
    43     7     8    2
    44    51    50    2
    45    45    44    1
    46    96    94   ar
    47    93    94    1
    48    93    92    1
    49   157   159   ar
    50   157   155   ar
    51    94    95   ar
    52   159   158   ar
    53    44    38   am
    54   155   154    1
    55   155   156   ar
    56   154   151    1
    57   104   102   ar
    58    92    89    1
    59   158   156   ar
    60   116   115    2
    61    38    39    2
    62    38    37    1
    63    63    61    1
    64   117   118    1
    65   117   114    1
    66   102   103   ar
    67   102   101    1
    68   151   152    1
    69   151   150    1
    70    89    90    1
    71    89    88    1
    72    40    37    1
    73    40    41    1
    74   115   114    1
    75   152   153    2
    76    91    90    2
    77   114   113    1
    78    37    36    1
    79    90    97   am
    80   101    98    1
    81    42    41    1
    82    88    83   am
    83    80    79   ar
    84    80    78   ar
    85    61    60    1
    86    61    62    1
    87    43    41    1
    88    97    98    1
    89    60    57    1
    90    79    77   ar
    91    98    99    1
    92    36    29   am
    93    78    76   ar
    94    74    73    2
    95    83    82    1
    96    83    84    2
    97   111   110   ar
    98    87    85    1
    99    82    85    1
   100    82    81    1
   101    77    76   ar
   102    57    56    1
   103    57    58    1
   104    99   100    2
   105   112   110   ar
   106    29    30    2
   107    29    28    1
   108    76    75    1
   109    59    58    2
   110    73    81   am
   111    73    72    1
   112   110   109    1
   113    85    86    1
   114    58    64   am
   115    71    72    1
   116    72    75    1
   117    28    27    1
   118    28    31    1
   119    67    66    2
   120   109   106    1
   121   108   107    2
   122    64    65    1
   123    66    65    1
   124   107   106    1
   125    31    32    1
   126    35    33   am
   127   106   105    1
   128    65    68    1
   129    34    33    2
   130    33    32    1
   131   126   124   ar
   132    69    68    1
   133   124   125   ar
   134   124   123    1
   135    68    70    1
   136   148   149   ar
   137   148   146   ar
   138   123   120    1
   139   149   147   ar
   140   120   119    1
   141   120   121    1
   142   146   144   ar
   143   147   145   ar
   144   144   145   ar
   145   144   143    1
   146   121   122    2
   147   134   136   ar
   148   134   132   ar
   149   131   132    1
   150   131   128    1
   151   136   137   ar
   152   132   133   ar
   153   143   140    1
   154   137   138    1
   155   137   135   ar
   156   127   128    1
   157   133   135   ar
   158   128   129    1
   159   139   140    1
   160   139   129   am
   161   140   141    1
   162   129   130    2
   163   141   142    2
