@<TRIPOS>MOLECULE
tmp/4m2kA00.pdb
 132 120 0 0 0
SMALL
GASTEIGER

@<TRIPOS>ATOM
      1  N         22.9310  -38.5500   -0.5450 N.3    13  LEU13      -0.1231
      2  CA        21.7250  -37.7400   -0.3030 C.3    13  LEU13       0.1693
      3  C         21.9750  -36.2300   -0.4120 C.2    13  LEU13       0.2591
      4  O         21.3030  -35.5200   -1.1760 O.2    13  LEU13      -0.2718
      5  CB        21.1300  -38.0660    1.0810 C.3    13  LEU13       0.0284
      6  CG        19.9290  -37.2400    1.5680 C.3    13  LEU13       0.0019
      7  CD1       18.7350  -37.4280    0.6430 C.3    13  LEU13       0.0001
      8  CD2       19.5590  -37.6060    3.0110 C.3    13  LEU13       0.0001
      9  N         22.9340  -35.7440    0.3640 N.am   14  GLU14      -0.1979
     10  CA        23.2300  -34.3230    0.4070 C.3    14  GLU14       0.1602
     11  C         23.8550  -33.7840   -0.8800 C.2    14  GLU14       0.2287
     12  O         23.6030  -32.6390   -1.2430 O.2    14  GLU14      -0.2864
     13  CB        24.1040  -34.0000    1.6360 C.3    14  GLU14       0.0415
     14  CG        23.6940  -34.7750    2.9040 C.3    14  GLU14       0.1163
     15  CD        22.2930  -34.4100    3.4050 C.2    14  GLU14       0.3649
     16  OE1       21.7670  -35.1220    4.3160 O.co2  14  GLU14      -0.2457
     17  OE2       21.7090  -33.4090    2.8900 O.co2  14  GLU14      -0.2457
     18  N         11.8140  -35.9590    2.8950 N.3    31  SER31      -0.1217
     19  CA        11.3260  -36.7750    4.0090 C.3    31  SER31       0.1889
     20  C         10.5960  -35.9410    5.0520 C.2    31  SER31       0.2288
     21  O         10.2210  -36.4580    6.1030 O.2    31  SER31      -0.2866
     22  CB        12.4550  -37.5730    4.6840 C.3    31  SER31       0.2089
     23  OG        13.3200  -36.7210    5.4060 O.3    31  SER31      -0.2183
     24  N         19.7340  -28.7900   14.9230 N.3    89  GLY89      -0.1210
     25  CA        19.1300  -29.9690   14.2660 C.3    89  GLY89       0.1956
     26  C         19.4110  -31.2460   15.0590 C.2    89  GLY89       0.2613
     27  O         20.2220  -31.2380   16.0080 O.2    89  GLY89      -0.2717
     28  N         18.7390  -32.3480   14.7090 N.am   90  SER90      -0.1938
     29  CA        19.1200  -33.6380   15.2860 C.3    90  SER90       0.2055
     30  C         20.4800  -34.0760   14.7150 C.2    90  SER90       0.2643
     31  O         21.1410  -34.9200   15.2870 O.2    90  SER90      -0.2714
     32  CB        18.0580  -34.7250   15.0600 C.3    90  SER90       0.2130
     33  OG        17.8860  -34.9910   13.6880 O.3    90  SER90      -0.2179
     34  N         20.9020  -33.5100   13.5850 N.am   91  SER91      -0.1949
     35  CA        22.2230  -33.8600   13.0660 C.3    91  SER91       0.1924
     36  C         23.3160  -33.6550   14.1460 C.2    91  SER91       0.2314
     37  O         24.1830  -34.5150   14.3290 O.2    91  SER91      -0.2863
     38  CB        22.5640  -33.0110   11.8420 C.3    91  SER91       0.2116
     39  OG        21.6560  -33.2810   10.7990 O.3    91  SER91      -0.2180
     40  N         23.0450  -36.2270   17.0440 N.3    94  ILE94      -0.1245
     41  CA        23.6180  -37.5120   16.5980 C.3    94  ILE94       0.1561
     42  C         25.1540  -37.4740   16.7110 C.2    94  ILE94       0.2260
     43  O         25.7620  -38.3770   17.3160 O.2    94  ILE94      -0.2867
     44  CB        23.1540  -37.8510   15.1540 C.3    94  ILE94       0.0252
     45  CG1       21.6410  -38.1980   15.1460 C.3    94  ILE94       0.0019
     46  CG2       23.9920  -38.9830   14.5550 C.3    94  ILE94       0.0019
     47  CD1       21.0270  -38.2210   13.7440 C.3    94  ILE94       0.0001
     48  N         19.6560  -43.6940    7.8180 N.3   115  TYR115     -0.1241
     49  CA        20.1180  -42.3550    7.5050 C.3   115  TYR115      0.1605
     50  C         21.6650  -42.2590    7.6090 C.2   115  TYR115      0.2264
     51  O         22.2570  -42.7090    8.6060 O.2   115  TYR115     -0.2867
     52  CB        19.4210  -41.3620    8.4450 C.3   115  TYR115      0.0534
     53  CG        19.8410  -39.9310    8.2410 C.ar  115  TYR115     -0.0201
     54  CD1       19.4760  -39.2420    7.0810 C.ar  115  TYR115     -0.0009
     55  CD2       20.5930  -39.2570    9.2060 C.ar  115  TYR115     -0.0009
     56  CE1       19.8610  -37.9270    6.8790 C.ar  115  TYR115      0.0417
     57  CE2       20.9860  -37.9310    9.0110 C.ar  115  TYR115      0.0417
     58  CZ        20.6230  -37.2780    7.8390 C.ar  115  TYR115      0.1957
     59  OH        20.9970  -35.9630    7.6110 O.3   115  TYR115     -0.2866
     60  N         15.9670  -46.2020   13.0600 N.3   161  ASN161     -0.1240
     61  CA        15.1680  -45.0200   12.7840 C.3   161  ASN161      0.1653
     62  C         13.7540  -45.4690   12.4050 C.2   161  ASN161      0.2266
     63  O         13.5750  -46.0800   11.3630 O.2   161  ASN161     -0.2867
     64  CB        15.8110  -44.2440   11.6390 C.3   161  ASN161      0.1155
     65  CG        14.9390  -43.1230   11.1200 C.2   161  ASN161      0.2627
     66  OD1       14.3230  -42.3440   11.8870 O.2   161  ASN161     -0.2716
     67  ND2       14.8930  -43.0190    9.8350 N.am  161  ASN161     -0.0877
     68  N         13.2240  -43.3840    7.3790 N.3   165  ASN165     -0.1240
     69  CA        13.4980  -42.6090    6.1610 C.3   165  ASN165      0.1653
     70  C         14.3960  -43.5080    5.3220 C.2   165  ASN165      0.2266
     71  O         15.4990  -43.7880    5.7500 O.2   165  ASN165     -0.2867
     72  CB        14.2280  -41.3050    6.5730 C.3   165  ASN165      0.1155
     73  CG        14.8130  -40.5250    5.4040 C.2   165  ASN165      0.2627
     74  OD1       14.6420  -40.8570    4.2310 O.2   165  ASN165     -0.2716
     75  ND2       15.5200  -39.4530    5.7390 N.am  165  ASN165     -0.0877
     76  N         16.2640  -43.0530   16.5440 N.3   193  ASP193     -0.1239
     77  CA        16.0120  -41.8210   15.8210 C.3   193  ASP193      0.1674
     78  C         14.5170  -41.6860   15.4960 C.2   193  ASP193      0.2266
     79  O         13.9840  -42.3700   14.5970 O.2   193  ASP193     -0.2867
     80  CB        16.8630  -41.7310   14.5490 C.3   193  ASP193      0.1410
     81  CG        16.7560  -40.3580   13.8600 C.2   193  ASP193      0.3668
     82  OD1       15.7280  -39.6360   14.0140 O.co2 193  ASP193     -0.2456
     83  OD2       17.7140  -40.0030   13.1460 O.co2 193  ASP193     -0.2456
     84  N         12.8370  -38.9400   14.2390 N.3   195  ALA195     -0.1245
     85  CA        12.6090  -37.7160   13.4250 C.3   195  ALA195      0.1562
     86  C         11.1440  -37.5320   12.9970 C.2   195  ALA195      0.2260
     87  O         10.6060  -36.4260   13.0910 O.2   195  ALA195     -0.2867
     88  CB        13.5110  -37.6870   12.1920 C.3   195  ALA195      0.0290
     89  N         13.5890  -33.8510   16.1490 N.3   221  THR221     -0.1218
     90  CA        13.9270  -32.6310   15.4350 C.3   221  THR221      0.1862
     91  C         12.6370  -31.8730   15.1080 C.2   221  THR221      0.2287
     92  O         11.5510  -32.4770   15.0890 O.2   221  THR221     -0.2866
     93  CB        14.7550  -32.9340   14.1590 C.3   221  THR221      0.1770
     94  OG1       14.9600  -31.7350   13.4220 O.3   221  THR221     -0.2211
     95  CG2       14.0810  -33.9650   13.2620 C.3   221  THR221      0.0375
     96  N         12.6090  -30.5880   12.2630 N.3   223  SER223     -0.1202
     97  CA        12.8230  -30.5050   10.8140 C.3   223  SER223      0.2020
     98  C         11.8500  -31.2280    9.8830 C.2   223  SER223      0.2618
     99  O         11.6960  -30.8210    8.7300 O.2   223  SER223     -0.2717
    100  CB        14.2270  -30.9900   10.4530 C.3   223  SER223      0.2103
    101  OG        15.2030  -30.1310   10.9850 O.3   223  SER223     -0.2182
    102  N         11.2400  -32.3110   10.3620 N.am  224  LYS224     -0.1979
    103  CA        10.5120  -33.2240    9.4730 C.3   224  LYS224      0.1596
    104  C          8.9830  -33.2490    9.6380 C.2   224  LYS224      0.2287
    105  O          8.2650  -33.4540    8.6550 O.2   224  LYS224     -0.2864
    106  CB        11.1160  -34.6380    9.5500 C.3   224  LYS224      0.0298
    107  CG        12.6120  -34.6920    9.2210 C.3   224  LYS224      0.0038
    108  CD        12.8570  -34.3040    7.7630 C.3   224  LYS224      0.0206
    109  CE        14.3330  -34.0920    7.4400 C.3   224  LYS224      0.1093
    110  NZ        14.5740  -33.4120    6.1230 N.3   224  LYS224     -0.1314
    111  N         16.6360  -25.1920   12.5050 N.3   232  ARG232     -0.1245
    112  CA        17.8760  -25.8910   12.9270 C.3   232  ARG232      0.1563
    113  C         17.8390  -26.1690   14.4350 C.2   232  ARG232      0.2260
    114  O         18.7300  -25.7600   15.1990 O.2   232  ARG232     -0.2867
    115  CB        19.1610  -25.1130   12.5110 C.3   232  ARG232      0.0307
    116  CG        19.3380  -24.7900   11.0030 C.3   232  ARG232      0.0489
    117  CD        20.0230  -25.9560   10.2560 C.3   232  ARG232      0.2205
    118  NE        19.0520  -26.9480   10.2530 N.pl3 232  ARG232     -0.0865
    119  CZ        19.1220  -28.2530   10.4150 C.cat 232  ARG232      0.5346
    120  NH1       20.2280  -29.0130   10.5680 N.pl3 232  ARG232      0.1354
    121  NH2       17.9260  -28.7740   10.3970 N.pl3 232  ARG232      0.1354
    122  N         13.2810  -42.2210   -3.3760 N.3   357  ARG357     -0.1245
    123  CA        12.4190  -41.6570   -2.3450 C.3   357  ARG357      0.1563
    124  C         11.4330  -40.6560   -2.9350 C.2   357  ARG357      0.2260
    125  O         11.8160  -39.6980   -3.6050 O.2   357  ARG357     -0.2867
    126  CB        13.2290  -41.0180   -1.2000 C.3   357  ARG357      0.0307
    127  CG        12.3650  -40.4510   -0.0830 C.3   357  ARG357      0.0489
    128  CD        13.2270  -39.8760    1.0510 C.3   357  ARG357      0.2205
    129  NE        13.7630  -38.5440    0.7420 N.pl3 357  ARG357     -0.0865
    130  CZ        14.6580  -37.9050    1.5030 C.cat 357  ARG357      0.5346
    131  NH1       15.1210  -38.4890    2.6180 N.pl3 357  ARG357      0.1354
    132  NH2       15.0590  -36.6760    1.1730 N.pl3 357  ARG357      0.1354
@<TRIPOS>BOND
     1   125   124    2
     2   122   123    1
     3   124   123    1
     4   123   126    1
     5    12    11    2
     6   126   127    1
     7     4     3    2
     8    11    10    1
     9     1     2    1
    10     3     2    1
    11     3     9   am
    12     2     5    1
    13   127   128    1
    14     9    10    1
    15    10    13    1
    16     7     6    1
    17   129   128    1
    18   129   130    2
    19     5     6    1
    20   132   130    1
    21   130   131    1
    22     6     8    1
    23    13    14    1
    24    17    15   ar
    25    18    19    1
    26    14    15    1
    27    15    16   ar
    28    19    22    1
    29    19    20    1
    30    74    73    2
    31    22    23    1
    32    20    21    2
    33    70    71    2
    34    70    69    1
    35    73    75   am
    36    73    72    1
    37   110   109    1
    38    69    72    1
    39    69    68    1
    40    56    54   ar
    41    56    58   ar
    42    54    53   ar
    43   109   108    1
    44    49    50    1
    45    49    48    1
    46    49    52    1
    47    50    51    2
    48    59    58    1
    49   108   107    1
    50    58    57   ar
    51    53    52    1
    52    53    55   ar
    53   105   104    2
    54    99    98    2
    55    57    55   ar
    56   107   106    1
    57   103   106    1
    58   103   104    1
    59   103   102    1
    60    67    65   am
    61    98   102   am
    62    98    97    1
    63   118   117    1
    64   118   119    2
    65   117   116    1
    66   121   119    1
    67   119   120    1
    68   100    97    1
    69   100   101    1
    70    39    38    1
    71    97    96    1
    72   116   115    1
    73    65    64    1
    74    65    66    2
    75    63    62    2
    76    64    61    1
    77    38    35    1
    78    88    85    1
    79    62    61    1
    80   111   112    1
    81   115   112    1
    82    61    60    1
    83   112   113    1
    84    86    87    2
    85    86    85    1
    86    35    34    1
    87    35    36    1
    88    83    81   ar
    89    95    93    1
    90    94    93    1
    91    85    84    1
    92    34    30   am
    93    33    32    1
    94    47    45    1
    95    81    82   ar
    96    81    80    1
    97    36    37    2
    98    93    90    1
    99    25    24    1
   100    25    26    1
   101   113   114    2
   102    80    77    1
   103    46    44    1
   104    79    78    2
   105    28    26   am
   106    28    29    1
   107    30    29    1
   108    30    31    2
   109    26    27    2
   110    32    29    1
   111    92    91    2
   112    91    90    1
   113    45    44    1
   114    44    41    1
   115    90    89    1
   116    78    77    1
   117    77    76    1
   118    41    42    1
   119    41    40    1
   120    42    43    2
