@<TRIPOS>MOLECULE
tmp/4m2mA01.pdb
 94 88 0 0 0
SMALL
GASTEIGER

@<TRIPOS>ATOM
      1  N        -41.2560   19.6410   23.1310 N.3     9  LEU9       -0.1231
      2  CA       -40.4080   18.4880   22.7710 C.3     9  LEU9        0.1693
      3  C        -38.9600   18.6790   23.2350 C.2     9  LEU9        0.2591
      4  O        -38.3910   17.8090   23.8770 O.2     9  LEU9       -0.2718
      5  CB       -40.4510   18.2850   21.2530 C.3     9  LEU9        0.0284
      6  CG       -39.5460   17.2470   20.6270 C.3     9  LEU9        0.0019
      7  CD1      -39.7840   15.8580   21.2050 C.3     9  LEU9        0.0001
      8  CD2      -39.8050   17.2460   19.1250 C.3     9  LEU9        0.0001
      9  N        -38.3700   19.8220   22.8800 N.am   10  GLU10      -0.1979
     10  CA       -36.9450   20.0610   23.1560 C.3    10  GLU10       0.1602
     11  C        -36.7160   20.3330   24.6460 C.2    10  GLU10       0.2287
     12  O        -35.7110   19.8910   25.2260 O.2    10  GLU10      -0.2864
     13  CB       -36.4140   21.2300   22.2970 C.3    10  GLU10       0.0415
     14  CG       -36.9090   21.2000   20.8450 C.3    10  GLU10       0.1163
     15  CD       -36.3810   20.0100   20.0780 C.2    10  GLU10       0.3649
     16  OE1      -37.0230   19.6810   19.0280 O.co2  10  GLU10      -0.2457
     17  OE2      -35.3580   19.3730   20.5200 O.co2  10  GLU10      -0.2457
     18  N        -36.6400   16.9760   26.5090 N.3    13  TYR13      -0.1227
     19  CA       -35.3890   16.2680   26.3970 C.3    13  TYR13       0.1736
     20  C        -34.2960   16.9770   27.2140 C.2    13  TYR13       0.2595
     21  O        -33.5030   16.3110   27.8380 O.2    13  TYR13      -0.2718
     22  CB       -34.9780   16.0980   24.9470 C.3    13  TYR13       0.0548
     23  CG       -35.6270   14.9060   24.2370 C.ar   13  TYR13      -0.0200
     24  CD1      -35.7030   13.6660   24.8380 C.ar   13  TYR13      -0.0009
     25  CD2      -36.1110   15.0420   22.9300 C.ar   13  TYR13      -0.0009
     26  CE1      -36.2470   12.5730   24.1640 C.ar   13  TYR13       0.0417
     27  CE2      -36.6810   13.9750   22.2540 C.ar   13  TYR13       0.0417
     28  CZ       -36.7340   12.7390   22.8740 C.ar   13  TYR13       0.1957
     29  OH       -37.2800   11.6580   22.2190 O.3    13  TYR13      -0.2866
     30  N        -34.2940   18.3130   27.2500 N.am   14  ARG14      -0.1980
     31  CA       -33.2570   19.0140   28.0780 C.3    14  ARG14       0.1597
     32  C        -33.3610   18.5750   29.5270 C.2    14  ARG14       0.2287
     33  O        -32.3480   18.3890   30.2160 O.2    14  ARG14      -0.2864
     34  CB       -33.4090   20.5230   27.9910 C.3    14  ARG14       0.0334
     35  CG       -32.7130   21.1630   26.8120 C.3    14  ARG14       0.0492
     36  CD       -32.7940   22.6680   26.9310 C.3    14  ARG14       0.2205
     37  NE       -34.0890   23.2440   26.5350 N.pl3  14  ARG14      -0.0865
     38  CZ       -34.4470   23.4730   25.2710 C.cat  14  ARG14       0.5346
     39  NH1      -33.6190   23.1910   24.2480 N.pl3  14  ARG14       0.1354
     40  NH2      -35.6160   23.9930   25.0100 N.pl3  14  ARG14       0.1354
     41  N        -33.3070   13.6520   29.5010 N.3    17  LEU17      -0.1245
     42  CA       -32.2850   12.7440   29.0090 C.3    17  LEU17       0.1561
     43  C        -31.2690   12.5660   30.1140 C.2    17  LEU17       0.2260
     44  O        -30.9770   13.5120   30.8570 O.2    17  LEU17      -0.2867
     45  CB       -31.6220   13.2720   27.7490 C.3    17  LEU17       0.0270
     46  CG       -32.5100   13.2570   26.5120 C.3    17  LEU17       0.0019
     47  CD1      -31.8390   13.9570   25.3270 C.3    17  LEU17       0.0001
     48  CD2      -32.8760   11.8260   26.1180 C.3    17  LEU17       0.0001
     49  N        -37.8080    9.5010   17.6340 N.3    27  SER27      -0.1217
     50  CA       -38.3220    9.3520   16.2700 C.3    27  SER27       0.1889
     51  C        -37.2540    8.8370   15.3070 C.2    27  SER27       0.2288
     52  O        -37.5180    8.7210   14.1020 O.2    27  SER27      -0.2866
     53  CB       -39.0010   10.6400   15.7580 C.3    27  SER27       0.2089
     54  OG       -38.0500   11.6690   15.4620 O.3    27  SER27      -0.2183
     55  N        -44.2730   18.5930   13.2020 N.3   111  TYR111     -0.1241
     56  CA       -43.0590   18.9800   13.9190 C.3   111  TYR111      0.1605
     57  C        -43.0350   20.4730   14.1610 C.2   111  TYR111      0.2264
     58  O        -43.2770   21.2690   13.2470 O.2   111  TYR111     -0.2867
     59  CB       -41.8220   18.5270   13.1290 C.3   111  TYR111      0.0534
     60  CG       -40.5310   18.8460   13.7890 C.ar  111  TYR111     -0.0201
     61  CD1      -40.1640   18.2460   14.9950 C.ar  111  TYR111     -0.0009
     62  CD2      -39.6430   19.7280   13.1900 C.ar  111  TYR111     -0.0009
     63  CE1      -38.9460   18.5250   15.5880 C.ar  111  TYR111      0.0417
     64  CE2      -38.4450   20.0400   13.7920 C.ar  111  TYR111      0.0417
     65  CZ       -38.0970   19.4280   14.9920 C.ar  111  TYR111      0.1957
     66  OH       -36.8770   19.7390   15.5730 O.3   111  TYR111     -0.2866
     67  N        -44.0130   12.2020   12.1800 N.3   161  ASN161     -0.1240
     68  CA       -43.5590   12.2130   13.5840 C.3   161  ASN161      0.1653
     69  C        -44.6200   12.9790   14.3780 C.2   161  ASN161      0.2266
     70  O        -44.8130   14.2000   14.1620 O.2   161  ASN161     -0.2867
     71  CB       -42.2140   12.9730   13.6340 C.3   161  ASN161      0.1155
     72  CG       -41.7440   13.2180   15.0490 C.2   161  ASN161      0.2627
     73  OD1      -42.2840   12.6610   16.0210 O.2   161  ASN161     -0.2716
     74  ND2      -40.7860   14.1270   15.1900 N.am  161  ASN161     -0.0877
     75  N        -32.5750   10.6530   11.3800 N.3   220  LYS220     -0.1245
     76  CA       -33.6280    9.7240   11.8090 C.3   220  LYS220      0.1561
     77  C        -33.5360    8.3100   11.2510 C.2   220  LYS220      0.2260
     78  O        -33.8790    7.3670   11.9730 O.2   220  LYS220     -0.2867
     79  CB       -35.0170   10.3210   11.5530 C.3   220  LYS220      0.0271
     80  CG       -35.1570   11.7360   12.1300 C.3   220  LYS220      0.0035
     81  CD       -35.0180   11.6560   13.6540 C.3   220  LYS220      0.0206
     82  CE       -35.1540   13.0120   14.3580 C.3   220  LYS220      0.1093
     83  NZ       -34.7680   12.8930   15.8070 N.3   220  LYS220     -0.1314
     84  N        -45.2890    9.7760   22.4950 N.3   353  ARG353     -0.1245
     85  CA       -44.4650    9.1820   21.4540 C.3   353  ARG353      0.1563
     86  C        -43.6430    8.0240   22.0360 C.2   353  ARG353      0.2260
     87  O        -42.9330    8.1680   23.0450 O.2   353  ARG353     -0.2867
     88  CB       -43.5340   10.2010   20.8190 C.3   353  ARG353      0.0307
     89  CG       -42.7700    9.6310   19.6090 C.3   353  ARG353      0.0489
     90  CD       -42.0300   10.7570   18.8990 C.3   353  ARG353      0.2205
     91  NE       -40.8090   11.1160   19.6320 N.pl3 353  ARG353     -0.0865
     92  CZ       -40.0220   12.1270   19.2500 C.cat 353  ARG353      0.5346
     93  NH1      -40.3890   12.8970   18.2280 N.pl3 353  ARG353      0.1354
     94  NH2      -38.9040   12.4110   19.9300 N.pl3 353  ARG353      0.1354
@<TRIPOS>BOND
     1    77    76    1
     2    77    78    2
     3    75    76    1
     4    79    76    1
     5    79    80    1
     6    80    81    1
     7    67    68    1
     8    59    60    1
     9    59    56    1
    10    62    60   ar
    11    62    64   ar
    12    55    56    1
    13    58    57    2
    14    68    71    1
    15    68    69    1
    16    71    72    1
    17    81    82    1
    18    60    61   ar
    19    64    65   ar
    20    56    57    1
    21    52    51    2
    22    70    69    2
    23    82    83    1
    24    65    66    1
    25    65    63   ar
    26    61    63   ar
    27    72    74   am
    28    72    73    2
    29    51    50    1
    30    54    53    1
    31    53    50    1
    32    50    49    1
    33    93    92    1
    34    90    89    1
    35    90    91    1
    36    16    15   ar
    37     8     6    1
    38    92    91    2
    39    92    94    1
    40    89    88    1
    41    15    17   ar
    42    15    14    1
    43     6     7    1
    44     6     5    1
    45    88    85    1
    46    14    13    1
    47     5     2    1
    48    85    86    1
    49    85    84    1
    50    86    87    2
    51    29    28    1
    52    27    28   ar
    53    27    25   ar
    54    13    10    1
    55     2     1    1
    56     2     3    1
    57    28    26   ar
    58     9    10    1
    59     9     3   am
    60    25    23   ar
    61    10    11    1
    62     3     4    2
    63    26    24   ar
    64    23    24   ar
    65    23    22    1
    66    39    38    1
    67    11    12    2
    68    22    19    1
    69    40    38    1
    70    38    37    2
    71    47    46    1
    72    48    46    1
    73    19    18    1
    74    19    20    1
    75    46    45    1
    76    37    36    1
    77    35    36    1
    78    35    34    1
    79    20    30   am
    80    20    21    2
    81    30    31    1
    82    45    42    1
    83    34    31    1
    84    31    32    1
    85    42    41    1
    86    42    43    1
    87    32    33    2
    88    43    44    2
