@<TRIPOS>MOLECULE
tmp/4m2vA00.pdb
 184 179 0 0 0
SMALL
GASTEIGER

@<TRIPOS>ATOM
      1  N         12.3260   -0.2570   80.8820 N.3     2  TRP2       -0.1241
      2  CA        11.6830   -1.2080   81.7820 C.3     2  TRP2        0.1605
      3  C         10.6550   -2.0630   81.0710 C.2     2  TRP2        0.2264
      4  O         10.0910   -1.6870   80.0360 O.2     2  TRP2       -0.2867
      5  CB        11.0260   -0.5130   82.9750 C.3     2  TRP2        0.0550
      6  CG         9.8300    0.2880   82.6480 C.ar    2  TRP2        0.0003
      7  CD1        9.7930    1.6190   82.3100 C.ar    2  TRP2        0.0946
      8  CD2        8.4730   -0.1590   82.6460 C.ar    2  TRP2        0.0152
      9  NE1        8.5050    2.0130   82.0870 N.ar    2  TRP2       -0.2442
     10  CE2        7.6690    0.9500   82.2930 C.ar    2  TRP2        0.0810
     11  CE3        7.8520   -1.3780   82.9360 C.ar    2  TRP2        0.0012
     12  CZ2        6.2780    0.8730   82.2090 C.ar    2  TRP2        0.0191
     13  CZ3        6.4660   -1.4520   82.8400 C.ar    2  TRP2        0.0001
     14  CH2        5.6980   -0.3260   82.4850 C.ar    2  TRP2        0.0015
     15  N          0.5080    0.2910   74.2330 N.3    59  ASN59      -0.1240
     16  CA         1.6000    1.1600   74.6900 C.3    59  ASN59       0.1653
     17  C          2.8870    0.3990   74.9550 C.2    59  ASN59       0.2266
     18  O          3.8520    0.9660   75.4780 O.2    59  ASN59      -0.2867
     19  CB         1.1810    1.9330   75.9340 C.3    59  ASN59       0.1155
     20  CG         0.7750    1.0240   77.0740 C.2    59  ASN59       0.2627
     21  OD1        1.2760   -0.0870   77.1970 O.2    59  ASN59      -0.2716
     22  ND2       -0.1380    1.4980   77.9250 N.am   59  ASN59      -0.0877
     23  N          3.2810   -2.1000   76.9320 N.3    61  HIS61      -0.1226
     24  CA         3.2040   -2.7770   78.2420 C.3    61  HIS61       0.1752
     25  C          1.8340   -3.3970   78.4860 C.2    61  HIS61       0.2596
     26  O          1.7150   -4.3700   79.2190 O.2    61  HIS61      -0.2718
     27  CB         3.5260   -1.7910   79.3660 C.3    61  HIS61       0.0759
     28  CG         4.8070   -1.0440   79.1640 C.ar   61  HIS61       0.0818
     29  ND1        6.0450   -1.6290   79.3230 N.ar   61  HIS61      -0.2268
     30  CD2        5.0420    0.2450   78.8210 C.ar   61  HIS61       0.1154
     31  CE1        6.9860   -0.7340   79.0840 C.ar   61  HIS61       0.1986
     32  NE2        6.4040    0.4110   78.7770 N.ar   61  HIS61      -0.2212
     33  N          0.8030   -2.8280   77.8810 N.am   62  SER62      -0.1952
     34  CA        -0.5550   -3.3180   78.0260 C.3    62  SER62       0.1924
     35  C         -1.3210   -2.6810   76.8630 C.2    62  SER62       0.2314
     36  O         -0.6840   -2.0710   76.0040 O.2    62  SER62      -0.2863
     37  CB        -1.1250   -2.8770   79.3680 C.3    62  SER62       0.2116
     38  OG        -2.4480   -3.3720   79.4970 O.3    62  SER62      -0.2180
     39  N         -4.6930    0.0460   76.3110 N.3    64  GLN64      -0.1245
     40  CA        -5.3930    1.0270   77.1130 C.3    64  GLN64       0.1566
     41  C         -6.5260    1.6080   76.2740 C.2    64  GLN64       0.2260
     42  O         -6.3390    1.8450   75.0820 O.2    64  GLN64      -0.2867
     43  CB        -4.3780    2.1330   77.2880 C.3    64  GLN64       0.0367
     44  CG        -4.3900    2.9550   78.4740 C.3    64  GLN64       0.0905
     45  CD        -3.3550    4.0330   78.2870 C.2    64  GLN64       0.2608
     46  OE1       -2.1630    3.7440   78.1660 O.2    64  GLN64      -0.2717
     47  NE2       -3.8060    5.2640   78.1750 N.am   64  GLN64      -0.0878
     48  N        -10.0140    8.3070   83.4770 N.3    88  LEU88      -0.1231
     49  CA        -9.0240    8.6500   82.4570 C.3    88  LEU88       0.1693
     50  C         -8.8330    7.5360   81.4330 C.2    88  LEU88       0.2591
     51  O         -8.8330    7.7740   80.2260 O.2    88  LEU88      -0.2718
     52  CB        -7.6800    8.8990   83.1550 C.3    88  LEU88       0.0284
     53  CG        -6.4650    9.0730   82.2380 C.3    88  LEU88       0.0019
     54  CD1       -6.6130   10.3350   81.4710 C.3    88  LEU88       0.0001
     55  CD2       -5.1880    9.0960   83.0530 C.3    88  LEU88       0.0001
     56  N         -8.6320    6.3110   81.9240 N.am   89  GLN89      -0.1979
     57  CA        -8.3690    5.1910   81.0390 C.3    89  GLN89       0.1601
     58  C         -8.6470    3.8810   81.7790 C.2    89  GLN89       0.2287
     59  O         -8.7310    3.8530   82.9940 O.2    89  GLN89      -0.2864
     60  CB        -6.9160    5.2030   80.5410 C.3    89  GLN89       0.0394
     61  CG        -5.8740    5.2370   81.6640 C.3    89  GLN89       0.0908
     62  CD        -5.0730    3.9480   81.8200 C.2    89  GLN89       0.2608
     63  OE1       -5.6120    2.8690   81.7370 O.2    89  GLN89      -0.2717
     64  NE2       -3.7860    4.0720   82.0650 N.am   89  GLN89      -0.0878
     65  N         -7.1560   -0.3680   81.4980 N.3    91  HIS91      -0.1241
     66  CA        -6.2210   -1.2910   80.8920 C.3    91  HIS91       0.1621
     67  C         -6.2930   -2.5870   81.6740 C.2    91  HIS91       0.2264
     68  O         -6.9570   -2.6640   82.7210 O.2    91  HIS91      -0.2867
     69  CB        -4.7870   -0.7540   80.8920 C.3    91  HIS91       0.0745
     70  CG        -4.2530   -0.5100   82.2650 C.ar   91  HIS91       0.0817
     71  ND1       -4.4330    0.6850   82.9300 N.ar   91  HIS91      -0.2268
     72  CD2       -3.6220   -1.3380   83.1270 C.ar   91  HIS91       0.1154
     73  CE1       -3.9300    0.5790   84.1500 C.ar   91  HIS91       0.1986
     74  NE2       -3.4270   -0.6380   84.2940 N.ar   91  HIS91      -0.2212
     75  N         -4.0550   -6.3420   82.9860 N.3    93  HIS93      -0.1241
     76  CA        -2.8790   -7.1640   83.1800 C.3    93  HIS93       0.1621
     77  C         -3.3270   -8.6270   83.0740 C.2    93  HIS93       0.2264
     78  O         -4.3880   -8.9800   83.5480 O.2    93  HIS93      -0.2867
     79  CB        -2.2910   -6.9190   84.5750 C.3    93  HIS93       0.0745
     80  CG        -1.9790   -5.4810   84.8590 C.ar   93  HIS93       0.0817
     81  ND1       -0.7080   -4.9630   84.7400 N.ar   93  HIS93      -0.2268
     82  CD2       -2.7710   -4.4540   85.2430 C.ar   93  HIS93       0.1154
     83  CE1       -0.7350   -3.6710   85.0330 C.ar   93  HIS93       0.1986
     84  NE2       -1.9750   -3.3390   85.3500 N.ar   93  HIS93      -0.2212
     85  N         -8.0050   -2.5450   85.4190 N.3   116  HIS116     -0.1241
     86  CA        -7.7770   -1.3300   86.1970 C.3   116  HIS116      0.1621
     87  C         -8.4630   -0.1760   85.5220 C.2   116  HIS116      0.2264
     88  O         -8.1160    0.1760   84.4040 O.2   116  HIS116     -0.2867
     89  CB        -6.2890   -1.0420   86.3070 C.3   116  HIS116      0.0745
     90  CG        -5.5770   -2.0180   87.1810 C.ar  116  HIS116      0.0817
     91  ND1       -4.2070   -2.2220   87.1480 N.ar  116  HIS116     -0.2268
     92  CD2       -6.0660   -2.8650   88.1100 C.ar  116  HIS116      0.1154
     93  CE1       -3.8960   -3.1190   88.0640 C.ar  116  HIS116      0.1986
     94  NE2       -5.0050   -3.5410   88.6400 N.ar  116  HIS116     -0.2212
     95  N         -8.7140    3.6750   85.8990 N.3   118  VAL118     -0.1245
     96  CA        -7.8890    4.6910   86.5170 C.3   118  VAL118      0.1561
     97  C         -8.5960    6.0420   86.5230 C.2   118  VAL118      0.2260
     98  O         -9.0520    6.5190   85.4740 O.2   118  VAL118     -0.2867
     99  CB        -6.5730    4.8390   85.7430 C.3   118  VAL118      0.0252
    100  CG1       -5.6550    5.8460   86.3950 C.3   118  VAL118      0.0019
    101  CG2       -5.9080    3.4910   85.5620 C.3   118  VAL118      0.0019
    102  N         -3.9220   15.3100   85.5960 N.3   127  VAL127     -0.1231
    103  CA        -3.4340   14.0270   86.0830 C.3   127  VAL127      0.1692
    104  C         -1.9620   14.0840   86.4790 C.2   127  VAL127      0.2592
    105  O         -1.5490   13.4290   87.4370 O.2   127  VAL127     -0.2718
    106  CB        -3.7080   12.8750   85.0790 C.3   127  VAL127      0.0266
    107  CG1       -2.8690   13.0370   83.8390 C.3   127  VAL127      0.0020
    108  CG2       -3.4380   11.5330   85.7610 C.3   127  VAL127      0.0020
    109  N         -1.1770   14.8990   85.7770 N.am  128  GLY128     -0.1957
    110  CA         0.2200   15.0770   86.1080 C.3   128  GLY128      0.1869
    111  C          0.4320   15.6200   87.5110 C.2   128  GLY128      0.2309
    112  O          1.3730   15.2330   88.2030 O.2   128  GLY128     -0.2863
    113  N         -0.6220   12.7730   90.2690 N.3   131  VAL131     -0.1245
    114  CA         0.3220   11.6870   90.5680 C.3   131  VAL131      0.1561
    115  C          1.3700   12.0730   91.6020 C.2   131  VAL131      0.2260
    116  O          2.0640   11.2010   92.1280 O.2   131  VAL131     -0.2867
    117  CB         1.0240   11.1130   89.2920 C.3   131  VAL131      0.0252
    118  CG1       -0.0020   10.4880   88.3800 C.3   131  VAL131      0.0019
    119  CG2        1.8010   12.1810   88.5690 C.3   131  VAL131      0.0019
    120  N         -4.8950    9.6510   92.8290 N.3   137  LEU137     -0.1245
    121  CA        -5.5540    8.6800   91.9630 C.3   137  LEU137      0.1561
    122  C         -6.4010    7.7040   92.7640 C.2   137  LEU137      0.2260
    123  O         -6.1250    7.4110   93.9470 O.2   137  LEU137     -0.2867
    124  CB        -4.5200    7.8820   91.1590 C.3   137  LEU137      0.0270
    125  CG        -3.6220    8.5650   90.1340 C.3   137  LEU137      0.0019
    126  CD1       -2.9580    7.4960   89.2380 C.3   137  LEU137      0.0001
    127  CD2       -4.3320    9.5760   89.3350 C.3   137  LEU137      0.0001
    128  N         -7.8780    3.8480   91.7420 N.3   139  VAL139     -0.1245
    129  CA        -7.9430    2.8160   90.7360 C.3   139  VAL139      0.1561
    130  C         -8.9070    1.7540   91.2300 C.2   139  VAL139      0.2260
    131  O         -8.7790    1.2430   92.3510 O.2   139  VAL139     -0.2867
    132  CB        -6.5600    2.2070   90.4040 C.3   139  VAL139      0.0252
    133  CG1       -6.7350    1.1380   89.3010 C.3   139  VAL139      0.0019
    134  CG2       -5.5870    3.2800   89.9390 C.3   139  VAL139      0.0019
    135  N          1.0500    3.1710   92.0190 N.3   194  LEU194     -0.1231
    136  CA         1.0040    2.6240   90.6710 C.3   194  LEU194      0.1693
    137  C          1.7450    1.2870   90.6690 C.2   194  LEU194      0.2593
    138  O          2.7580    1.1210   91.3570 O.2   194  LEU194     -0.2718
    139  CB         1.6860    3.5670   89.6800 C.3   194  LEU194      0.0284
    140  CG         1.1590    4.9870   89.6170 C.3   194  LEU194      0.0019
    141  CD1        2.0460    5.7940   88.6810 C.3   194  LEU194      0.0001
    142  CD2       -0.2690    4.9850   89.1710 C.3   194  LEU194      0.0001
    143  N          1.2790    0.3310   89.8700 N.am  195  THR195     -0.1939
    144  CA         1.9740   -0.9500   89.7600 C.3   195  THR195      0.2028
    145  C          2.9730   -1.0150   88.6130 C.2   195  THR195      0.2643
    146  O          3.5810   -2.0600   88.3710 O.2   195  THR195     -0.2714
    147  CB         1.0060   -2.1120   89.6550 C.3   195  THR195      0.1808
    148  OG1        0.3390   -2.0110   88.3930 O.3   195  THR195     -0.2208
    149  CG2        0.0240   -2.1570   90.8150 C.3   195  THR195      0.0379
    150  N          3.1050    0.0800   87.8700 N.am  196  THR196     -0.1937
    151  CA         4.1580    0.2140   86.8740 C.3   196  THR196      0.2013
    152  C          4.9620    1.4490   87.2100 C.2   196  THR196      0.2484
    153  O          4.4880    2.3510   87.9000 O.2   196  THR196     -0.2729
    154  CB         3.6030    0.4250   85.4570 C.3   196  THR196      0.1807
    155  OG1        2.8580    1.6460   85.4020 O.3   196  THR196     -0.2208
    156  CG2        2.6870   -0.6930   85.0580 C.3   196  THR196      0.0379
    157  N          6.1850    1.5220   86.6780 N.am  197  PRO197     -0.2715
    158  CA         6.8840    2.8030   86.7390 C.3   197  PRO197      0.1521
    159  C          5.9790    3.9470   86.3060 C.2   197  PRO197      0.2440
    160  O          5.1890    3.8310   85.3410 O.2   197  PRO197     -0.2731
    161  CB         8.0440    2.5830   85.7630 C.3   197  PRO197      0.0310
    162  CG         8.3590    1.1510   85.9740 C.3   197  PRO197      0.0237
    163  CD         6.9900    0.4900   86.0130 C.3   197  PRO197      0.0939
    164  N          6.0800    5.0880   86.9800 N.am  198  PRO198     -0.2727
    165  CA         7.0500    5.4670   88.0040 C.3   198  PRO198      0.1402
    166  C          6.7680    4.9850   89.4360 C.2   198  PRO198      0.2269
    167  O          7.4520    5.4250   90.3460 O.2   198  PRO198     -0.2865
    168  CB         6.9820    6.9980   87.9480 C.3   198  PRO198      0.0296
    169  CG         5.5990    7.2880   87.5650 C.3   198  PRO198      0.0237
    170  CD         5.2600    6.2370   86.5580 C.3   198  PRO198      0.0939
    171  N         -6.4990    2.3500   96.3370 N.3   205  TRP205     -0.1241
    172  CA        -6.9360    1.1450   95.6400 C.3   205  TRP205      0.1605
    173  C         -8.3000    0.7230   96.1370 C.2   205  TRP205      0.2264
    174  O         -8.5560    0.7220   97.3450 O.2   205  TRP205     -0.2867
    175  CB        -5.9300   -0.0120   95.8290 C.3   205  TRP205      0.0550
    176  CG        -4.8260    0.1020   94.8830 C.ar  205  TRP205      0.0003
    177  CD1       -3.5960    0.6720   95.0890 C.ar  205  TRP205      0.0946
    178  CD2       -4.8650   -0.2930   93.5220 C.ar  205  TRP205      0.0152
    179  NE1       -2.8820    0.6580   93.9280 N.ar  205  TRP205     -0.2442
    180  CE2       -3.6300    0.0460   92.9550 C.ar  205  TRP205      0.0810
    181  CE3       -5.8310   -0.9210   92.7260 C.ar  205  TRP205      0.0012
    182  CZ2       -3.3250   -0.2190   91.6160 C.ar  205  TRP205      0.0191
    183  CZ3       -5.5280   -1.1990   91.4320 C.ar  205  TRP205      0.0001
    184  CH2       -4.2820   -0.8370   90.8810 C.ar  205  TRP205      0.0015
@<TRIPOS>BOND
     1    15    16    1
     2    16    17    1
     3    16    19    1
     4    17    18    2
     5    42    41    2
     6    19    20    1
     7    36    35    2
     8    41    40    1
     9    39    40    1
    10    35    34    1
    11    23    24    1
    12    20    21    2
    13    20    22   am
    14    40    43    1
    15    43    44    1
    16    33    34    1
    17    33    25   am
    18    34    37    1
    19    46    45    2
    20    47    45   am
    21    24    25    1
    22    24    27    1
    23    45    44    1
    24    25    26    2
    25    32    30   ar
    26    32    31   ar
    27    30    28   ar
    28    31    29   ar
    29    28    29   ar
    30    28    27    1
    31    37    38    1
    32     4     3    2
    33    51    50    2
    34    60    57    1
    35    60    61    1
    36     1     2    1
    37    66    69    1
    38    66    65    1
    39    66    67    1
    40    69    70    1
    41    57    58    1
    42    57    56    1
    43     3     2    1
    44    50    56   am
    45    50    49    1
    46    54    53    1
    47    61    62    1
    48    67    68    2
    49    63    62    2
    50    58    59    2
    51     2     5    1
    52    62    64   am
    53     9    10   ar
    54     9     7   ar
    55    12    10   ar
    56    12    14   ar
    57    53    55    1
    58    53    52    1
    59    70    71   ar
    60    70    72   ar
    61    10     8   ar
    62     7     6   ar
    63    49    52    1
    64    49    48    1
    65    14    13   ar
    66     8     6   ar
    67     8    11   ar
    68     6     5    1
    69    13    11   ar
    70    71    73   ar
    71    75    76    1
    72    77    76    1
    73    77    78    2
    74    72    74   ar
    75    76    79    1
    76   107   106    1
    77    73    74   ar
    78    88    87    2
    79    79    80    1
    80    81    80   ar
    81    81    83   ar
    82    80    82   ar
    83    83    84   ar
    84   156   154    1
    85   106   108    1
    86   106   103    1
    87    82    84   ar
    88   160   159    2
    89   155   154    1
    90    85    86    1
    91   154   151    1
    92    98    97    2
    93    87    86    1
    94   101    99    1
    95   102   103    1
    96    99   100    1
    97    99    96    1
    98   161   162    1
    99   161   158    1
   100   109   110    1
   101   109   104   am
   102    95    96    1
   103   162   163    1
   104   163   157    1
   105   103   104    1
   106   110   111    1
   107    86    89    1
   108   159   158    1
   109   159   164   am
   110    89    90    1
   111   104   105    2
   112    96    97    1
   113   170   164    1
   114   170   169    1
   115   157   158    1
   116   157   152   am
   117   151   152    1
   118   151   150    1
   119   164   165    1
   120    91    90   ar
   121    91    93   ar
   122    90    92   ar
   123   152   153    2
   124   111   112    2
   125   169   168    1
   126   150   145   am
   127   168   165    1
   128   165   166    1
   129    93    94   ar
   130    92    94   ar
   131   146   145    2
   132   118   117    1
   133   148   147    1
   134   119   117    1
   135   145   144    1
   136   141   140    1
   137   142   140    1
   138   126   125    1
   139   117   114    1
   140   133   132    1
   141   127   125    1
   142   166   167    2
   143   140   139    1
   144   147   144    1
   145   147   149    1
   146   139   136    1
   147   144   143    1
   148   143   137   am
   149   134   132    1
   150   125   124    1
   151   113   114    1
   152   132   129    1
   153   114   115    1
   154   137   136    1
   155   137   138    2
   156   136   135    1
   157   129   130    1
   158   129   128    1
   159   184   183   ar
   160   184   182   ar
   161   124   121    1
   162   130   131    2
   163   183   181   ar
   164   115   116    2
   165   182   180   ar
   166   121   122    1
   167   121   120    1
   168   181   178   ar
   169   122   123    2
   170   180   178   ar
   171   180   179   ar
   172   178   176   ar
   173   179   177   ar
   174   176   177   ar
   175   176   175    1
   176   172   175    1
   177   172   173    1
   178   172   171    1
   179   173   174    2
