@<TRIPOS>MOLECULE
tmp/4m2xD01.pdb
 198 193 0 0 0
SMALL
GASTEIGER

@<TRIPOS>ATOM
      1  N         14.7780   13.5670   26.8650 N.3     5  ILE5       -0.1231
      2  CA        14.4690   14.5790   25.8940 C.3     5  ILE5        0.1692
      3  C         15.5840   14.5690   24.8840 C.2     5  ILE5        0.2592
      4  O         16.7590   14.4940   25.2520 O.2     5  ILE5       -0.2718
      5  CB        14.3360   15.9590   26.5410 C.3     5  ILE5        0.0266
      6  CG1       14.1780   17.0280   25.4660 C.3     5  ILE5        0.0019
      7  CG2       15.5080   16.2300   27.4730 C.3     5  ILE5        0.0020
      8  CD1       13.3460   18.1660   25.9230 C.3     5  ILE5        0.0001
      9  N         15.2100   14.6200   23.6130 N.am    6  TRP6       -0.1962
     10  CA        16.1890   14.6590   22.5530 C.3     6  TRP6        0.1771
     11  C         15.6200   15.2380   21.2610 C.2     6  TRP6        0.2619
     12  O         14.4180   15.4780   21.1360 O.2     6  TRP6       -0.2715
     13  CB        16.7400   13.2490   22.3100 C.3     6  TRP6        0.0590
     14  CG        15.8270   12.3150   21.5030 C.ar    6  TRP6        0.0006
     15  CD1       15.6610   12.2970   20.1430 C.ar    6  TRP6        0.0946
     16  CD2       15.0020   11.2620   22.0170 C.ar    6  TRP6        0.0152
     17  NE1       14.7960   11.3080   19.7890 N.ar    6  TRP6       -0.2442
     18  CE2       14.3730   10.6540   20.9180 C.ar    6  TRP6        0.0810
     19  CE3       14.7320   10.7810   23.3000 C.ar    6  TRP6        0.0012
     20  CZ2       13.4890    9.5930   21.0610 C.ar    6  TRP6        0.0191
     21  CZ3       13.8500    9.7210   23.4400 C.ar    6  TRP6        0.0001
     22  CH2       13.2460    9.1390   22.3250 C.ar    6  TRP6        0.0015
     23  N         16.5100   15.4780   20.3090 N.am    7  ALA7       -0.1977
     24  CA        16.1340   15.9040   18.9800 C.3     7  ALA7        0.1597
     25  C         16.9170   15.0330   18.0170 C.2     7  ALA7        0.2287
     26  O         18.1320   14.9050   18.1410 O.2     7  ALA7       -0.2864
     27  CB        16.5010   17.3480   18.7700 C.3     7  ALA7        0.0319
     28  N         29.2800   15.8330   17.8370 N.3    19  ASP19      -0.1225
     29  CA        28.4670   17.0320   17.8270 C.3    19  ASP19       0.1805
     30  C         27.0960   16.6860   17.2870 C.2    19  ASP19       0.2597
     31  O         26.7900   15.5330   16.9660 O.2    19  ASP19      -0.2718
     32  CB        29.1420   18.1130   16.9620 C.3    19  ASP19       0.1424
     33  CG        28.4260   19.4590   17.0140 C.2    19  ASP19       0.3668
     34  OD1       27.8500   19.8340   18.0660 O.co2  19  ASP19      -0.2456
     35  OD2       28.4460   20.1600   15.9840 O.co2  19  ASP19      -0.2456
     36  N         26.2600   17.6990   17.2200 N.am   20  ILE20      -0.1980
     37  CA        24.9370   17.5560   16.6780 C.3    20  ILE20       0.1595
     38  C         24.9670   18.1160   15.2560 C.2    20  ILE20       0.2287
     39  O         25.3820   19.2580   15.0390 O.2    20  ILE20      -0.2864
     40  CB        23.9350   18.2660   17.5730 C.3    20  ILE20       0.0276
     41  CG1       23.6400   17.3710   18.7890 C.3    20  ILE20       0.0022
     42  CG2       22.6620   18.6010   16.8020 C.3    20  ILE20       0.0022
     43  CD1       22.8860   18.0680   19.8760 C.3    20  ILE20       0.0001
     44  N         23.3170   19.4810   13.0600 N.3    22  TRP22      -0.1227
     45  CA        22.3890   20.5250   12.6320 C.3    22  TRP22       0.1737
     46  C         22.2510   21.6170   13.6840 C.2    22  TRP22       0.2595
     47  O         22.6290   21.4460   14.8290 O.2    22  TRP22      -0.2718
     48  CB        20.9950   19.9320   12.3820 C.3    22  TRP22       0.0564
     49  CG        20.3410   19.4330   13.6240 C.ar   22  TRP22       0.0003
     50  CD1       19.7900   20.1870   14.6330 C.ar   22  TRP22       0.0946
     51  CD2       20.1710   18.0710   14.0060 C.ar   22  TRP22       0.0152
     52  NE1       19.2900   19.3650   15.6220 N.ar   22  TRP22      -0.2442
     53  CE2       19.5070   18.0620   15.2570 C.ar   22  TRP22       0.0810
     54  CE3       20.5100   16.8510   13.4160 C.ar   22  TRP22       0.0012
     55  CZ2       19.1840   16.8820   15.9190 C.ar   22  TRP22       0.0191
     56  CZ3       20.1900   15.6940   14.0700 C.ar   22  TRP22       0.0001
     57  CH2       19.5370   15.7150   15.3190 C.ar   22  TRP22       0.0015
     58  N         21.6340   22.7170   13.2980 N.am   23  ARG23      -0.1980
     59  CA        21.4460   23.8360   14.1980 C.3    23  ARG23       0.1597
     60  C         20.0020   24.2710   14.1150 C.2    23  ARG23       0.2287
     61  O         19.4890   24.5480   13.0360 O.2    23  ARG23      -0.2864
     62  CB        22.3910   24.9860   13.8230 C.3    23  ARG23       0.0334
     63  CG        23.8790   24.6490   14.0460 C.3    23  ARG23       0.0492
     64  CD        24.1140   24.2840   15.5090 C.3    23  ARG23       0.2205
     65  NE        25.5230   24.1380   15.8700 N.pl3  23  ARG23      -0.0865
     66  CZ        26.1040   22.9840   16.1650 C.cat  23  ARG23       0.5346
     67  NH1       25.4070   21.8560   16.1160 N.pl3  23  ARG23       0.1354
     68  NH2       27.3860   22.9520   16.4970 N.pl3  23  ARG23       0.1354
     69  N         14.4700   24.3610   18.8630 N.3    27  ASP27      -0.1225
     70  CA        14.6620   23.1410   19.6220 C.3    27  ASP27       0.1805
     71  C         15.3700   23.4300   20.9350 C.2    27  ASP27       0.2597
     72  O         15.0020   22.8820   21.9770 O.2    27  ASP27      -0.2718
     73  CB        15.4750   22.1180   18.8220 C.3    27  ASP27       0.1424
     74  CG        15.8520   20.9020   19.6550 C.2    27  ASP27       0.3668
     75  OD1       14.9230   20.1910   20.1250 O.co2  27  ASP27      -0.2456
     76  OD2       17.0700   20.6660   19.8350 O.co2  27  ASP27      -0.2456
     77  N         16.3910   24.2830   20.8900 N.am   28  GLN28      -0.1979
     78  CA        17.0820   24.6480   22.1190 C.3    28  GLN28       0.1601
     79  C         16.1010   25.3170   23.0530 C.2    28  GLN28       0.2287
     80  O         16.0390   24.9830   24.2440 O.2    28  GLN28      -0.2864
     81  CB        18.2880   25.5470   21.8500 C.3    28  GLN28       0.0394
     82  CG        19.4110   24.8190   21.1160 C.3    28  GLN28       0.0908
     83  CD        20.5310   25.7500   20.6740 C.2    28  GLN28       0.2608
     84  OE1       20.7110   26.8520   21.2400 O.2    28  GLN28      -0.2717
     85  NE2       21.2970   25.3130   19.6520 N.am   28  GLN28      -0.0878
     86  N         12.7980   25.0080   23.1690 N.3    30  HIS30      -0.1226
     87  CA        11.9590   23.9400   23.6900 C.3    30  HIS30       0.1752
     88  C         12.6430   23.0750   24.7510 C.2    30  HIS30       0.2596
     89  O         12.0560   22.7510   25.7740 O.2    30  HIS30      -0.2718
     90  CB        11.5110   23.0450   22.5490 C.3    30  HIS30       0.0759
     91  CG        10.6240   21.9330   22.9930 C.ar   30  HIS30       0.0818
     92  ND1       10.9690   20.6080   22.8540 N.ar   30  HIS30      -0.2268
     93  CD2        9.4180   21.9510   23.6070 C.ar   30  HIS30       0.1154
     94  CE1       10.0030   19.8540   23.3440 C.ar   30  HIS30       0.1986
     95  NE2        9.0480   20.6420   23.8050 N.ar   30  HIS30      -0.2212
     96  N         13.8860   22.6990   24.4950 N.am   31  PHE31      -0.1962
     97  CA        14.6700   21.9010   25.4240 C.3    31  PHE31       0.1771
     98  C         14.8630   22.5810   26.7850 C.2    31  PHE31       0.2619
     99  O         14.6790   21.9820   27.8440 O.2    31  PHE31      -0.2715
    100  CB        16.0200   21.6400   24.7850 C.3    31  PHE31       0.0574
    101  CG        17.0410   21.1000   25.7260 C.ar   31  PHE31      -0.0200
    102  CD1       16.9980   19.7780   26.1350 C.ar   31  PHE31      -0.0042
    103  CD2       18.0730   21.9000   26.1770 C.ar   31  PHE31      -0.0042
    104  CE1       17.9730   19.2700   27.0040 C.ar   31  PHE31      -0.0003
    105  CE2       19.0380   21.4020   27.0480 C.ar   31  PHE31      -0.0003
    106  CZ        18.9930   20.0890   27.4570 C.ar   31  PHE31      -0.0000
    107  N         15.2480   23.8470   26.7450 N.am   32  ARG32      -0.1977
    108  CA        15.3400   24.6490   27.9420 C.3    32  ARG32       0.1597
    109  C         14.0010   24.6700   28.6850 C.2    32  ARG32       0.2287
    110  O         13.9550   24.4360   29.8960 O.2    32  ARG32      -0.2864
    111  CB        15.7950   26.0670   27.5770 C.3    32  ARG32       0.0334
    112  CG        17.2120   26.1120   27.0220 C.3    32  ARG32       0.0492
    113  CD        17.4820   27.4390   26.3140 C.3    32  ARG32       0.2205
    114  NE        18.8860   27.6150   25.9330 N.pl3  32  ARG32      -0.0865
    115  CZ        19.2770   28.4840   25.0070 C.cat  32  ARG32       0.5346
    116  NH1       18.3640   29.2280   24.3850 N.pl3  32  ARG32       0.1354
    117  NH2       20.5630   28.6090   24.6960 N.pl3  32  ARG32       0.1354
    118  N         28.4250   13.5730   25.9890 N.3    46  THR46      -0.1218
    119  CA        27.5440   14.7230   25.8310 C.3    46  THR46       0.1862
    120  C         28.0770   15.9250   26.6110 C.2    46  THR46       0.2287
    121  O         28.0510   17.0400   26.1100 O.2    46  THR46      -0.2866
    122  CB        26.1160   14.4230   26.2840 C.3    46  THR46       0.1770
    123  OG1       25.5260   13.4800   25.3840 O.3    46  THR46      -0.2211
    124  CG2       25.2950   15.6860   26.2610 C.3    46  THR46       0.0375
    125  N         30.8100   17.2600   24.6150 N.3    49  SER49      -0.1202
    126  CA        30.3380   17.8350   23.3490 C.3    49  SER49       0.2020
    127  C         29.7430   19.2320   23.5150 C.2    49  SER49       0.2619
    128  O         29.7910   20.0390   22.5930 O.2    49  SER49      -0.2717
    129  CB        29.3350   16.9140   22.6590 C.3    49  SER49       0.2103
    130  OG        28.0290   17.1020   23.1790 O.3    49  SER49      -0.2182
    131  N         29.1720   19.5170   24.6820 N.am   50  LEU50      -0.1966
    132  CA        28.7310   20.8770   25.0130 C.3    50  LEU50       0.1713
    133  C         29.8470   21.9030   24.8180 C.2    50  LEU50       0.2458
    134  O         30.9830   21.6620   25.2040 O.2    50  LEU50      -0.2730
    135  CB        28.2820   20.9290   26.4630 C.3    50  LEU50       0.0310
    136  CG        27.1670   19.9560   26.8200 C.3    50  LEU50       0.0022
    137  CD1       26.7920   20.1580   28.2650 C.3    50  LEU50       0.0001
    138  CD2       25.9830   20.1980   25.9000 C.3    50  LEU50       0.0001
    139  N         29.5310   23.0580   24.2220 N.am   51  PRO51      -0.2727
    140  CA        30.5550   24.1020   24.1410 C.3    51  PRO51       0.1402
    141  C         31.0240   24.4390   25.5450 C.2    51  PRO51       0.2269
    142  O         30.2060   24.4590   26.4590 O.2    51  PRO51      -0.2865
    143  CB        29.7940   25.2890   23.5610 C.3    51  PRO51       0.0296
    144  CG        28.6710   24.6800   22.8070 C.3    51  PRO51       0.0237
    145  CD        28.2620   23.4840   23.6090 C.3    51  PRO51       0.0939
    146  N         29.2760   26.8360   27.9330 N.3    54  VAL54      -0.1245
    147  CA        27.8960   26.5630   28.2540 C.3    54  VAL54       0.1561
    148  C         27.8020   25.3010   29.0850 C.2    54  VAL54       0.2260
    149  O         26.7280   24.7240   29.2380 O.2    54  VAL54      -0.2867
    150  CB        27.0660   26.4240   26.9830 C.3    54  VAL54       0.0252
    151  CG1       25.5930   26.5230   27.3110 C.3    54  VAL54       0.0019
    152  CG2       27.4520   27.5240   26.0100 C.3    54  VAL54       0.0019
    153  N         25.2040   23.2160   31.9290 N.3    57  LEU57      -0.1245
    154  CA        24.0960   23.9910   31.3880 C.3    57  LEU57       0.1561
    155  C         23.4390   24.7310   32.5370 C.2    57  LEU57       0.2260
    156  O         23.1730   24.1420   33.5780 O.2    57  LEU57      -0.2867
    157  CB        23.0850   23.0980   30.6780 C.3    57  LEU57       0.0270
    158  CG        23.6570   22.4250   29.4430 C.3    57  LEU57       0.0019
    159  CD1       22.7300   21.3140   28.9380 C.3    57  LEU57       0.0001
    160  CD2       23.9430   23.4660   28.3690 C.3    57  LEU57       0.0001
    161  N         19.9900   24.3700   35.6710 N.3    60  ARG60      -0.1245
    162  CA        19.6990   22.9710   35.9510 C.3    60  ARG60       0.1563
    163  C         20.8000   22.2990   36.7660 C.2    60  ARG60       0.2260
    164  O         21.9620   22.6760   36.6830 O.2    60  ARG60      -0.2867
    165  CB        19.4720   22.2210   34.6340 C.3    60  ARG60       0.0307
    166  CG        18.1770   22.6170   33.9410 C.3    60  ARG60       0.0489
    167  CD        18.3240   22.6970   32.4320 C.3    60  ARG60       0.2205
    168  NE        19.1460   23.8150   31.9720 N.pl3  60  ARG60      -0.0865
    169  CZ        19.4050   24.1130   30.6960 C.cat  60  ARG60       0.5346
    170  NH1       18.8970   23.3770   29.7050 N.pl3  60  ARG60       0.1354
    171  NH2       20.1820   25.1570   30.4050 N.pl3  60  ARG60       0.1354
    172  N         19.2230   13.9010   29.2850 N.3    94  ILE94      -0.1245
    173  CA        19.3810   14.7380   28.0980 C.3    94  ILE94       0.1561
    174  C         20.3880   14.1700   27.1250 C.2    94  ILE94       0.2260
    175  O         20.8480   14.8640   26.2260 O.2    94  ILE94      -0.2867
    176  CB        19.7470   16.1680   28.4400 C.3    94  ILE94       0.0252
    177  CG1       21.0810   16.1800   29.1770 C.3    94  ILE94       0.0019
    178  CG2       18.6300   16.7710   29.2910 C.3    94  ILE94       0.0019
    179  CD1       21.9540   17.3740   28.8790 C.3    94  ILE94       0.0001
    180  N         20.6190    7.3900   26.6690 N.3   100  TYR100     -0.1241
    181  CA        19.2080    7.2440   26.3860 C.3   100  TYR100      0.1605
    182  C         18.8560    5.7850   26.4780 C.2   100  TYR100      0.2264
    183  O         17.8470    5.4210   27.0730 O.2   100  TYR100     -0.2867
    184  CB        18.8560    7.7270   24.9810 C.3   100  TYR100      0.0534
    185  CG        18.8380    9.2040   24.8580 C.ar  100  TYR100     -0.0201
    186  CD1       19.3930    9.8350   23.7530 C.ar  100  TYR100     -0.0009
    187  CD2       18.2990    9.9890   25.8640 C.ar  100  TYR100     -0.0009
    188  CE1       19.3930   11.2020   23.6480 C.ar  100  TYR100      0.0417
    189  CE2       18.3010   11.3710   25.7650 C.ar  100  TYR100      0.0417
    190  CZ        18.8500   11.9610   24.6490 C.ar  100  TYR100      0.1957
    191  OH        18.8670   13.3140   24.5490 O.3   100  TYR100     -0.2866
    192  N         12.1300   15.9630   19.5430 N.3   113  THR113     -0.1218
    193  CA        12.0840   16.9210   18.4660 C.3   113  THR113      0.1862
    194  C         12.5300   16.2170   17.2150 C.2   113  THR113      0.2287
    195  O         13.5780   15.5920   17.1920 O.2   113  THR113     -0.2866
    196  CB        13.0000   18.1070   18.7180 C.3   113  THR113      0.1770
    197  OG1       12.5920   18.7780   19.9100 O.3   113  THR113     -0.2211
    198  CG2       12.9110   19.0750   17.5520 C.3   113  THR113      0.0375
@<TRIPOS>BOND
     1    48    45    1
     2    48    49    1
     3    45    44    1
     4    45    46    1
     5    61    60    2
     6    58    46   am
     7    58    59    1
     8    54    51   ar
     9    54    56   ar
    10    49    51   ar
    11    49    50   ar
    12    46    47    2
    13    62    63    1
    14    62    59    1
    15    51    53   ar
    16    63    64    1
    17    56    57   ar
    18    60    59    1
    19    50    52   ar
    20    39    38    2
    21    38    37    1
    22    53    52   ar
    23    53    55   ar
    24    57    55   ar
    25    64    65    1
    26    65    66    2
    27    35    33   ar
    28    67    66    1
    29    66    68    1
    30    37    36    1
    31    37    40    1
    32    42    40    1
    33    32    33    1
    34    32    29    1
    35    31    30    2
    36    33    34   ar
    37   195   194    2
    38   194   193    1
    39    36    30   am
    40    30    29    1
    41   198   196    1
    42    40    41    1
    43    29    28    1
    44    25    26    2
    45    25    24    1
    46   193   196    1
    47   193   192    1
    48   196   197    1
    49    27    24    1
    50    41    43    1
    51    73    70    1
    52    73    74    1
    53    69    70    1
    54    24    23    1
    55    70    71    1
    56    85    83   am
    57    74    76   ar
    58    74    75   ar
    59    17    15   ar
    60    17    18   ar
    61    15    14   ar
    62    23    11   am
    63    83    82    1
    64    83    84    2
    65    77    71   am
    66    77    78    1
    67    18    20   ar
    68    18    16   ar
    69    71    72    2
    70    20    22   ar
    71    82    81    1
    72    12    11    2
    73    11    10    1
    74    14    16   ar
    75    14    13    1
    76    81    78    1
    77    16    19   ar
    78    78    79    1
    79    13    10    1
    80    22    21   ar
    81    90    91    1
    82    90    87    1
    83    10     9    1
    84   128   127    2
    85   129   130    1
    86   129   126    1
    87   144   143    1
    88   144   145    1
    89    92    91   ar
    90    92    94   ar
    91    91    93   ar
    92    79    80    2
    93    86    87    1
    94    19    21   ar
    95    94    95   ar
    96   126   127    1
    97   126   125    1
    98   127   131   am
    99   143   140    1
   100    93    95   ar
   101   145   139    1
   102     9     3   am
   103   188   186   ar
   104   188   190   ar
   105    87    88    1
   106   186   185   ar
   107   140   139    1
   108   140   141    1
   109   139   133   am
   110   116   115    1
   111    96    88   am
   112    96    97    1
   113   191   190    1
   114   190   189   ar
   115   131   132    1
   116   117   115    1
   117    88    89    2
   118   100    97    1
   119   100   101    1
   120   133   132    1
   121   133   134    2
   122   185   184    1
   123   185   187   ar
   124     3     4    2
   125     3     2    1
   126   184   181    1
   127   115   114    2
   128   132   135    1
   129   123   122    1
   130    97    98    1
   131     6     8    1
   132     6     5    1
   133   141   142    2
   134   101   102   ar
   135   101   103   ar
   136   189   187   ar
   137   119   118    1
   138   119   122    1
   139   119   120    1
   140     2     5    1
   141     2     1    1
   142   138   136    1
   143   114   113    1
   144   152   150    1
   145   121   120    2
   146   102   104   ar
   147   103   105   ar
   148   175   174    2
   149   124   122    1
   150   113   112    1
   151   181   182    1
   152   181   180    1
   153   135   136    1
   154   182   183    2
   155     5     7    1
   156   107    98   am
   157   107   108    1
   158    98    99    2
   159   136   137    1
   160   150   151    1
   161   150   147    1
   162   104   106   ar
   163   112   111    1
   164   105   106   ar
   165   174   173    1
   166   111   108    1
   167   146   147    1
   168   108   109    1
   169   173   176    1
   170   173   172    1
   171   147   148    1
   172   160   158    1
   173   176   177    1
   174   176   178    1
   175   109   110    2
   176   179   177    1
   177   159   158    1
   178   148   149    2
   179   158   157    1
   180   170   169    1
   181   171   169    1
   182   157   154    1
   183   169   168    2
   184   154   153    1
   185   154   155    1
   186   168   167    1
   187   167   166    1
   188   155   156    2
   189   166   165    1
   190   165   162    1
   191   161   162    1
   192   162   163    1
   193   164   163    2
