@<TRIPOS>MOLECULE
tmp/4m38B00.pdb
 116 114 0 0 0
SMALL
GASTEIGER

@<TRIPOS>ATOM
      1  N         22.9360    2.9990   12.0770 N.3    31  PHE31      -0.1241
      2  CA        23.1190    2.8430   10.6220 C.3    31  PHE31       0.1605
      3  C         24.4210    2.1590   10.1600 C.2    31  PHE31       0.2264
      4  O         24.4300    1.4780    9.1310 O.2    31  PHE31      -0.2867
      5  CB        22.9810    4.2110    9.9050 C.3    31  PHE31       0.0534
      6  CG        21.5920    4.7600    9.7960 C.ar   31  PHE31      -0.0203
      7  CD1       20.4740    3.9360    9.6270 C.ar   31  PHE31      -0.0042
      8  CD2       21.4120    6.1550    9.8420 C.ar   31  PHE31      -0.0042
      9  CE1       19.2150    4.4840    9.4710 C.ar   31  PHE31      -0.0003
     10  CE2       20.1430    6.7050    9.7040 C.ar   31  PHE31      -0.0003
     11  CZ        19.0430    5.8570    9.5090 C.ar   31  PHE31      -0.0000
     12  N         24.9900   -0.7450    7.2820 N.3    35  MET35      -0.1245
     13  CA        25.6790   -0.2190    6.1050 C.3    35  MET35       0.1570
     14  C         26.8320   -1.1350    5.7090 C.2    35  MET35       0.2261
     15  O         26.9600   -1.5460    4.5500 O.2    35  MET35      -0.2867
     16  CB        26.2080    1.1830    6.4450 C.3    35  MET35       0.0387
     17  CG        26.7780    1.9900    5.2930 C.3    35  MET35       0.0595
     18  SD        27.7160    3.4370    5.8740 S.3    35  MET35      -0.1393
     19  CE        26.5300    4.2710    6.9400 C.3    35  MET35       0.0692
     20  N         30.7780    7.4870   -0.4040 N.3   132  GLU132     -0.1231
     21  CA        29.4630    6.9110   -0.1930 C.3   132  GLU132      0.1699
     22  C         28.8620    7.6960    0.9570 C.2   132  GLU132      0.2592
     23  O         28.9580    7.2860    2.1120 O.2   132  GLU132     -0.2718
     24  CB        29.5490    5.4180    0.1520 C.3   132  GLU132      0.0402
     25  CG        28.2060    4.6630    0.0320 C.3   132  GLU132      0.1161
     26  CD        27.2060    5.0470    1.1270 C.2   132  GLU132      0.3649
     27  OE1       26.5020    6.0790    0.9550 O.co2 132  GLU132     -0.2457
     28  OE2       27.1300    4.3240    2.1610 O.co2 132  GLU132     -0.2457
     29  N         28.2510    8.8320    0.6440 N.am  133  ILE133     -0.1966
     30  CA        27.5970    9.6350    1.6690 C.3   133  ILE133      0.1727
     31  C         26.1630    9.9360    1.2370 C.2   133  ILE133      0.2616
     32  O         25.6890   11.0780    1.3490 O.2   133  ILE133     -0.2715
     33  CB        28.3720   10.9440    1.9540 C.3   133  ILE133      0.0290
     34  CG1       28.7180   11.6590    0.6450 C.3   133  ILE133      0.0022
     35  CG2       29.6490   10.6620    2.7450 C.3   133  ILE133      0.0023
     36  CD1       29.5920   12.9040    0.8510 C.3   133  ILE133      0.0001
     37  N         25.4810    8.9020    0.7430 N.am  134  PHE134     -0.1979
     38  CA        24.0720    9.0060    0.3860 C.3   134  PHE134      0.1567
     39  C         23.1770    8.7610    1.6090 C.2   134  PHE134      0.1732
     40  O         23.4870    7.9380    2.4690 O.2   134  PHE134     -0.2942
     41  CB        23.7360    8.0100   -0.7180 C.3   134  PHE134      0.0555
     42  CG        24.5700    8.1870   -1.9550 C.ar  134  PHE134     -0.0200
     43  CD1       24.4580    9.3390   -2.7150 C.ar  134  PHE134     -0.0042
     44  CD2       25.4900    7.2190   -2.3360 C.ar  134  PHE134     -0.0042
     45  CE1       25.2350    9.5210   -3.8400 C.ar  134  PHE134     -0.0003
     46  CE2       26.2750    7.3920   -3.4670 C.ar  134  PHE134     -0.0003
     47  CZ        26.1480    8.5370   -4.2180 C.ar  134  PHE134     -0.0000
     48  N         18.7370    8.5560    4.5690 N.3   136  THR136     -0.1203
     49  CA        19.4980    9.1500    3.4890 C.3   136  THR136      0.1998
     50  C         18.9360    8.4780    2.2400 C.2   136  THR136      0.2617
     51  O         19.2820    7.3400    1.9260 O.2   136  THR136     -0.2717
     52  CB        21.0080    8.8990    3.6650 C.3   136  THR136      0.1857
     53  OG1       21.4480    9.5410    4.8770 O.3   136  THR136     -0.2206
     54  CG2       21.7860    9.4700    2.4860 C.3   136  THR136      0.1012
     55  N         18.0610    9.1900    1.5320 N.am  137  MET137     -0.1979
     56  CA        17.4520    8.6620    0.3210 C.3   137  MET137      0.1605
     57  C         18.0250    9.2680   -0.9730 C.2   137  MET137      0.2287
     58  O         17.3740    9.1240   -2.0160 O.2   137  MET137     -0.2864
     59  CB        15.9320    8.8000    0.3460 C.3   137  MET137      0.0413
     60  CG        15.6500   10.2830    0.1400 C.3   137  MET137      0.0598
     61  SD        13.9210   10.6100    0.6120 S.3   137  MET137     -0.1393
     62  CE        13.5200   11.8610   -0.6350 C.3   137  MET137      0.0692
     63  N         20.2860   13.5840    0.9660 N.3   140  GLY140     -0.1210
     64  CA        19.9990   13.8610    2.3660 C.3   140  GLY140      0.1956
     65  C         21.1890   14.0800    3.2950 C.2   140  GLY140      0.2611
     66  O         21.0250   14.5900    4.4080 O.2   140  GLY140     -0.2717
     67  N         22.3830   13.6850    2.8700 N.am  141  GLU141     -0.1979
     68  CA        23.5710   13.9540    3.6800 C.3   141  GLU141      0.1602
     69  C         24.5250   14.8750    2.9060 C.2   141  GLU141      0.2287
     70  O         25.7520   14.8520    3.1020 O.2   141  GLU141     -0.2864
     71  CB        24.2520   12.6490    4.1260 C.3   141  GLU141      0.0415
     72  CG        23.3580   11.6910    4.9580 C.3   141  GLU141      0.1163
     73  CD        22.9720   12.2270    6.3470 C.2   141  GLU141      0.3649
     74  OE1       22.2220   11.5230    7.0650 O.co2 141  GLU141     -0.2457
     75  OE2       23.4060   13.3390    6.7320 O.co2 141  GLU141     -0.2457
     76  N         11.2720    8.5430    7.2840 N.3   206  PHE206     -0.1241
     77  CA        11.8370    7.3010    6.7890 C.3   206  PHE206      0.1605
     78  C         10.8920    6.1510    7.1420 C.2   206  PHE206      0.2264
     79  O         10.3600    6.0930    8.2560 O.2   206  PHE206     -0.2867
     80  CB        13.2260    7.0580    7.3870 C.3   206  PHE206      0.0534
     81  CG        14.2300    8.1400    7.0780 C.ar  206  PHE206     -0.0203
     82  CD1       13.9310    9.1780    6.1870 C.ar  206  PHE206     -0.0042
     83  CD2       15.4820    8.1160    7.6710 C.ar  206  PHE206     -0.0042
     84  CE1       14.8560   10.1790    5.9120 C.ar  206  PHE206     -0.0003
     85  CE2       16.4150    9.1010    7.3970 C.ar  206  PHE206     -0.0003
     86  CZ        16.0900   10.1440    6.5210 C.ar  206  PHE206     -0.0000
     87  N         19.5870    0.4120    6.5800 N.3   289  GLN289     -0.1231
     88  CA        20.5010    1.5600    6.5680 C.3   289  GLN289      0.1698
     89  C         20.0270    2.7100    5.6700 C.2   289  GLN289      0.2592
     90  O         20.1980    3.8770    6.0320 O.2   289  GLN289     -0.2718
     91  CB        21.9180    1.1340    6.1860 C.3   289  GLN289      0.0381
     92  CG        22.0660    0.6190    4.7540 C.3   289  GLN289      0.0905
     93  CD        22.9890    1.4800    3.9000 C.2   289  GLN289      0.2608
     94  OE1       23.3840    2.5850    4.2880 O.2   289  GLN289     -0.2717
     95  NE2       23.3350    0.9690    2.7210 N.am  289  GLN289     -0.0878
     96  N         19.4530    2.3840    4.5070 N.am  290  TRP290     -0.1976
     97  CA        18.8590    3.3970    3.6280 C.3   290  TRP290      0.1640
     98  C         17.3450    3.3550    3.6450 C.2   290  TRP290      0.2290
     99  O         16.7010    4.3650    3.9270 O.2   290  TRP290     -0.2864
    100  CB        19.3440    3.2360    2.1970 C.3   290  TRP290      0.0576
    101  CG        20.6810    3.8470    1.9950 C.ar  290  TRP290      0.0006
    102  CD1       21.1710    4.9720    2.6050 C.ar  290  TRP290      0.0946
    103  CD2       21.7210    3.3570    1.1420 C.ar  290  TRP290      0.0152
    104  NE1       22.4500    5.2160    2.1640 N.ar  290  TRP290     -0.2442
    105  CE2       22.8120    4.2410    1.2670 C.ar  290  TRP290      0.0810
    106  CE3       21.8350    2.2680    0.2810 C.ar  290  TRP290      0.0012
    107  CZ2       24.0020    4.0570    0.5660 C.ar  290  TRP290      0.0191
    108  CZ3       23.0110    2.0890   -0.4250 C.ar  290  TRP290      0.0001
    109  CH2       24.0780    2.9790   -0.2790 C.ar  290  TRP290      0.0015
    110  N         18.1980   19.3240    0.4590 N.3   327  VAL327     -0.1245
    111  CA        18.2090   18.1750    1.3560 C.3   327  VAL327      0.1561
    112  C         16.7830   17.6800    1.6190 C.2   327  VAL327      0.2260
    113  O         16.5350   16.4740    1.7280 O.2   327  VAL327     -0.2867
    114  CB        18.9090   18.5460    2.6770 C.3   327  VAL327      0.0252
    115  CG1       18.6750   17.5110    3.7400 C.3   327  VAL327      0.0019
    116  CG2       20.3960   18.7210    2.4320 C.3   327  VAL327      0.0019
@<TRIPOS>BOND
     1    47    45   ar
     2    47    46   ar
     3    45    43   ar
     4    46    44   ar
     5    43    42   ar
     6    44    42   ar
     7    58    57    2
     8    42    41    1
     9    57    56    1
    10    41    38    1
    11    62    61    1
    12   108   109   ar
    13   108   106   ar
    14    20    21    1
    15   109   107   ar
    16    21    24    1
    17    21    22    1
    18    25    24    1
    19    25    26    1
    20    60    59    1
    21    60    61    1
    22   106   103   ar
    23    56    59    1
    24    56    55    1
    25    38    37    1
    26    38    39    1
    27   110   111    1
    28   107   105   ar
    29    29    22   am
    30    29    30    1
    31    34    36    1
    32    34    33    1
    33    37    31   am
    34    27    26   ar
    35    22    23    2
    36    63    64    1
    37    26    28   ar
    38   103   105   ar
    39   103   101   ar
    40    31    32    2
    41    31    30    1
    42   105   104   ar
    43   111   112    1
    44   111   114    1
    45    55    50   am
    46    39    40    2
    47    39    54    1
    48   112   113    2
    49    30    33    1
    50    51    50    2
    51    33    35    1
    52   101   100    1
    53   101   102   ar
    54   104   102   ar
    55   100    97    1
    56    50    49    1
    57    64    65    1
    58   116   114    1
    59    54    52    1
    60   114   115    1
    61    95    93   am
    62    67    65   am
    63    67    68    1
    64    69    70    2
    65    69    68    1
    66    65    66    2
    67    49    52    1
    68    49    48    1
    69    97    98    1
    70    97    96    1
    71    98    99    2
    72    52    53    1
    73    68    71    1
    74    93    94    2
    75    93    92    1
    76    71    72    1
    77    96    89   am
    78    15    14    2
    79    92    91    1
    80    72    73    1
    81    17    18    1
    82    17    16    1
    83    89    90    2
    84    89    88    1
    85    14    13    1
    86    18    19    1
    87    84    82   ar
    88    84    86   ar
    89    13    16    1
    90    13    12    1
    91    91    88    1
    92    82    81   ar
    93    73    75   ar
    94    73    74   ar
    95    86    85   ar
    96    88    87    1
    97    77    78    1
    98    77    76    1
    99    77    80    1
   100    81    80    1
   101    81    83   ar
   102    78    79    2
   103    85    83   ar
   104     4     3    2
   105     9    11   ar
   106     9     7   ar
   107    11    10   ar
   108     7     6   ar
   109    10     8   ar
   110     6     8   ar
   111     6     5    1
   112     5     2    1
   113     3     2    1
   114     2     1    1
