@<TRIPOS>MOLECULE
tmp/4m3bA00.pdb
 192 189 0 0 0
SMALL
GASTEIGER

@<TRIPOS>ATOM
      1  N         35.6270   -6.9730   -5.0920 N.3    63  LEU63      -0.1245
      2  CA        34.3550   -6.7260   -4.4200 C.3    63  LEU63       0.1561
      3  C         34.5220   -5.7380   -3.2370 C.2    63  LEU63       0.2260
      4  O         33.6690   -4.8630   -3.0240 O.2    63  LEU63      -0.2867
      5  CB        33.7170   -8.0750   -3.9710 C.3    63  LEU63       0.0270
      6  CG        32.2620   -8.0270   -3.5490 C.3    63  LEU63       0.0019
      7  CD1       31.3090   -7.6170   -4.7410 C.3    63  LEU63       0.0001
      8  CD2       31.8980   -9.4010   -2.9260 C.3    63  LEU63       0.0001
      9  N         34.5820   -2.1650   -4.8740 N.3    66  LEU66      -0.1245
     10  CA        33.2200   -1.6710   -5.1150 C.3    66  LEU66       0.1561
     11  C         32.5650   -1.1870   -3.8280 C.2    66  LEU66       0.2260
     12  O         31.8930   -0.1600   -3.8250 O.2    66  LEU66      -0.2867
     13  CB        32.3180   -2.7610   -5.7290 C.3    66  LEU66       0.0270
     14  CG        32.6300   -3.2010   -7.1570 C.3    66  LEU66       0.0019
     15  CD1       31.5360   -4.2020   -7.5930 C.3    66  LEU66       0.0001
     16  CD2       32.7700   -2.0180   -8.1250 C.3    66  LEU66       0.0001
     17  N         23.8660   -1.5650   -9.5070 N.3    73  MET73      -0.1230
     18  CA        24.6810   -1.9330   -8.3320 C.3    73  MET73       0.1702
     19  C         24.8720   -3.4470   -8.2290 C.2    73  MET73       0.2592
     20  O         25.9780   -3.9210   -8.0350 O.2    73  MET73      -0.2718
     21  CB        24.0600   -1.3810   -7.0390 C.3    73  MET73       0.0401
     22  CG        24.6840   -1.9740   -5.7350 C.3    73  MET73       0.0596
     23  SD        23.9140   -1.4060   -4.1780 S.3    73  MET73      -0.1393
     24  CE        22.4540   -2.4540   -4.1130 C.3    73  MET73       0.0692
     25  N         23.7860   -4.2140   -8.3690 N.am   74  TRP74      -0.1976
     26  CA        23.8880   -5.6780   -8.2950 C.3    74  TRP74       0.1640
     27  C         24.6490   -6.1950   -9.5070 C.2    74  TRP74       0.2290
     28  O         25.5140   -7.0680   -9.3830 O.2    74  TRP74      -0.2864
     29  CB        22.4700   -6.3500   -8.1870 C.3    74  TRP74       0.0576
     30  CG        21.8740   -6.0430   -6.8260 C.ar   74  TRP74       0.0006
     31  CD1       20.7840   -5.2440   -6.5580 C.ar   74  TRP74       0.0946
     32  CD2       22.3380   -6.5350   -5.5460 C.ar   74  TRP74       0.0152
     33  NE1       20.5490   -5.1950   -5.1820 N.ar   74  TRP74      -0.2442
     34  CE2       21.5010   -5.9410   -4.5380 C.ar   74  TRP74       0.0810
     35  CE3       23.4050   -7.3610   -5.1430 C.ar   74  TRP74       0.0012
     36  CZ2       21.6740   -6.1760   -3.1650 C.ar   74  TRP74       0.0191
     37  CZ3       23.5900   -7.5880   -3.7290 C.ar   74  TRP74       0.0001
     38  CH2       22.7070   -7.0300   -2.7760 C.ar   74  TRP74       0.0015
     39  N         28.3280   -5.7760   -8.9740 N.3    77  GLY77      -0.1210
     40  CA        28.8550   -6.8240   -8.0910 C.3    77  GLY77       0.1956
     41  C         28.9360   -8.2250   -8.7170 C.2    77  GLY77       0.2611
     42  O         29.9800   -8.9180   -8.6180 O.2    77  GLY77      -0.2717
     43  N         27.8550   -8.6810   -9.3500 N.am   78  ILE78      -0.1979
     44  CA        27.9380   -9.9920  -10.0240 C.3    78  ILE78       0.1595
     45  C         29.0350  -10.0120  -11.0670 C.2    78  ILE78       0.2287
     46  O         29.7370  -11.0260  -11.2560 O.2    78  ILE78      -0.2864
     47  CB        26.5680  -10.3700  -10.6470 C.3    78  ILE78       0.0276
     48  CG1       25.5020  -10.4700   -9.5020 C.3    78  ILE78       0.0022
     49  CG2       26.7020  -11.6290  -11.5250 C.3    78  ILE78       0.0022
     50  CD1       24.0310  -10.4300  -10.0430 C.3    78  ILE78       0.0001
     51  N         32.5760  -11.3490  -10.3870 N.3    81  PHE81      -0.1241
     52  CA        32.8150  -12.8000  -10.4430 C.3    81  PHE81       0.1605
     53  C         32.8100  -13.2920  -11.8810 C.2    81  PHE81       0.2264
     54  O         33.6600  -14.1070  -12.3070 O.2    81  PHE81      -0.2867
     55  CB        31.7090  -13.5070   -9.5870 C.3    81  PHE81       0.0534
     56  CG        31.8650  -13.1820   -8.1260 C.ar   81  PHE81      -0.0203
     57  CD1       32.8370  -13.8070   -7.3940 C.ar   81  PHE81      -0.0042
     58  CD2       31.1500  -12.1260   -7.5610 C.ar   81  PHE81      -0.0042
     59  CE1       33.0830  -13.4210   -6.0310 C.ar   81  PHE81      -0.0003
     60  CE2       31.3610  -11.7380   -6.2320 C.ar   81  PHE81      -0.0003
     61  CZ        32.3440  -12.4090   -5.4750 C.ar   81  PHE81      -0.0000
     62  N         36.4940  -14.7660  -12.6250 N.3    85  PHE85      -0.1241
     63  CA        36.6000  -16.2100  -12.8450 C.3    85  PHE85       0.1605
     64  C         36.5980  -16.5030  -14.3320 C.2    85  PHE85       0.2264
     65  O         37.2600  -17.4590  -14.8320 O.2    85  PHE85      -0.2867
     66  CB        35.4790  -16.9680  -12.0570 C.3    85  PHE85       0.0534
     67  CG        35.7640  -17.0490  -10.5770 C.ar   85  PHE85      -0.0203
     68  CD1       36.6420  -18.0310  -10.0880 C.ar   85  PHE85      -0.0042
     69  CD2       35.1860  -16.1750   -9.6880 C.ar   85  PHE85      -0.0042
     70  CE1       36.9720  -18.1170   -8.7260 C.ar   85  PHE85      -0.0003
     71  CE2       35.5490  -16.2240   -8.2640 C.ar   85  PHE85      -0.0003
     72  CZ        36.3840  -17.2140   -7.8060 C.ar   85  PHE85      -0.0000
     73  N         37.3100  -22.6470   -0.6650 N.3   109  TRP109     -0.1241
     74  CA        36.0590  -22.2920   -1.3710 C.3   109  TRP109      0.1605
     75  C         34.9410  -21.9180   -0.4020 C.2   109  TRP109      0.2264
     76  O         34.3450  -20.8370   -0.4510 O.2   109  TRP109     -0.2867
     77  CB        35.6110  -23.4050   -2.3550 C.3   109  TRP109      0.0550
     78  CG        34.5690  -22.8360   -3.2270 C.ar  109  TRP109      0.0003
     79  CD1       33.2120  -23.0740   -3.1650 C.ar  109  TRP109      0.0946
     80  CD2       34.7460  -21.7880   -4.2260 C.ar  109  TRP109      0.0152
     81  NE1       32.5680  -22.3360   -4.1350 N.ar  109  TRP109     -0.2442
     82  CE2       33.4750  -21.5250   -4.7760 C.ar  109  TRP109      0.0810
     83  CE3       35.8650  -21.1040   -4.7330 C.ar  109  TRP109      0.0012
     84  CZ2       33.2730  -20.5400   -5.7630 C.ar  109  TRP109      0.0191
     85  CZ3       35.6810  -20.1500   -5.7450 C.ar  109  TRP109      0.0001
     86  CH2       34.4030  -19.8790   -6.2490 C.ar  109  TRP109      0.0015
     87  N         33.0550  -18.3250   -0.0120 N.3   113  MET113     -0.1245
     88  CA        31.5320  -18.3420   -0.1830 C.3   113  MET113      0.1570
     89  C         30.7990  -17.8040    1.0600 C.2   113  MET113      0.2261
     90  O         29.8710  -16.9950    0.9500 O.2   113  MET113     -0.2867
     91  CB        31.0150  -19.7330   -0.5430 C.3   113  MET113      0.0387
     92  CG        31.4300  -20.1670   -1.9670 C.3   113  MET113      0.0595
     93  SD        30.6200  -19.1410   -3.2970 S.3   113  MET113     -0.1393
     94  CE        28.9490  -19.8530   -3.2260 C.3   113  MET113      0.0692
     95  N         31.2760  -14.0280    1.0420 N.3   116  TRP116     -0.1241
     96  CA        30.4820  -13.3280   -0.0260 C.3   116  TRP116      0.1605
     97  C         28.9600  -13.3280    0.2610 C.2   116  TRP116      0.2264
     98  O         28.1940  -12.3620   -0.0390 O.2   116  TRP116     -0.2867
     99  CB        30.7730  -14.0030   -1.3750 C.3   116  TRP116      0.0550
    100  CG        32.2660  -13.8520   -1.7810 C.ar  116  TRP116      0.0003
    101  CD1       33.1140  -12.7950   -1.4310 C.ar  116  TRP116      0.0946
    102  CD2       33.0620  -14.7490   -2.5880 C.ar  116  TRP116      0.0152
    103  NE1       34.3630  -12.9930   -2.0130 N.ar  116  TRP116     -0.2442
    104  CE2       34.3630  -14.1740   -2.7040 C.ar  116  TRP116      0.0810
    105  CE3       32.8160  -15.9620   -3.2190 C.ar  116  TRP116      0.0012
    106  CZ2       35.3860  -14.7760   -3.4340 C.ar  116  TRP116      0.0191
    107  CZ3       33.8630  -16.5920   -3.9290 C.ar  116  TRP116      0.0001
    108  CH2       35.1070  -15.9750   -4.0590 C.ar  116  TRP116      0.0015
    109  N         28.3030  -10.8750    3.0860 N.3   119  TYR119     -0.1227
    110  CA        28.2650   -9.5110    2.5660 C.3   119  TYR119      0.1736
    111  C         27.0150   -9.2490    1.7090 C.2   119  TYR119      0.2596
    112  O         26.3530   -8.2170    1.8070 O.2   119  TYR119     -0.2718
    113  CB        29.5750   -9.1980    1.8060 C.3   119  TYR119      0.0548
    114  CG        29.5750   -7.8950    1.1160 C.ar  119  TYR119     -0.0200
    115  CD1       29.4530   -6.6990    1.8300 C.ar  119  TYR119     -0.0009
    116  CD2       29.7360   -7.8360   -0.2650 C.ar  119  TYR119     -0.0009
    117  CE1       29.4550   -5.4580    1.1700 C.ar  119  TYR119      0.0417
    118  CE2       29.7510   -6.6060   -0.9300 C.ar  119  TYR119      0.0417
    119  CZ        29.5820   -5.4440   -0.2140 C.ar  119  TYR119      0.1957
    120  OH        29.5970   -4.2500   -0.8950 O.3   119  TYR119     -0.2866
    121  N         26.6560  -10.1960    0.8540 N.am  120  THR120     -0.1953
    122  CA        25.3720  -10.0680    0.1730 C.3   120  THR120      0.1897
    123  C         24.2590   -9.8310    1.1610 C.2   120  THR120      0.2313
    124  O         23.4130   -8.9740    0.9190 O.2   120  THR120     -0.2863
    125  CB        25.0060  -11.3910   -0.6280 C.3   120  THR120      0.1794
    126  OG1       26.0490  -11.6540   -1.5740 O.3   120  THR120     -0.2208
    127  CG2       23.6780  -11.2350   -1.3880 C.3   120  THR120      0.0378
    128  N         24.1160   -6.3500    2.5160 N.3   123  VAL123     -0.1245
    129  CA        23.5920   -5.3380    1.5810 C.3   123  VAL123      0.1561
    130  C         22.0850   -5.4160    1.4250 C.2   123  VAL123      0.2260
    131  O         21.3940   -4.3910    1.3710 O.2   123  VAL123     -0.2867
    132  CB        24.3510   -5.3650    0.1880 C.3   123  VAL123      0.0252
    133  CG1       23.7670   -4.3120   -0.8080 C.3   123  VAL123      0.0019
    134  CG2       25.9050   -5.1510    0.4380 C.3   123  VAL123      0.0019
    135  N         23.9260  -16.8260   -4.1520 N.3   147  ASN147     -0.1240
    136  CA        25.3400  -17.0710   -4.3040 C.3   147  ASN147      0.1653
    137  C         25.6010  -18.4660   -4.8960 C.2   147  ASN147      0.2266
    138  O         26.5150  -18.6530   -5.7060 O.2   147  ASN147     -0.2867
    139  CB        26.0590  -16.9270   -2.9360 C.3   147  ASN147      0.1155
    140  CG        26.5110  -15.4750   -2.6810 C.2   147  ASN147      0.2627
    141  OD1       27.7080  -15.1880   -2.8140 O.2   147  ASN147     -0.2716
    142  ND2       25.5900  -14.5770   -2.4790 N.am  147  ASN147     -0.0877
    143  N         24.7580  -18.5280   -8.4930 N.3   150  ASN150     -0.1225
    144  CA        25.7870  -17.9460   -9.3610 C.3   150  ASN150      0.1784
    145  C         26.9550  -18.8480   -9.5490 C.2   150  ASN150      0.2593
    146  O         27.5430  -18.9340  -10.6520 O.2   150  ASN150     -0.2718
    147  CB        26.3040  -16.6350   -8.7130 C.3   150  ASN150      0.1169
    148  CG        25.3470  -15.4890   -8.9780 C.2   150  ASN150      0.2627
    149  OD1       24.1470  -15.7200   -9.3470 O.2   150  ASN150     -0.2716
    150  ND2       25.8650  -14.2440   -8.8650 N.am  150  ASN150     -0.0877
    151  N         27.3870  -19.4600   -8.4400 N.am  151  GLU151     -0.2033
    152  CA        28.4720  -20.4470   -8.4990 C.3   151  GLU151      0.1288
    153  C         28.1720  -21.4630   -9.6310 C.3   151  GLU151      0.2036
    154  O         29.0050  -21.7270  -10.5780 O.3   151  GLU151     -0.2185
    155  CB        28.5400  -21.2000   -7.1350 C.3   151  GLU151      0.0362
    156  CG        29.6540  -22.2000   -7.1180 C.3   151  GLU151      0.1159
    157  CD        29.6840  -23.1730   -5.8910 C.2   151  GLU151      0.3649
    158  OE1       29.8530  -22.7240   -4.7870 O.co2 151  GLU151     -0.2457
    159  OE2       29.6340  -24.3910   -6.0710 O.co2 151  GLU151     -0.2457
    160  N         27.3760  -19.5440  -13.3740 N.3   154  LEU154     -0.1231
    161  CA        28.6260  -19.0440  -13.9760 C.3   154  LEU154      0.1693
    162  C         29.5530  -20.1360  -14.4740 C.2   154  LEU154      0.2592
    163  O         30.0730  -20.0870  -15.6220 O.2   154  LEU154     -0.2718
    164  CB        29.4650  -18.1810  -13.0070 C.3   154  LEU154      0.0284
    165  CG        28.7880  -16.7820  -12.7640 C.3   154  LEU154      0.0019
    166  CD1       29.5780  -16.0480  -11.6360 C.3   154  LEU154      0.0001
    167  CD2       28.5420  -15.8440  -14.0490 C.3   154  LEU154      0.0001
    168  N         29.8360  -21.0840  -13.5960 N.am  155  PHE155     -0.1976
    169  CA        30.8490  -22.0680  -13.9060 C.3   155  PHE155      0.1639
    170  C         30.3570  -23.0490  -14.9720 C.2   155  PHE155      0.2290
    171  O         31.1260  -23.4390  -15.8590 O.2   155  PHE155     -0.2864
    172  CB        31.2810  -22.7960  -12.6080 C.3   155  PHE155      0.0560
    173  CG        31.9360  -21.8450  -11.5890 C.ar  155  PHE155     -0.0200
    174  CD1       32.3630  -20.5390  -11.9780 C.ar  155  PHE155     -0.0042
    175  CD2       32.1160  -22.2460  -10.2760 C.ar  155  PHE155     -0.0042
    176  CE1       32.9330  -19.6560  -11.0390 C.ar  155  PHE155     -0.0003
    177  CE2       32.7440  -21.3830   -9.3290 C.ar  155  PHE155     -0.0003
    178  CZ        33.1430  -20.0940   -9.7120 C.ar  155  PHE155     -0.0000
    179  N         18.5330  -11.9040   -9.4090 N.3   178  TRP178     -0.1241
    180  CA        18.8850  -11.2530   -8.1350 C.3   178  TRP178      0.1605
    181  C         17.9270  -10.0960   -7.8430 C.2   178  TRP178      0.2264
    182  O         17.3630  -10.0260   -6.7780 O.2   178  TRP178     -0.2867
    183  CB        20.3210  -10.7210   -8.1160 C.3   178  TRP178      0.0550
    184  CG        21.3660  -11.8220   -7.8340 C.ar  178  TRP178      0.0003
    185  CD1       21.5310  -13.0100   -8.5350 C.ar  178  TRP178      0.0946
    186  CD2       22.4060  -11.7780   -6.8470 C.ar  178  TRP178      0.0152
    187  NE1       22.6040  -13.7250   -7.9720 N.ar  178  TRP178     -0.2442
    188  CE2       23.1530  -12.9760   -6.9570 C.ar  178  TRP178      0.0810
    189  CE3       22.7790  -10.8450   -5.8500 C.ar  178  TRP178      0.0012
    190  CZ2       24.2680  -13.2630   -6.0880 C.ar  178  TRP178      0.0191
    191  CZ3       23.8750  -11.1250   -5.0120 C.ar  178  TRP178      0.0001
    192  CH2       24.5970  -12.3210   -5.1230 C.ar  178  TRP178      0.0015
@<TRIPOS>BOND
     1   171   170    2
     2   163   162    2
     3   170   169    1
     4    65    64    2
     5   162   161    1
     6   162   168   am
     7    64    63    1
     8   167   165    1
     9   161   160    1
    10   161   164    1
    11   169   168    1
    12   169   172    1
    13   164   165    1
    14    63    62    1
    15    63    66    1
    16   165   166    1
    17   172   173    1
    18    54    53    2
    19    66    67    1
    20   174   173   ar
    21   174   176   ar
    22    53    52    1
    23   173   175   ar
    24    49    47    1
    25    46    45    2
    26    45    44    1
    27   176   178   ar
    28   146   145    2
    29    47    44    1
    30    47    48    1
    31   154   153    1
    32    67    68   ar
    33    67    69   ar
    34    52    51    1
    35    52    55    1
    36   175   177   ar
    37    68    70   ar
    38    50    48    1
    39    44    43    1
    40   178   177   ar
    41    69    71   ar
    42   153   152    1
    43    55    56    1
    44   145   144    1
    45   145   151   am
    46    27    28    2
    47    27    26    1
    48    17    18    1
    49   179   180    1
    50   144   147    1
    51   144   143    1
    52    43    41   am
    53   149   148    2
    54   148   150   am
    55   148   147    1
    56    39    40    1
    57    70    72   ar
    58    41    42    2
    59    41    40    1
    60   185   187   ar
    61   185   184   ar
    62   152   151    1
    63   152   155    1
    64    25    26    1
    65    25    19   am
    66    18    19    1
    67    18    21    1
    68    26    29    1
    69    71    72   ar
    70    19    20    2
    71    29    30    1
    72   180   183    1
    73   180   181    1
    74    56    58   ar
    75    56    57   ar
    76    16    14    1
    77   183   184    1
    78   187   188   ar
    79   181   182    2
    80   184   186   ar
    81    15    14    1
    82    58    60   ar
    83    57    59   ar
    84    14    13    1
    85   155   156    1
    86   156   157    1
    87    21    22    1
    88   188   186   ar
    89   188   190   ar
    90   186   189   ar
    91    30    31   ar
    92    30    32   ar
    93    31    33   ar
    94    86    84   ar
    95    86    85   ar
    96    60    61   ar
    97   190   192   ar
    98   159   157   ar
    99    59    61   ar
   100   157   158   ar
   101   189   191   ar
   102    84    82   ar
   103    85    83   ar
   104    22    23    1
   105    13    10    1
   106   138   137    2
   107    32    35   ar
   108    32    34   ar
   109    33    34   ar
   110    35    37   ar
   111   192   191   ar
   112    10     9    1
   113    10    11    1
   114     1     2    1
   115   137   136    1
   116    82    80   ar
   117    82    81   ar
   118     7     6    1
   119    83    80   ar
   120    34    36   ar
   121     2     5    1
   122     2     3    1
   123   136   135    1
   124   136   139    1
   125    80    78   ar
   126    23    24    1
   127    81    79   ar
   128   108   107   ar
   129   108   106   ar
   130     5     6    1
   131   107   105   ar
   132    11    12    2
   133    37    38   ar
   134     6     8    1
   135   106   104   ar
   136    93    94    1
   137    93    92    1
   138     3     4    2
   139    78    79   ar
   140    78    77    1
   141   105   102   ar
   142    36    38   ar
   143   139   140    1
   144   141   140    2
   145   104   102   ar
   146   104   103   ar
   147   140   142   am
   148   102   100   ar
   149    77    74    1
   150   103   101   ar
   151    92    91    1
   152   100   101   ar
   153   100    99    1
   154   126   125    1
   155   127   125    1
   156    99    96    1
   157    74    73    1
   158    74    75    1
   159   118   116   ar
   160   118   119   ar
   161   120   119    1
   162   133   132    1
   163   125   122    1
   164    91    88    1
   165    76    75    2
   166   116   114   ar
   167   119   117   ar
   168    88    87    1
   169    88    89    1
   170    98    97    2
   171    96    97    1
   172    96    95    1
   173   122   121    1
   174   122   123    1
   175   132   134    1
   176   132   129    1
   177   121   111   am
   178   124   123    2
   179    90    89    2
   180   114   113    1
   181   114   115   ar
   182   117   115   ar
   183   131   130    2
   184   130   129    1
   185   129   128    1
   186   111   112    2
   187   111   110    1
   188   113   110    1
   189   110   109    1
