@<TRIPOS>MOLECULE
tmp/4m3cH00.pdb
 90 88 0 0 0
SMALL
GASTEIGER

@<TRIPOS>ATOM
      1  N         28.5260   -7.2730   58.4230 N.3     2  GLU2       -0.1231
      2  CA        27.4210   -7.1700   57.4870 C.3     2  GLU2        0.1699
      3  C         27.8340   -6.1230   56.4910 C.2     2  GLU2        0.2592
      4  O         28.0960   -4.9670   56.8550 O.2     2  GLU2       -0.2718
      5  CB        26.1060   -6.8080   58.1890 C.3     2  GLU2        0.0402
      6  CG        25.7900   -7.6470   59.4250 C.3     2  GLU2        0.1161
      7  CD        25.5490   -9.1120   59.1050 C.2     2  GLU2        0.3649
      8  OE1       24.3610   -9.5570   59.0740 O.co2   2  GLU2       -0.2457
      9  OE2       26.5310   -9.8180   58.8490 O.co2   2  GLU2       -0.2457
     10  N         27.8870   -6.5310   55.2250 N.am    3  GLU3       -0.1966
     11  CA        28.4180   -5.6600   54.1480 C.3     3  GLU3        0.1733
     12  C         27.5230   -5.6550   52.9290 C.2     3  GLU3        0.2617
     13  O         27.1290   -6.7320   52.4490 O.2     3  GLU3       -0.2715
     14  CB        29.8360   -6.0690   53.7450 C.3     3  GLU3        0.0429
     15  CG        30.8250   -6.1020   54.9150 C.3     3  GLU3        0.1163
     16  CD        32.2340   -6.5000   54.4780 C.2     3  GLU3        0.3649
     17  OE1       32.5980   -6.2500   53.2930 O.co2   3  GLU3       -0.2457
     18  OE2       32.9980   -7.0510   55.3070 O.co2   3  GLU3       -0.2457
     19  N         27.1850   -4.4580   52.4340 N.am    4  THR4       -0.1951
     20  CA        26.5440   -4.3610   51.1400 C.3     4  THR4        0.1897
     21  C         27.2320   -3.3800   50.2290 C.2     4  THR4        0.2313
     22  O         27.6330   -2.3240   50.6600 O.2     4  THR4       -0.2863
     23  CB        24.9760   -4.2060   51.1800 C.3     4  THR4        0.1794
     24  OG1       24.5550   -3.2370   50.2120 O.3     4  THR4       -0.2208
     25  CG2       24.4990   -3.7620   52.4730 C.3     4  THR4        0.0378
     26  N         17.6810   -2.8900   51.2380 N.3    56  PRO56      -0.2102
     27  CA        17.9990   -2.1460   52.4440 C.3    56  PRO56       0.1504
     28  C         19.4160   -2.4490   52.8830 C.2    56  PRO56       0.2576
     29  O         19.8760   -3.5610   52.6420 O.2    56  PRO56      -0.2718
     30  CB        16.9930   -2.6960   53.4570 C.3    56  PRO56       0.0282
     31  CG        15.8400   -3.1130   52.6200 C.3    56  PRO56       0.0208
     32  CD        16.4030   -3.6160   51.3390 C.3    56  PRO56       0.0893
     33  N         20.0710   -1.4420   53.4770 N.am   57  ILE57      -0.1966
     34  CA        21.3430   -1.4920   54.1560 C.3    57  ILE57       0.1727
     35  C         21.1140   -1.3910   55.6800 C.2    57  ILE57       0.2616
     36  O         20.4090   -0.4750   56.1570 O.2    57  ILE57      -0.2715
     37  CB        22.1850   -0.2240   53.8430 C.3    57  ILE57       0.0290
     38  CG1       22.1070    0.1920   52.3680 C.3    57  ILE57       0.0022
     39  CG2       23.6240   -0.3320   54.3840 C.3    57  ILE57       0.0023
     40  CD1       22.2990   -0.9470   51.4160 C.3    57  ILE57       0.0001
     41  N         21.7210   -2.3020   56.4450 N.am   58  ASN58      -0.1972
     42  CA        21.8740   -2.1630   57.8870 C.3    58  ASN58       0.1688
     43  C         22.9770   -1.1210   58.1950 C.2    58  ASN58       0.2292
     44  O         24.1680   -1.4190   57.9690 O.2    58  ASN58      -0.2864
     45  CB        22.3600   -3.5120   58.4050 C.3    58  ASN58       0.1181
     46  CG        21.6750   -3.9510   59.6730 C.2    58  ASN58       0.2629
     47  OD1       21.2250   -3.1410   60.5000 O.2    58  ASN58      -0.2716
     48  ND2       21.6020   -5.2620   59.8440 N.am   58  ASN58      -0.0877
     49  N         27.5570    1.2840   61.2100 N.3    68  ALA68      -0.1245
     50  CA        28.2920    1.0050   60.0020 C.3    68  ALA68       0.1562
     51  C         29.2720    2.1340   59.6550 C.2    68  ALA68       0.2260
     52  O         29.0660    3.3060   59.9900 O.2    68  ALA68      -0.2867
     53  CB        27.3230    0.7780   58.8390 C.3    68  ALA68       0.0290
     54  N         17.7620    0.0810   59.6960 N.3   207  TRP207     -0.1241
     55  CA        17.7530   -0.2290   58.2750 C.3   207  TRP207      0.1605
     56  C         17.3410    0.9590   57.4530 C.2   207  TRP207      0.2264
     57  O         16.3770    1.6540   57.7740 O.2   207  TRP207     -0.2867
     58  CB        16.8810   -1.4230   57.9940 C.3   207  TRP207      0.0550
     59  CG        17.4700   -2.7470   58.4690 C.ar  207  TRP207      0.0003
     60  CD1       17.3400   -3.3380   59.7280 C.ar  207  TRP207      0.0946
     61  CD2       18.3120   -3.6940   57.6840 C.ar  207  TRP207      0.0152
     62  NE1       18.0190   -4.5360   59.7840 N.ar  207  TRP207     -0.2442
     63  CE2       18.6110   -4.8200   58.5860 C.ar  207  TRP207      0.0810
     64  CE3       18.8260   -3.7120   56.3810 C.ar  207  TRP207      0.0012
     65  CZ2       19.3910   -5.9130   58.1710 C.ar  207  TRP207      0.0191
     66  CZ3       19.6060   -4.8080   55.9770 C.ar  207  TRP207      0.0001
     67  CH2       19.8870   -5.8740   56.8470 C.ar  207  TRP207      0.0015
     68  N         29.2850   -0.5510   52.3430 N.3   235  SER235     -0.1202
     69  CA        29.1850   -0.3550   53.8120 C.3   235  SER235      0.2020
     70  C         29.6950   -1.5470   54.6100 C.2   235  SER235      0.2619
     71  O         29.6490   -2.7030   54.1730 O.2   235  SER235     -0.2717
     72  CB        27.7390   -0.0300   54.2240 C.3   235  SER235      0.2103
     73  OG        26.9450   -1.1780   53.9760 O.3   235  SER235     -0.2182
     74  N         30.1730   -1.2510   55.8070 N.am  236  LYS236     -0.1965
     75  CA        30.6740   -2.2730   56.7460 C.3   236  LYS236      0.1728
     76  C         30.1450   -1.9880   58.1640 C.2   236  LYS236      0.2616
     77  O         30.3590   -0.9130   58.6990 O.2   236  LYS236     -0.2715
     78  CB        32.2120   -2.3170   56.7360 C.3   236  LYS236      0.0311
     79  CG        32.8560   -3.2280   57.7860 C.3   236  LYS236      0.0038
     80  CD        34.3690   -3.2750   57.5920 C.3   236  LYS236      0.0206
     81  CE        34.6840   -4.0740   56.3330 C.3   236  LYS236      0.1093
     82  NZ        35.7050   -3.4480   55.4200 N.3   236  LYS236     -0.1314
     83  N         29.4410   -2.9570   58.7360 N.am  237  LEU237     -0.1977
     84  CA        28.9480   -2.8900   60.1140 C.3   237  LEU237      0.1596
     85  C         29.6200   -4.0420   60.8820 C.2   237  LEU237      0.2287
     86  O         29.3290   -5.2460   60.6120 O.2   237  LEU237     -0.2864
     87  CB        27.4430   -3.1110   60.0900 C.3   237  LEU237      0.0297
     88  CG        26.3660   -2.6900   61.1090 C.3   237  LEU237      0.0022
     89  CD1       25.5050   -3.9270   61.3880 C.3   237  LEU237      0.0001
     90  CD2       26.8000   -2.0500   62.4190 C.3   237  LEU237      0.0001
@<TRIPOS>BOND
     1    24    23    1
     2    21    22    2
     3    21    20    1
     4    20    23    1
     5    20    19    1
     6    23    25    1
     7    26    32    1
     8    26    27    1
     9    32    31    1
    10    40    38    1
    11    68    69    1
    12    38    37    1
    13    19    12   am
    14    27    28    1
    15    27    30    1
    16    13    12    2
    17    31    30    1
    18    29    28    2
    19    28    33   am
    20    12    11    1
    21    17    16   ar
    22    33    34    1
    23    14    11    1
    24    14    15    1
    25    69    72    1
    26    69    70    1
    27    37    34    1
    28    37    39    1
    29    73    72    1
    30    11    10    1
    31    34    35    1
    32    71    70    2
    33    16    15    1
    34    16    18   ar
    35    70    74   am
    36    10     3   am
    37    82    81    1
    38    35    36    2
    39    35    41   am
    40    74    75    1
    41    66    64   ar
    42    66    67   ar
    43    81    80    1
    44    64    61   ar
    45    41    42    1
    46     3     4    2
    47     3     2    1
    48    78    75    1
    49    78    79    1
    50    75    76    1
    51    67    65   ar
    52    56    57    2
    53    56    55    1
    54     2     5    1
    55     2     1    1
    56    80    79    1
    57    61    59   ar
    58    61    63   ar
    59    42    43    1
    60    42    45    1
    61    44    43    2
    62    58    55    1
    63    58    59    1
    64    76    77    2
    65    76    83   am
    66    65    63   ar
    67     5     6    1
    68    55    54    1
    69    45    46    1
    70    59    60   ar
    71    63    62   ar
    72    83    84    1
    73    53    50    1
    74     9     7   ar
    75     8     7   ar
    76     7     6    1
    77    51    52    2
    78    51    50    1
    79    46    48   am
    80    46    47    2
    81    60    62   ar
    82    50    49    1
    83    87    84    1
    84    87    88    1
    85    84    85    1
    86    86    85    2
    87    88    89    1
    88    88    90    1
