@<TRIPOS>MOLECULE
tmp/4m3dA00.pdb
 236 231 0 0 0
SMALL
GASTEIGER

@<TRIPOS>ATOM
      1  N         35.0230   -6.4620   -5.2220 N.3    65  LEU65      -0.1245
      2  CA        33.7350   -6.1920   -4.5280 C.3    65  LEU65       0.1561
      3  C         33.8400   -5.1850   -3.3370 C.2    65  LEU65       0.2260
      4  O         32.9630   -4.3270   -3.1660 O.2    65  LEU65      -0.2867
      5  CB        33.0610   -7.5300   -4.0860 C.3    65  LEU65       0.0270
      6  CG        31.6340   -7.3710   -3.5170 C.3    65  LEU65       0.0019
      7  CD1       30.6360   -6.9090   -4.6390 C.3    65  LEU65       0.0001
      8  CD2       31.0960   -8.6330   -2.7980 C.3    65  LEU65       0.0001
      9  N         34.1300   -1.8060   -4.9140 N.3    68  LEU68      -0.1231
     10  CA        32.8230   -1.3560   -5.3230 C.3    68  LEU68       0.1693
     11  C         31.9270   -0.9120   -4.1300 C.2    68  LEU68       0.2591
     12  O         31.2320    0.1440   -4.2020 O.2    68  LEU68      -0.2718
     13  CB        32.1610   -2.4750   -6.1150 C.3    68  LEU68       0.0284
     14  CG        30.8190   -2.1170   -6.7440 C.3    68  LEU68       0.0019
     15  CD1       30.9130   -0.9010   -7.7690 C.3    68  LEU68       0.0001
     16  CD2       30.2760   -3.3180   -7.5060 C.3    68  LEU68       0.0001
     17  N         31.9250   -1.7090   -3.0590 N.am   69  ALA69      -0.1980
     18  CA        31.1320   -1.4090   -1.8490 C.3    69  ALA69       0.1597
     19  C         31.4640   -0.0140   -1.3110 C.2    69  ALA69       0.2287
     20  O         30.5860    0.6700   -0.8660 O.2    69  ALA69      -0.2864
     21  CB        31.3870   -2.4690   -0.7340 C.3    69  ALA69       0.0319
     22  N         30.2600    3.1560   -4.4970 N.3    72  PRO72      -0.2116
     23  CA        29.0840    2.7620   -5.2610 C.3    72  PRO72       0.1372
     24  C         28.9410    3.5700   -6.5960 C.2    72  PRO72       0.2244
     25  O         29.3460    4.7500   -6.6700 O.2    72  PRO72      -0.2868
     26  CB        27.9110    3.0650   -4.2800 C.3    72  PRO72       0.0268
     27  CG        28.4580    4.1710   -3.3250 C.3    72  PRO72       0.0207
     28  CD        29.9070    3.6960   -3.1520 C.3    72  PRO72       0.0892
     29  N         19.0620    1.5370   -9.0550 N.3    77  ARG77      -0.1245
     30  CA        19.3560    0.3340   -8.2880 C.3    77  ARG77       0.1563
     31  C         19.5540   -0.9330   -9.1620 C.2    77  ARG77       0.2260
     32  O         20.3260   -1.7980   -8.7950 O.2    77  ARG77      -0.2867
     33  CB        18.2760    0.1520   -7.2130 C.3    77  ARG77       0.0307
     34  CG        17.0010   -0.3860   -7.7960 C.3    77  ARG77       0.0489
     35  CD        15.7850    0.2650   -7.1760 C.3    77  ARG77       0.2205
     36  NE        14.5930   -0.5070   -7.4970 N.pl3  77  ARG77      -0.0865
     37  CZ        13.4370   -0.3500   -6.8760 C.cat  77  ARG77       0.5346
     38  NH1       13.3100    0.5540   -5.8900 N.pl3  77  ARG77       0.1354
     39  NH2       12.4200   -1.1010   -7.2410 N.pl3  77  ARG77       0.1354
     40  N         23.0980   -0.7040  -10.2750 N.3    80  MET80      -0.1230
     41  CA        24.0120   -0.9810   -9.1590 C.3    80  MET80       0.1702
     42  C         24.1400   -2.4660   -8.9110 C.2    80  MET80       0.2592
     43  O         25.2500   -2.9460   -8.7630 O.2    80  MET80      -0.2718
     44  CB        23.5840   -0.2810   -7.8510 C.3    80  MET80       0.0401
     45  CG        23.4470    1.2750   -8.0550 C.3    80  MET80       0.0596
     46  SD        23.0140    2.0600   -6.4780 S.3    80  MET80      -0.1393
     47  CE        24.5740    1.7250   -5.6100 C.3    80  MET80       0.0692
     48  N         23.0170   -3.2010   -8.8560 N.am   81  TRP81      -0.1976
     49  CA        23.1470   -4.6380   -8.6610 C.3    81  TRP81       0.1640
     50  C         23.9180   -5.2760   -9.8230 C.2    81  TRP81       0.2290
     51  O         24.7080   -6.2090   -9.6040 O.2    81  TRP81      -0.2864
     52  CB        21.7690   -5.3160   -8.5070 C.3    81  TRP81       0.0576
     53  CG        21.1830   -5.0350   -7.1470 C.ar   81  TRP81       0.0006
     54  CD1       20.1810   -4.1170   -6.8370 C.ar   81  TRP81       0.0946
     55  CD2       21.6180   -5.5840   -5.9020 C.ar   81  TRP81       0.0152
     56  NE1       19.9270   -4.1310   -5.4850 N.ar   81  TRP81      -0.2442
     57  CE2       20.7980   -5.0040   -4.8730 C.ar   81  TRP81       0.0810
     58  CE3       22.5940   -6.5190   -5.5420 C.ar   81  TRP81       0.0012
     59  CZ2       20.9170   -5.3650   -3.5270 C.ar   81  TRP81       0.0191
     60  CZ3       22.7290   -6.8690   -4.1360 C.ar   81  TRP81       0.0001
     61  CH2       21.9010   -6.2840   -3.1730 C.ar   81  TRP81       0.0015
     62  N         27.5400   -4.9930   -9.3260 N.3    84  GLY84      -0.1210
     63  CA        28.0180   -5.9770   -8.3130 C.3    84  GLY84       0.1956
     64  C         28.1640   -7.3730   -8.8780 C.2    84  GLY84       0.2611
     65  O         29.2310   -8.0510   -8.7080 O.2    84  GLY84      -0.2717
     66  N         27.0700   -7.8670   -9.4900 N.am   85  ILE85      -0.1979
     67  CA        27.1380   -9.2010  -10.0980 C.3    85  ILE85       0.1595
     68  C         28.2980   -9.2700  -11.1180 C.2    85  ILE85       0.2287
     69  O         28.9960  -10.2710  -11.2230 O.2    85  ILE85      -0.2864
     70  CB        25.7640   -9.6270  -10.7210 C.3    85  ILE85       0.0276
     71  CG1       24.6790   -9.6200   -9.5960 C.3    85  ILE85       0.0022
     72  CG2       25.9440  -10.9840  -11.4680 C.3    85  ILE85       0.0022
     73  CD1       23.1720   -9.6180  -10.2010 C.3    85  ILE85       0.0001
     74  N         31.8120  -10.5930  -10.3870 N.3    88  PHE88      -0.1241
     75  CA        32.0400  -12.0630  -10.4560 C.3    88  PHE88       0.1605
     76  C         32.0380  -12.5490  -11.8960 C.2    88  PHE88       0.2264
     77  O         32.8420  -13.3810  -12.2590 O.2    88  PHE88      -0.2867
     78  CB        30.9640  -12.7710   -9.5750 C.3    88  PHE88       0.0534
     79  CG        31.1380  -12.4330   -8.1230 C.ar   88  PHE88      -0.0203
     80  CD1       32.0870  -13.1130   -7.3600 C.ar   88  PHE88      -0.0042
     81  CD2       30.4530  -11.3500   -7.5420 C.ar   88  PHE88      -0.0042
     82  CE1       32.2960  -12.7670   -6.0070 C.ar   88  PHE88      -0.0003
     83  CE2       30.6510  -11.0270   -6.2080 C.ar   88  PHE88      -0.0003
     84  CZ        31.5650  -11.7350   -5.4380 C.ar   88  PHE88      -0.0000
     85  N         35.7450  -14.1160  -12.5610 N.3    92  PHE92      -0.1241
     86  CA        35.7710  -15.5670  -12.8080 C.3    92  PHE92       0.1605
     87  C         35.7350  -15.8890  -14.2990 C.2    92  PHE92       0.2264
     88  O         36.3720  -16.8590  -14.7420 O.2    92  PHE92      -0.2867
     89  CB        34.6250  -16.2710  -12.0590 C.3    92  PHE92       0.0534
     90  CG        34.8860  -16.4170  -10.5760 C.ar   92  PHE92      -0.0203
     91  CD1       35.7350  -17.4670  -10.0930 C.ar   92  PHE92      -0.0042
     92  CD2       34.3400  -15.5290   -9.6750 C.ar   92  PHE92      -0.0042
     93  CE1       36.0340  -17.5870   -8.6920 C.ar   92  PHE92      -0.0003
     94  CE2       34.6540  -15.6080   -8.2660 C.ar   92  PHE92      -0.0003
     95  CZ        35.4540  -16.6160   -7.7720 C.ar   92  PHE92      -0.0000
     96  N         36.3950  -22.0060   -0.6210 N.3   116  TRP116     -0.1241
     97  CA        35.1170  -21.6160   -1.2990 C.3   116  TRP116      0.1605
     98  C         34.0430  -21.1890   -0.2740 C.2   116  TRP116      0.2264
     99  O         33.3590  -20.1280   -0.3800 O.2   116  TRP116     -0.2867
    100  CB        34.5980  -22.7100   -2.3100 C.3   116  TRP116      0.0550
    101  CG        33.5600  -22.1340   -3.2130 C.ar  116  TRP116      0.0003
    102  CD1       32.1980  -22.3820   -3.2220 C.ar  116  TRP116      0.0946
    103  CD2       33.7920  -21.1330   -4.2210 C.ar  116  TRP116      0.0152
    104  NE1       31.5860  -21.5860   -4.2110 N.ar  116  TRP116     -0.2442
    105  CE2       32.5450  -20.8120   -4.8080 C.ar  116  TRP116      0.0810
    106  CE3       34.9560  -20.4800   -4.6860 C.ar  116  TRP116      0.0012
    107  CZ2       32.4210  -19.8440   -5.8380 C.ar  116  TRP116      0.0191
    108  CZ3       34.8360  -19.5530   -5.7050 C.ar  116  TRP116      0.0001
    109  CH2       33.5740  -19.2240   -6.2580 C.ar  116  TRP116      0.0015
    110  N         32.1470  -17.5680    0.0820 N.3   120  MET120     -0.1245
    111  CA        30.6880  -17.5420   -0.1400 C.3   120  MET120      0.1570
    112  C         29.9880  -16.9960    1.1350 C.2   120  MET120      0.2261
    113  O         29.0250  -16.2210    1.0330 O.2   120  MET120     -0.2867
    114  CB        30.1580  -18.9200   -0.5350 C.3   120  MET120      0.0387
    115  CG        30.5500  -19.3700   -2.0070 C.3   120  MET120      0.0595
    116  SD        29.6990  -18.3810   -3.3060 S.3   120  MET120     -0.1393
    117  CE        27.9590  -18.8910   -3.2840 C.3   120  MET120      0.0692
    118  N         30.4900  -13.1540    1.0040 N.3   123  TRP123     -0.1241
    119  CA        29.6890  -12.5170   -0.0630 C.3   123  TRP123      0.1605
    120  C         28.2020  -12.5380    0.2300 C.2   123  TRP123      0.2264
    121  O         27.4820  -11.5890   -0.0270 O.2   123  TRP123     -0.2867
    122  CB        29.9530  -13.2110   -1.4010 C.3   123  TRP123      0.0550
    123  CG        31.4070  -13.0790   -1.7750 C.ar  123  TRP123      0.0003
    124  CD1       32.2860  -12.0710   -1.3750 C.ar  123  TRP123      0.0946
    125  CD2       32.1770  -13.9890   -2.5690 C.ar  123  TRP123      0.0152
    126  NE1       33.5390  -12.3130   -1.8910 N.ar  123  TRP123     -0.2442
    127  CE2       33.5050  -13.4650   -2.6310 C.ar  123  TRP123      0.0810
    128  CE3       31.8870  -15.2150   -3.2220 C.ar  123  TRP123      0.0012
    129  CZ2       34.5220  -14.0790   -3.3450 C.ar  123  TRP123      0.0191
    130  CZ3       32.9310  -15.8590   -3.9380 C.ar  123  TRP123      0.0001
    131  CH2       34.2440  -15.2570   -4.0080 C.ar  123  TRP123      0.0015
    132  N         27.5550   -9.9160    3.0490 N.3   126  TYR126     -0.1227
    133  CA        27.5270   -8.5700    2.4430 C.3   126  TYR126      0.1736
    134  C         26.2260   -8.3830    1.6330 C.2   126  TYR126      0.2596
    135  O         25.5320   -7.3950    1.7550 O.2   126  TYR126     -0.2718
    136  CB        28.7870   -8.4020    1.5480 C.3   126  TYR126      0.0548
    137  CG        28.7020   -7.1570    0.7560 C.ar  126  TYR126     -0.0200
    138  CD1       28.6130   -5.9160    1.4050 C.ar  126  TYR126     -0.0009
    139  CD2       28.6280   -7.2080   -0.6390 C.ar  126  TYR126     -0.0009
    140  CE1       28.4630   -4.7700    0.7030 C.ar  126  TYR126      0.0417
    141  CE2       28.5100   -6.0060   -1.3910 C.ar  126  TYR126      0.0417
    142  CZ        28.4140   -4.8110   -0.7140 C.ar  126  TYR126      0.1957
    143  OH        28.2340   -3.6420   -1.4500 O.3   126  TYR126     -0.2866
    144  N         25.8360   -9.3770    0.8510 N.am  127  THR127     -0.1953
    145  CA        24.5360   -9.2870    0.0940 C.3   127  THR127      0.1897
    146  C         23.3710   -9.0510    1.0680 C.2   127  THR127      0.2313
    147  O         22.4800   -8.1660    0.8590 O.2   127  THR127     -0.2863
    148  CB        24.2680  -10.6120   -0.7150 C.3   127  THR127      0.1794
    149  OG1       25.3480  -10.8580   -1.6220 O.3   127  THR127     -0.2208
    150  CG2       22.8970  -10.5390   -1.4780 C.3   127  THR127      0.0378
    151  N         23.3520   -5.4970    2.4060 N.3   130  VAL130     -0.1245
    152  CA        22.8370   -4.4810    1.4820 C.3   130  VAL130      0.1561
    153  C         21.2980   -4.6060    1.3580 C.2   130  VAL130      0.2260
    154  O         20.5840   -3.6170    1.3350 O.2   130  VAL130     -0.2867
    155  CB        23.5400   -4.5520    0.0690 C.3   130  VAL130      0.0252
    156  CG1       22.9070   -3.5680   -0.9390 C.3   130  VAL130      0.0019
    157  CG2       25.1150   -4.3590    0.1880 C.3   130  VAL130      0.0019
    158  N         18.6040   -1.6240    2.0930 N.3   134  GLU134     -0.1245
    159  CA        17.4900   -1.2890    1.2030 C.3   134  GLU134      0.1567
    160  C         16.1260   -1.3510    1.8850 C.2   134  GLU134      0.2260
    161  O         15.2170   -0.4970    1.6440 O.2   134  GLU134     -0.2867
    162  CB        17.5230   -2.2240   -0.0260 C.3   134  GLU134      0.0388
    163  CG        18.7770   -2.0030   -0.9450 C.3   134  GLU134      0.1160
    164  CD        18.7580   -0.6200   -1.6130 C.2   134  GLU134      0.3649
    165  OE1       18.2330   -0.4930   -2.7160 O.co2 134  GLU134     -0.2457
    166  OE2       19.2330    0.3590   -1.0090 O.co2 134  GLU134     -0.2457
    167  N         23.0730  -15.9850   -4.1510 N.3   154  ASN154     -0.1240
    168  CA        24.5250  -16.2960   -4.3660 C.3   154  ASN154      0.1653
    169  C         24.7760  -17.7020   -4.9200 C.2   154  ASN154      0.2266
    170  O         25.6750  -17.9100   -5.7740 O.2   154  ASN154     -0.2867
    171  CB        25.3480  -16.1420   -3.0350 C.3   154  ASN154      0.1155
    172  CG        25.7500  -14.6930   -2.7490 C.2   154  ASN154      0.2627
    173  OD1       26.9450  -14.3780   -2.7690 O.2   154  ASN154     -0.2716
    174  ND2       24.7900  -13.8160   -2.4360 N.am  154  ASN154     -0.0877
    175  N         23.9110  -17.6480   -8.5690 N.3   157  ASN157     -0.1225
    176  CA        24.9940  -17.0560   -9.3720 C.3   157  ASN157      0.1785
    177  C         26.1350  -18.0310   -9.5540 C.2   157  ASN157      0.2597
    178  O         26.6610  -18.1850  -10.6750 O.2   157  ASN157     -0.2718
    179  CB        25.5080  -15.7380   -8.7780 C.3   157  ASN157      0.1169
    180  CG        24.5220  -14.6070   -8.9950 C.2   157  ASN157      0.2627
    181  OD1       23.3460  -14.8830   -9.3420 O.2   157  ASN157     -0.2716
    182  ND2       24.9530  -13.3270   -8.7730 N.am  157  ASN157     -0.0877
    183  N         26.5650  -18.6230   -8.4480 N.am  158  GLU158     -0.1979
    184  CA        27.6120  -19.6560   -8.5670 C.3   158  GLU158      0.1602
    185  C         27.3140  -20.6650   -9.6890 C.2   158  GLU158      0.2287
    186  O         28.1330  -20.8690  -10.6400 O.2   158  GLU158     -0.2864
    187  CB        27.7450  -20.4090   -7.2440 C.3   158  GLU158      0.0415
    188  CG        28.9320  -21.3760   -7.2390 C.3   158  GLU158      0.1163
    189  CD        28.8260  -22.3720   -6.0790 C.2   158  GLU158      0.3649
    190  OE1       28.9150  -21.9440   -4.9240 O.co2 158  GLU158     -0.2457
    191  OE2       28.6910  -23.5820   -6.3140 O.co2 158  GLU158     -0.2457
    192  N         26.4870  -18.7350  -13.3630 N.3   161  LEU161     -0.1231
    193  CA        27.7850  -18.2300  -13.9520 C.3   161  LEU161      0.1693
    194  C         28.6890  -19.3660  -14.4220 C.2   161  LEU161      0.2592
    195  O         29.1260  -19.3900  -15.6070 O.2   161  LEU161     -0.2718
    196  CB        28.5740  -17.3050  -13.0140 C.3   161  LEU161      0.0284
    197  CG        27.9030  -15.9550  -12.7640 C.3   161  LEU161      0.0019
    198  CD1       28.6720  -15.1780  -11.6630 C.3   161  LEU161      0.0001
    199  CD2       27.7980  -15.0750  -14.0730 C.3   161  LEU161      0.0001
    200  N         28.9650  -20.2960  -13.5180 N.am  162  PHE162     -0.1976
    201  CA        29.9090  -21.3700  -13.8690 C.3   162  PHE162      0.1639
    202  C         29.4450  -22.3420  -14.9630 C.2   162  PHE162      0.2290
    203  O         30.2670  -22.7640  -15.7980 O.2   162  PHE162     -0.2864
    204  CB        30.4570  -22.0950  -12.6370 C.3   162  PHE162      0.0560
    205  CG        31.0900  -21.1220  -11.6050 C.ar  162  PHE162     -0.0200
    206  CD1       31.4170  -19.7720  -11.9750 C.ar  162  PHE162     -0.0042
    207  CD2       31.3330  -21.5340  -10.3110 C.ar  162  PHE162     -0.0042
    208  CE1       31.9710  -18.8210  -11.0080 C.ar  162  PHE162     -0.0003
    209  CE2       31.9200  -20.6470   -9.3590 C.ar  162  PHE162     -0.0003
    210  CZ        32.2270  -19.2800   -9.6890 C.ar  162  PHE162     -0.0000
    211  N         17.6670  -11.1400   -9.4160 N.3   185  TRP185     -0.1241
    212  CA        18.0170  -10.4400   -8.1850 C.3   185  TRP185      0.1605
    213  C         17.0660   -9.2820   -7.9120 C.2   185  TRP185      0.2264
    214  O         16.5280   -9.1900   -6.7860 O.2   185  TRP185     -0.2867
    215  CB        19.4610   -9.9360   -8.2000 C.3   185  TRP185      0.0550
    216  CG        20.4990  -10.9970   -7.9280 C.ar  185  TRP185      0.0003
    217  CD1       20.6980  -12.1970   -8.6060 C.ar  185  TRP185      0.0946
    218  CD2       21.5280  -10.9370   -6.9240 C.ar  185  TRP185      0.0152
    219  NE1       21.7810  -12.8720   -8.0490 N.ar  185  TRP185     -0.2442
    220  CE2       22.2920  -12.1280   -7.0150 C.ar  185  TRP185      0.0810
    221  CE3       21.8750   -9.9800   -5.9390 C.ar  185  TRP185      0.0012
    222  CZ2       23.4090  -12.3830   -6.1670 C.ar  185  TRP185      0.0191
    223  CZ3       22.9520  -10.2470   -5.0790 C.ar  185  TRP185      0.0001
    224  CH2       23.7140  -11.4360   -5.2010 C.ar  185  TRP185      0.0015
    225  N         13.1920   -6.6210   -4.6550 N.3   190  TYR190     -0.1241
    226  CA        12.2830   -5.4370   -4.5780 C.3   190  TYR190      0.1605
    227  C         10.8340   -5.8170   -4.7260 C.2   190  TYR190      0.2264
    228  O          9.9510   -4.9910   -4.4600 O.2   190  TYR190     -0.2867
    229  CB        12.6620   -4.3930   -5.6470 C.3   190  TYR190      0.0534
    230  CG        14.0260   -3.8350   -5.3440 C.ar  190  TYR190     -0.0201
    231  CD1       14.2140   -2.8930   -4.3230 C.ar  190  TYR190     -0.0009
    232  CD2       15.1420   -4.2710   -6.0420 C.ar  190  TYR190     -0.0009
    233  CE1       15.4960   -2.4490   -4.0080 C.ar  190  TYR190      0.0417
    234  CE2       16.4280   -3.7850   -5.7360 C.ar  190  TYR190      0.0417
    235  CZ        16.5830   -2.8950   -4.7300 C.ar  190  TYR190      0.1957
    236  OH        17.8390   -2.4020   -4.4440 O.3   190  TYR190     -0.2866
@<TRIPOS>BOND
     1   203   202    2
     2   195   194    2
     3   202   201    1
     4    88    87    2
     5   194   193    1
     6   194   200   am
     7    87    86    1
     8   199   197    1
     9   193   192    1
    10   193   196    1
    11   201   200    1
    12   201   204    1
    13   196   197    1
    14    86    85    1
    15    86    89    1
    16   197   198    1
    17   204   205    1
    18    77    76    2
    19    89    90    1
    20   206   205   ar
    21   206   208   ar
    22    76    75    1
    23   205   207   ar
    24    72    70    1
    25    69    68    2
    26    68    67    1
    27   208   210   ar
    28    70    67    1
    29    70    71    1
    30   178   177    2
    31   186   185    2
    32    90    91   ar
    33    90    92   ar
    34    75    74    1
    35    75    78    1
    36   207   209   ar
    37    40    41    1
    38    73    71    1
    39    67    66    1
    40    91    93   ar
    41    50    51    2
    42    50    49    1
    43   210   209   ar
    44   185   184    1
    45    92    94   ar
    46    78    79    1
    47   177   176    1
    48   177   183   am
    49    66    64   am
    50   211   212    1
    51   176   179    1
    52   176   175    1
    53   181   180    2
    54    62    63    1
    55    31    32    2
    56    31    30    1
    57    41    42    1
    58    41    44    1
    59    29    30    1
    60   180   179    1
    61   180   182   am
    62    42    48   am
    63    42    43    2
    64    64    65    2
    65    64    63    1
    66    48    49    1
    67    93    95   ar
    68    49    52    1
    69   217   219   ar
    70   217   216   ar
    71   184   183    1
    72   184   187    1
    73    52    53    1
    74    30    33    1
    75    94    95   ar
    76   215   212    1
    77   215   216    1
    78   212   213    1
    79    79    81   ar
    80    79    80   ar
    81    45    44    1
    82    45    46    1
    83   219   220   ar
    84   216   218   ar
    85   213   214    2
    86    34    33    1
    87    34    35    1
    88    15    14    1
    89    81    83   ar
    90    16    14    1
    91    36    35    1
    92    36    37    2
    93    80    82   ar
    94   187   188    1
    95    39    37    1
    96   188   189    1
    97    53    54   ar
    98    53    55   ar
    99   220   218   ar
   100   220   222   ar
   101   218   221   ar
   102    37    38    1
   103    54    56   ar
   104    14    13    1
   105    25    24    2
   106    24    23    1
   107    46    47    1
   108   191   189   ar
   109   109   107   ar
   110   109   108   ar
   111    83    84   ar
   112   222   224   ar
   113    13    10    1
   114   189   190   ar
   115   232   234   ar
   116   232   230   ar
   117    82    84   ar
   118   221   223   ar
   119    55    58   ar
   120    55    57   ar
   121   107   105   ar
   122   170   169    2
   123   234   235   ar
   124   108   106   ar
   125   229   230    1
   126   229   226    1
   127    58    60   ar
   128    56    57   ar
   129   230   231   ar
   130    10     9    1
   131    10    11    1
   132    23    22    1
   133    23    26    1
   134     1     2    1
   135   224   223   ar
   136   169   168    1
   137    57    59   ar
   138   105   103   ar
   139   105   104   ar
   140   235   236    1
   141   235   233   ar
   142   227   226    1
   143   227   228    2
   144   106   103   ar
   145   225   226    1
   146     7     6    1
   147     2     5    1
   148     2     3    1
   149    22    28    1
   150   168   167    1
   151   168   171    1
   152   231   233   ar
   153    26    27    1
   154   103   101   ar
   155   104   102   ar
   156    12    11    2
   157    60    61   ar
   158    11    17   am
   159     5     6    1
   160   131   130   ar
   161   131   129   ar
   162   130   128   ar
   163    59    61   ar
   164     6     8    1
   165   129   127   ar
   166     3     4    2
   167    27    28    1
   168   116   117    1
   169   116   115    1
   170   102   101   ar
   171   128   125   ar
   172   101   100    1
   173    17    18    1
   174   171   172    1
   175   173   172    2
   176   172   174   am
   177   165   164   ar
   178   127   125   ar
   179   127   126   ar
   180   125   123   ar
   181   100    97    1
   182   115   114    1
   183   126   124   ar
   184    18    19    1
   185    18    21    1
   186   123   122    1
   187   123   124   ar
   188   149   148    1
   189   164   166   ar
   190   164   163    1
   191   150   148    1
   192   143   142    1
   193   122   119    1
   194   141   142   ar
   195   141   139   ar
   196    19    20    2
   197    97    96    1
   198    97    98    1
   199   163   162    1
   200   156   155    1
   201   148   145    1
   202   142   140   ar
   203   139   137   ar
   204   114   111    1
   205    99    98    2
   206   111   110    1
   207   111   112    1
   208   119   120    1
   209   119   118    1
   210   121   120    2
   211   162   159    1
   212   155   157    1
   213   155   152    1
   214   145   144    1
   215   145   146    1
   216   140   138   ar
   217   137   138   ar
   218   137   136    1
   219   144   134   am
   220   147   146    2
   221   113   112    2
   222   159   160    1
   223   159   158    1
   224   154   153    2
   225   153   152    1
   226   152   151    1
   227   136   133    1
   228   134   135    2
   229   134   133    1
   230   161   160    2
   231   133   132    1
