@<TRIPOS>MOLECULE
tmp/4m3eA00.pdb
 209 206 0 0 0
SMALL
GASTEIGER

@<TRIPOS>ATOM
      1  N        -35.7470    6.8920   -5.1080 N.3    66  LEU66      -0.1245
      2  CA       -34.4490    6.5790   -4.4880 C.3    66  LEU66       0.1561
      3  C        -34.5320    5.5160   -3.3540 C.2    66  LEU66       0.2260
      4  O        -33.6570    4.6290   -3.2450 O.2    66  LEU66      -0.2867
      5  CB       -33.7250    7.8470   -4.0120 C.3    66  LEU66       0.0270
      6  CG       -32.2720    7.6650   -3.5420 C.3    66  LEU66       0.0019
      7  CD1      -31.3480    7.0820   -4.6220 C.3    66  LEU66       0.0001
      8  CD2      -31.7510    8.9910   -3.0520 C.3    66  LEU66       0.0001
      9  N        -34.5880    2.0260   -4.9550 N.3    69  LEU69      -0.1231
     10  CA       -33.2570    1.5920   -5.3220 C.3    69  LEU69       0.1693
     11  C        -32.5170    1.0750   -4.1010 C.2    69  LEU69       0.2591
     12  O        -31.9660   -0.0350   -4.1320 O.2    69  LEU69      -0.2718
     13  CB       -32.5060    2.7420   -5.9480 C.3    69  LEU69       0.0284
     14  CG       -31.9100    2.3770   -7.3020 C.3    69  LEU69       0.0019
     15  CD1      -32.3010    3.4290   -8.3270 C.3    69  LEU69       0.0001
     16  CD2      -30.3870    2.2030   -7.2070 C.3    69  LEU69       0.0001
     17  N        -32.5280    1.8690   -3.0230 N.am   70  ALA70      -0.1980
     18  CA       -31.9400    1.4410   -1.7480 C.3    70  ALA70       0.1597
     19  C        -32.3800    0.0110   -1.3480 C.2    70  ALA70       0.2287
     20  O        -31.5260   -0.8590   -1.2010 O.2    70  ALA70      -0.2864
     21  CB       -32.2260    2.4560   -0.6280 C.3    70  ALA70       0.0319
     22  N        -31.0810   -3.7020   -3.8930 N.3    73  PRO73      -0.2102
     23  CA       -29.7410   -3.3670   -4.4490 C.3    73  PRO73       0.1504
     24  C        -29.4280   -4.0010   -5.8280 C.2    73  PRO73       0.2575
     25  O        -29.3320   -5.2360   -5.9460 O.2    73  PRO73      -0.2718
     26  CB       -28.7570   -3.8520   -3.3640 C.3    73  PRO73       0.0282
     27  CG       -29.5630   -4.7600   -2.4610 C.3    73  PRO73       0.0208
     28  CD       -31.0080   -4.3200   -2.5550 C.3    73  PRO73       0.0893
     29  N        -29.2540   -3.1420   -6.8390 N.am   74  ALA74      -0.1980
     30  CA       -28.9020   -3.5730   -8.1960 C.3    74  ALA74       0.1597
     31  C        -27.5920   -4.3610   -8.2030 C.2    74  ALA74       0.2287
     32  O        -26.6220   -4.0000   -7.5140 O.2    74  ALA74      -0.2864
     33  CB       -28.8350   -2.3950   -9.1670 C.3    74  ALA74       0.0319
     34  N        -23.7440    1.1440   -9.8690 N.3    81  MET81      -0.1230
     35  CA       -24.4440    1.4450   -8.6220 C.3    81  MET81       0.1702
     36  C        -24.7250    2.9530   -8.5310 C.2    81  MET81       0.2592
     37  O        -25.8690    3.3830   -8.3450 O.2    81  MET81      -0.2718
     38  CB       -23.5880    0.9840   -7.4300 C.3    81  MET81       0.0401
     39  CG       -24.2910    1.0130   -6.0190 C.3    81  MET81       0.0596
     40  SD       -23.8870    2.2490   -4.7310 S.3    81  MET81      -0.1393
     41  CE       -22.2190    1.7680   -4.2510 C.3    81  MET81       0.0692
     42  N        -23.6700    3.7490   -8.6770 N.am   82  TRP82      -0.1976
     43  CA       -23.7680    5.2040   -8.5460 C.3    82  TRP82       0.1640
     44  C        -24.5510    5.8280   -9.7000 C.2    82  TRP82       0.2290
     45  O        -25.4010    6.7370   -9.4830 O.2    82  TRP82      -0.2864
     46  CB       -22.3750    5.8420   -8.4160 C.3    82  TRP82       0.0576
     47  CG       -21.7300    5.6000   -7.0930 C.ar   82  TRP82       0.0006
     48  CD1      -20.6290    4.8520   -6.8600 C.ar   82  TRP82       0.0946
     49  CD2      -22.1620    6.0920   -5.8140 C.ar   82  TRP82       0.0152
     50  NE1      -20.3350    4.8440   -5.5180 N.ar   82  TRP82      -0.2442
     51  CE2      -21.2480    5.6220   -4.8600 C.ar   82  TRP82       0.0810
     52  CE3      -23.2170    6.9210   -5.3910 C.ar   82  TRP82       0.0012
     53  CZ2      -21.3680    5.9080   -3.5050 C.ar   82  TRP82       0.0191
     54  CZ3      -23.3400    7.2030   -4.0430 C.ar   82  TRP82       0.0001
     55  CH2      -22.4190    6.7020   -3.1140 C.ar   82  TRP82       0.0015
     56  N        -28.2410    5.5000   -9.2570 N.3    85  GLY85      -0.1210
     57  CA       -28.6230    6.4750   -8.2660 C.3    85  GLY85       0.1956
     58  C        -28.7360    7.8850   -8.7900 C.2    85  GLY85       0.2611
     59  O        -29.7280    8.5520   -8.5580 O.2    85  GLY85      -0.2717
     60  N        -27.7350    8.3460   -9.5190 N.am   86  ILE86      -0.1979
     61  CA       -27.7870    9.6910  -10.0930 C.3    86  ILE86       0.1595
     62  C        -28.9940    9.7930  -11.0470 C.2    86  ILE86       0.2287
     63  O        -29.6530   10.8280  -11.1090 O.2    86  ILE86      -0.2864
     64  CB       -26.4440   10.0090  -10.7750 C.3    86  ILE86       0.0276
     65  CG1      -25.3110   10.0360   -9.7140 C.3    86  ILE86       0.0022
     66  CG2      -26.5080   11.2750  -11.5980 C.3    86  ILE86       0.0022
     67  CD1      -23.9260   10.4080  -10.2970 C.3    86  ILE86       0.0001
     68  N        -32.5750   11.2290  -10.4960 N.3    89  PHE89      -0.1241
     69  CA       -32.6920   12.6910  -10.5700 C.3    89  PHE89       0.1605
     70  C        -32.6770   13.2050  -12.0180 C.2    89  PHE89       0.2264
     71  O        -33.5580   14.0280  -12.3880 O.2    89  PHE89      -0.2867
     72  CB       -31.6180   13.3690   -9.6530 C.3    89  PHE89       0.0534
     73  CG       -31.7640   12.9860   -8.1950 C.ar   89  PHE89      -0.0203
     74  CD1      -32.7870   13.5100   -7.4350 C.ar   89  PHE89      -0.0042
     75  CD2      -30.9140   12.0460   -7.6170 C.ar   89  PHE89      -0.0042
     76  CE1      -32.9710   13.1000   -6.1190 C.ar   89  PHE89      -0.0003
     77  CE2      -31.0640   11.6430   -6.3090 C.ar   89  PHE89      -0.0003
     78  CZ       -32.1040   12.1520   -5.5470 C.ar   89  PHE89      -0.0000
     79  N        -36.4930   14.6670  -12.7170 N.3    93  PHE93      -0.1241
     80  CA       -36.6090   16.1230  -13.0070 C.3    93  PHE93       0.1605
     81  C        -36.4600   16.4280  -14.5020 C.2    93  PHE93       0.2264
     82  O        -36.7950   17.5440  -14.9750 O.2    93  PHE93      -0.2867
     83  CB       -35.5130   16.8690  -12.2310 C.3    93  PHE93       0.0534
     84  CG       -35.6530   16.7830  -10.7350 C.ar   93  PHE93      -0.0203
     85  CD1      -36.4740   17.6670  -10.0490 C.ar   93  PHE93      -0.0042
     86  CD2      -34.9340   15.8520  -10.0110 C.ar   93  PHE93      -0.0042
     87  CE1      -36.6000   17.5960   -8.6360 C.ar   93  PHE93      -0.0003
     88  CE2      -35.0540   15.7560   -8.6190 C.ar   93  PHE93      -0.0003
     89  CZ       -35.8870   16.6270   -7.9250 C.ar   93  PHE93      -0.0000
     90  N        -37.1930   22.4230   -0.6910 N.3   117  TRP117     -0.1241
     91  CA       -35.9540   22.0040   -1.3970 C.3   117  TRP117      0.1605
     92  C        -34.8830   21.6010   -0.3710 C.2   117  TRP117      0.2264
     93  O        -34.3410   20.4740   -0.3690 O.2   117  TRP117     -0.2867
     94  CB       -35.4660   23.0900   -2.3800 C.3   117  TRP117      0.0550
     95  CG       -34.2570   22.6540   -3.1710 C.ar  117  TRP117      0.0003
     96  CD1      -32.9530   23.0250   -2.9620 C.ar  117  TRP117      0.0946
     97  CD2      -34.2330   21.7220   -4.2630 C.ar  117  TRP117      0.0152
     98  NE1      -32.1200   22.3910   -3.8740 N.ar  117  TRP117     -0.2442
     99  CE2      -32.8800   21.5620   -4.6550 C.ar  117  TRP117      0.0810
    100  CE3      -35.2170   20.9960   -4.9360 C.ar  117  TRP117      0.0012
    101  CZ2      -32.5060   20.7340   -5.6910 C.ar  117  TRP117      0.0191
    102  CZ3      -34.8370   20.1670   -5.9650 C.ar  117  TRP117      0.0001
    103  CH2      -33.5040   20.0470   -6.3340 C.ar  117  TRP117      0.0015
    104  N        -32.7950   18.0130    0.1380 N.3   121  MET121     -0.1245
    105  CA       -31.3900   18.1050   -0.1350 C.3   121  MET121      0.1570
    106  C        -30.6070   17.5660    1.0660 C.2   121  MET121      0.2261
    107  O        -29.6500   16.8130    0.8740 O.2   121  MET121     -0.2867
    108  CB       -30.9740   19.5440   -0.5470 C.3   121  MET121      0.0387
    109  CG       -31.2760   19.8310   -2.0390 C.3   121  MET121      0.0595
    110  SD       -30.5160   18.7260   -3.3300 S.3   121  MET121     -0.1393
    111  CE       -28.8250   19.3910   -3.2690 C.3   121  MET121      0.0692
    112  N        -31.1970   13.6180    1.0410 N.3   124  TRP124     -0.1241
    113  CA       -30.3960   12.9050    0.0160 C.3   124  TRP124      0.1605
    114  C        -28.8720   13.0430    0.2610 C.2   124  TRP124      0.2264
    115  O        -28.0870   12.1420   -0.0470 O.2   124  TRP124     -0.2867
    116  CB       -30.7230   13.4270   -1.4000 C.3   124  TRP124      0.0550
    117  CG       -32.1930   13.3940   -1.8080 C.ar  124  TRP124      0.0003
    118  CD1      -33.1140   12.4360   -1.4810 C.ar  124  TRP124      0.0946
    119  CD2      -32.8920   14.3690   -2.6210 C.ar  124  TRP124      0.0152
    120  NE1      -34.3620   12.7600   -2.0240 N.ar  124  TRP124     -0.2442
    121  CE2      -34.2480   13.9360   -2.7290 C.ar  124  TRP124      0.0810
    122  CE3      -32.5090   15.5730   -3.2480 C.ar  124  TRP124      0.0012
    123  CZ2      -35.2200   14.6550   -3.4640 C.ar  124  TRP124      0.0191
    124  CZ3      -33.4590   16.2910   -3.9940 C.ar  124  TRP124      0.0001
    125  CH2      -34.8240   15.8320   -4.0780 C.ar  124  TRP124      0.0015
    126  N        -28.2440   10.4780    2.9890 N.3   127  TYR127     -0.1227
    127  CA       -28.1660    9.1330    2.4000 C.3   127  TYR127      0.1736
    128  C        -26.8370    8.8430    1.6030 C.2   127  TYR127      0.2596
    129  O        -26.2980    7.7370    1.6740 O.2   127  TYR127     -0.2718
    130  CB       -29.3990    8.8310    1.5430 C.3   127  TYR127      0.0548
    131  CG       -29.4010    7.3890    1.0750 C.ar  127  TYR127     -0.0200
    132  CD1      -29.2220    6.3420    1.9770 C.ar  127  TYR127     -0.0009
    133  CD2      -29.5540    7.0740   -0.2590 C.ar  127  TYR127     -0.0009
    134  CE1      -29.1900    5.0180    1.5520 C.ar  127  TYR127      0.0417
    135  CE2      -29.5280    5.7450   -0.7020 C.ar  127  TYR127      0.0417
    136  CZ       -29.3440    4.7240    0.2040 C.ar  127  TYR127      0.1957
    137  OH       -29.3020    3.3980   -0.2550 O.3   127  TYR127     -0.2866
    138  N        -26.3600    9.8360    0.8380 N.am  128  THR128     -0.1953
    139  CA       -25.0770    9.7800    0.1130 C.3   128  THR128      0.1897
    140  C        -23.9370    9.5300    1.1060 C.2   128  THR128      0.2313
    141  O        -23.0150    8.7640    0.8330 O.2   128  THR128     -0.2863
    142  CB       -24.7420   11.1450   -0.6310 C.3   128  THR128      0.1794
    143  OG1      -25.7910   11.5670   -1.5020 O.3   128  THR128     -0.2208
    144  CG2      -23.4120   11.0550   -1.4450 C.3   128  THR128      0.0378
    145  N        -23.9250    5.8470    2.5680 N.3   131  VAL131     -0.1245
    146  CA       -23.4240    4.9080    1.5830 C.3   131  VAL131      0.1561
    147  C        -21.8670    5.0470    1.4080 C.2   131  VAL131      0.2260
    148  O        -21.1230    4.0550    1.3550 O.2   131  VAL131     -0.2867
    149  CB       -24.2320    5.0550    0.2870 C.3   131  VAL131      0.0252
    150  CG1      -23.6990    4.1750   -0.7760 C.3   131  VAL131      0.0019
    151  CG2      -25.7960    4.7770    0.5300 C.3   131  VAL131      0.0019
    152  N        -23.7710   16.7800   -4.1360 N.3   155  ASN155     -0.1240
    153  CA       -25.1780   16.9300   -4.3600 C.3   155  ASN155      0.1653
    154  C        -25.4680   18.2650   -4.9810 C.2   155  ASN155      0.2266
    155  O        -26.3950   18.3930   -5.8010 O.2   155  ASN155     -0.2867
    156  CB       -25.9270   16.7680   -3.0370 C.3   155  ASN155      0.1155
    157  CG       -26.4000   15.3230   -2.8170 C.2   155  ASN155      0.2627
    158  OD1      -27.6040   15.0400   -2.8920 O.2   155  ASN155     -0.2716
    159  ND2      -25.4610   14.4130   -2.5530 N.am  155  ASN155     -0.0877
    160  N        -24.5400   18.2290   -8.6670 N.3   158  ASN158     -0.1225
    161  CA       -25.6220   17.6540   -9.4470 C.3   158  ASN158      0.1785
    162  C        -26.8370   18.5950   -9.5860 C.2   158  ASN158      0.2597
    163  O        -27.4220   18.7270  -10.6600 O.2   158  ASN158     -0.2718
    164  CB       -26.0750   16.3570   -8.7740 C.3   158  ASN158      0.1169
    165  CG       -25.1000   15.2290   -9.0010 C.2   158  ASN158      0.2627
    166  OD1      -23.8910   15.4670   -9.1900 O.2   158  ASN158     -0.2716
    167  ND2      -25.6160   13.9760   -9.0500 N.am  158  ASN158     -0.0877
    168  N        -27.2640   19.1890   -8.4860 N.am  159  GLU159     -0.1979
    169  CA       -28.2900   20.2010   -8.5740 C.3   159  GLU159      0.1602
    170  C        -28.0230   21.1410   -9.7470 C.2   159  GLU159      0.2287
    171  O        -28.7910   21.2230  -10.7420 O.2   159  GLU159     -0.2864
    172  CB       -28.3300   21.0150   -7.2690 C.3   159  GLU159      0.0415
    173  CG       -29.5690   21.8530   -7.2000 C.3   159  GLU159      0.1163
    174  CD       -29.5870   22.7990   -6.0330 C.2   159  GLU159      0.3649
    175  OE1      -29.7090   22.3360   -4.8960 O.co2 159  GLU159     -0.2457
    176  OE2      -29.4970   24.0160   -6.2550 O.co2 159  GLU159     -0.2457
    177  N        -27.3570   19.3600  -13.3830 N.3   162  LEU162     -0.1231
    178  CA       -28.5760   18.8510  -14.0220 C.3   162  LEU162      0.1693
    179  C        -29.4540   19.9830  -14.4900 C.2   162  LEU162      0.2592
    180  O        -29.9920   19.9510  -15.6180 O.2   162  LEU162     -0.2718
    181  CB       -29.3660   17.9450  -13.0860 C.3   162  LEU162      0.0284
    182  CG       -28.7050   16.5520  -12.9710 C.3   162  LEU162      0.0019
    183  CD1      -29.1490   15.7830  -11.7480 C.3   162  LEU162      0.0001
    184  CD2      -28.9140   15.7530  -14.2380 C.3   162  LEU162      0.0001
    185  N        -29.5960   21.0010  -13.6570 N.am  163  PHE163     -0.1976
    186  CA       -30.6180   21.9870  -13.9910 C.3   163  PHE163      0.1639
    187  C        -30.1580   22.8950  -15.0890 C.2   163  PHE163      0.2290
    188  O        -30.9710   23.3050  -15.8920 O.2   163  PHE163     -0.2864
    189  CB       -31.2040   22.7370  -12.7760 C.3   163  PHE163      0.0560
    190  CG       -31.7870   21.8370  -11.7380 C.ar  163  PHE163     -0.0200
    191  CD1      -32.1810   20.5140  -12.0580 C.ar  163  PHE163     -0.0042
    192  CD2      -31.9330   22.2720  -10.4410 C.ar  163  PHE163     -0.0042
    193  CE1      -32.7000   19.6490  -11.0760 C.ar  163  PHE163     -0.0003
    194  CE2      -32.4970   21.4370   -9.4590 C.ar  163  PHE163     -0.0003
    195  CZ       -32.8720   20.1190   -9.7730 C.ar  163  PHE163     -0.0000
    196  N        -18.4040   11.8370   -9.3510 N.3   186  TRP186     -0.1241
    197  CA       -18.7150   11.0540   -8.1110 C.3   186  TRP186      0.1605
    198  C        -17.7340    9.8990   -7.8700 C.2   186  TRP186      0.2264
    199  O        -17.1050    9.8070   -6.7820 O.2   186  TRP186     -0.2867
    200  CB       -20.1420   10.5020   -8.1070 C.3   186  TRP186      0.0550
    201  CG       -21.2000   11.5660   -7.9410 C.ar  186  TRP186      0.0003
    202  CD1      -21.3370   12.7140   -8.6830 C.ar  186  TRP186      0.0946
    203  CD2      -22.2310   11.6070   -6.9450 C.ar  186  TRP186      0.0152
    204  NE1      -22.4040   13.4620   -8.2280 N.ar  186  TRP186     -0.2442
    205  CE2      -22.9530   12.8180   -7.1400 C.ar  186  TRP186      0.0810
    206  CE3      -22.6040   10.7550   -5.8910 C.ar  186  TRP186      0.0012
    207  CZ2      -24.0610   13.1780   -6.3130 C.ar  186  TRP186      0.0191
    208  CZ3      -23.6950   11.0920   -5.1090 C.ar  186  TRP186      0.0001
    209  CH2      -24.4210   12.2820   -5.3240 C.ar  186  TRP186      0.0015
@<TRIPOS>BOND
     1   188   187    2
     2   180   179    2
     3   187   186    1
     4    82    81    2
     5    81    80    1
     6   179   178    1
     7   179   185   am
     8   184   182    1
     9   178   177    1
    10   178   181    1
    11   186   185    1
    12   186   189    1
    13   181   182    1
    14    80    79    1
    15    80    83    1
    16   182   183    1
    17   189   190    1
    18    71    70    2
    19    83    84    1
    20   191   190   ar
    21   191   193   ar
    22    70    69    1
    23   190   192   ar
    24    66    64    1
    25    63    62    2
    26   193   195   ar
    27    62    61    1
    28    64    61    1
    29    64    65    1
    30   171   170    2
    31    84    85   ar
    32    84    86   ar
    33   163   162    2
    34    69    68    1
    35    69    72    1
    36   192   194   ar
    37    67    65    1
    38    61    60    1
    39    85    87   ar
    40    86    88   ar
    41    34    35    1
    42   195   194   ar
    43   170   169    1
    44    44    45    2
    45    44    43    1
    46    72    73    1
    47   162   161    1
    48   162   168   am
    49    60    58   am
    50   161   164    1
    51   161   160    1
    52   196   197    1
    53    56    57    1
    54   166   165    2
    55    33    30    1
    56   167   165   am
    57   165   164    1
    58    58    59    2
    59    58    57    1
    60   202   204   ar
    61   202   201   ar
    62    42    43    1
    63    42    36   am
    64    87    89   ar
    65    35    36    1
    66    35    38    1
    67    88    89   ar
    68   169   168    1
    69   169   172    1
    70    43    46    1
    71    36    37    2
    72    46    47    1
    73    15    14    1
    74   204   205   ar
    75    31    30    1
    76    31    32    2
    77    30    29    1
    78    73    75   ar
    79    73    74   ar
    80   197   200    1
    81   197   198    1
    82   200   201    1
    83   201   203   ar
    84   198   199    2
    85    75    77   ar
    86    74    76   ar
    87    38    39    1
    88    14    16    1
    89    14    13    1
    90   172   173    1
    91   173   174    1
    92   205   203   ar
    93   205   207   ar
    94    47    48   ar
    95    47    49   ar
    96   203   206   ar
    97    48    50   ar
    98    29    24   am
    99   103   102   ar
   100   103   101   ar
   101   207   209   ar
   102    77    78   ar
   103   176   174   ar
   104    76    78   ar
   105   174   175   ar
   106    39    40    1
   107   102   100   ar
   108    13    10    1
   109    25    24    2
   110   206   208   ar
   111    24    23    1
   112    49    52   ar
   113    49    51   ar
   114   155   154    2
   115   101    99   ar
   116    50    51   ar
   117    52    54   ar
   118   209   208   ar
   119    10     9    1
   120    10    11    1
   121     1     2    1
   122   154   153    1
   123   100    97   ar
   124    51    53   ar
   125    40    41    1
   126    99    97   ar
   127    99    98   ar
   128     7     6    1
   129     2     5    1
   130     2     3    1
   131    23    22    1
   132    23    26    1
   133   153   152    1
   134   153   156    1
   135    97    95   ar
   136    12    11    2
   137    11    17   am
   138   125   124   ar
   139   125   123   ar
   140    54    55   ar
   141     5     6    1
   142   124   122   ar
   143    22    28    1
   144    98    96   ar
   145     6     8    1
   146    53    55   ar
   147   123   121   ar
   148    26    27    1
   149     3     4    2
   150   110   111    1
   151   110   109    1
   152   122   119   ar
   153    95    96   ar
   154    95    94    1
   155   156   157    1
   156    17    18    1
   157   158   157    2
   158   157   159   am
   159   121   119   ar
   160   121   120   ar
   161   119   117   ar
   162    28    27    1
   163    94    91    1
   164   109   108    1
   165   120   118   ar
   166   117   118   ar
   167   117   116    1
   168    18    19    1
   169    18    21    1
   170   143   142    1
   171   144   142    1
   172   116   113    1
   173    91    90    1
   174    91    92    1
   175    19    20    2
   176   150   149    1
   177   135   133   ar
   178   135   136   ar
   179   142   139    1
   180   108   105    1
   181    92    93    2
   182   133   131   ar
   183   137   136    1
   184   105   104    1
   185   105   106    1
   186   115   114    2
   187   113   114    1
   188   113   112    1
   189   139   138    1
   190   139   140    1
   191   136   134   ar
   192   149   151    1
   193   149   146    1
   194   141   140    2
   195   138   128   am
   196   107   106    2
   197   131   130    1
   198   131   132   ar
   199   148   147    2
   200   147   146    1
   201   130   127    1
   202   134   132   ar
   203   146   145    1
   204   128   129    2
   205   128   127    1
   206   127   126    1
