@<TRIPOS>MOLECULE
tmp/4m3fA00.pdb
 192 189 0 0 0
SMALL
GASTEIGER

@<TRIPOS>ATOM
      1  N          6.6040   35.4420    3.4860 N.3    66  LEU66      -0.1245
      2  CA         6.3150   34.1170    4.1050 C.3    66  LEU66       0.1561
      3  C          5.2680   34.2140    5.2780 C.2    66  LEU66       0.2260
      4  O          4.3800   33.3540    5.4000 O.2    66  LEU66      -0.2867
      5  CB         7.5990   33.4510    4.5730 C.3    66  LEU66       0.0270
      6  CG         7.4870   31.9800    5.0000 C.3    66  LEU66       0.0019
      7  CD1        7.2060   31.0440    3.7440 C.3    66  LEU66       0.0001
      8  CD2        8.7600   31.5000    5.8110 C.3    66  LEU66       0.0001
      9  N          1.6750   34.3580    3.6920 N.3    69  LEU69      -0.1245
     10  CA         1.2140   33.0000    3.3880 C.3    69  LEU69       0.1561
     11  C          0.6720   32.2470    4.6120 C.2    69  LEU69       0.2260
     12  O         -0.3680   31.5690    4.5500 O.2    69  LEU69      -0.2867
     13  CB         2.3960   32.2340    2.8140 C.3    69  LEU69       0.0270
     14  CG         2.2130   31.4810    1.5020 C.3    69  LEU69       0.0019
     15  CD1        1.2360   32.1820    0.5160 C.3    69  LEU69       0.0001
     16  CD2        3.5960   31.2730    0.8680 C.3    69  LEU69       0.0001
     17  N          1.2030   23.4850   -1.0150 N.3    81  MET81      -0.1182
     18  CA         1.4850   24.3050    0.1350 C.3    81  MET81       0.1917
     19  C          2.9940   24.5340    0.1840 C.2    81  MET81       0.2634
     20  O          3.4600   25.6560    0.4290 O.2    81  MET81      -0.2714
     21  CB         1.0190   23.5940    1.4270 C.2    81  MET81       0.0083
     22  CG         1.5430   24.2180    2.7690 C.2    81  MET81       0.0282
     23  SD         1.0260   23.3810    4.2900 S.3    81  MET81      -0.1125
     24  CE         2.0080   21.8350    4.2280 C.3    81  MET81       0.0742
     25  N          3.7480   23.4320    0.0520 N.am   82  TRP82      -0.1973
     26  CA         5.2150   23.4920    0.1810 C.3    82  TRP82       0.1640
     27  C          5.7320   24.3000   -0.9780 C.2    82  TRP82       0.2290
     28  O          6.6290   25.1450   -0.8020 O.2    82  TRP82      -0.2864
     29  CB         5.8480   22.0680    0.2620 C.3    82  TRP82       0.0576
     30  CG         5.6270   21.4660    1.6800 C.ar   82  TRP82       0.0006
     31  CD1        4.8400   20.3630    2.0090 C.ar   82  TRP82       0.0946
     32  CD2        6.1360   21.9710    2.9310 C.ar   82  TRP82       0.0152
     33  NE1        4.8480   20.1610    3.3900 N.ar   82  TRP82      -0.2442
     34  CE2        5.6370   21.1260    3.9710 C.ar   82  TRP82       0.0810
     35  CE3        6.9370   23.0670    3.2790 C.ar   82  TRP82       0.0012
     36  CZ2        5.9460   21.3300    5.3240 C.ar   82  TRP82       0.0191
     37  CZ3        7.2370   23.2800    4.6520 C.ar   82  TRP82       0.0001
     38  CH2        6.7470   22.4160    5.6430 C.ar   82  TRP82       0.0015
     39  N          5.3570   28.0080   -0.6050 N.3    85  GLY85      -0.1210
     40  CA         6.3230   28.4960    0.3660 C.3    85  GLY85       0.1956
     41  C          7.7460   28.6670   -0.1790 C.2    85  GLY85       0.2611
     42  O          8.3800   29.7550   -0.0300 O.2    85  GLY85      -0.2717
     43  N          8.2870   27.5670   -0.7320 N.am   86  ILE86      -0.1979
     44  CA         9.5650   27.5820   -1.4790 C.3    86  ILE86       0.1595
     45  C          9.5080   28.6640   -2.5600 C.2    86  ILE86       0.2287
     46  O         10.4950   29.3270   -2.7780 O.2    86  ILE86      -0.2864
     47  CB         9.8810   26.1710   -2.1140 C.3    86  ILE86       0.0276
     48  CG1       10.0510   25.1200   -0.9940 C.3    86  ILE86       0.0022
     49  CG2       11.1760   26.1910   -2.9390 C.3    86  ILE86       0.0022
     50  CD1       10.0140   23.6360   -1.5360 C.3    86  ILE86       0.0001
     51  N         10.8240   32.2620   -1.7740 N.3    89  PHE89      -0.1241
     52  CA        12.2800   32.4560   -1.8790 C.3    89  PHE89       0.1605
     53  C         12.7760   32.5090   -3.3060 C.2    89  PHE89       0.2264
     54  O         13.5160   33.4220   -3.6270 O.2    89  PHE89      -0.2867
     55  CB        13.0150   31.4280   -0.9430 C.3    89  PHE89       0.0534
     56  CG        12.6450   31.6370    0.4830 C.ar   89  PHE89      -0.0203
     57  CD1       13.2780   32.6220    1.2370 C.ar   89  PHE89      -0.0042
     58  CD2       11.5580   30.9740    1.0280 C.ar   89  PHE89      -0.0042
     59  CE1       12.8940   32.8900    2.5440 C.ar   89  PHE89      -0.0003
     60  CE2       11.1290   31.2190    2.3480 C.ar   89  PHE89      -0.0003
     61  CZ        11.7830   32.1540    3.1330 C.ar   89  PHE89      -0.0000
     62  N         14.3460   36.1140   -4.0740 N.3    93  PHE93      -0.1241
     63  CA        15.8060   36.2530   -4.2800 C.3    93  PHE93       0.1605
     64  C         16.0790   36.2950   -5.7530 C.2    93  PHE93       0.2264
     65  O         17.0410   36.9350   -6.2400 O.2    93  PHE93      -0.2867
     66  CB        16.5180   35.0890   -3.5690 C.3    93  PHE93       0.0534
     67  CG        16.5480   35.2720   -2.1310 C.ar   93  PHE93      -0.0203
     68  CD1       17.5250   36.1040   -1.5600 C.ar   93  PHE93      -0.0042
     69  CD2       15.6360   34.6550   -1.3170 C.ar   93  PHE93      -0.0042
     70  CE1       17.5690   36.3280   -0.1780 C.ar   93  PHE93      -0.0003
     71  CE2       15.6470   34.8870    0.0820 C.ar   93  PHE93      -0.0003
     72  CZ        16.6080   35.7200    0.6490 C.ar   93  PHE93      -0.0000
     73  N         22.2150   36.7750    7.8600 N.3   117  TRP117     -0.1241
     74  CA        21.8580   35.5300    7.1630 C.3   117  TRP117      0.1605
     75  C         21.4850   34.4470    8.1750 C.2   117  TRP117      0.2264
     76  O         20.3700   33.8950    8.1750 O.2   117  TRP117     -0.2867
     77  CB        23.0070   35.0840    6.2260 C.3   117  TRP117      0.0550
     78  CG        22.5380   34.0680    5.3490 C.ar  117  TRP117      0.0003
     79  CD1       22.7650   32.6690    5.4110 C.ar  117  TRP117      0.0946
     80  CD2       21.6410   34.2830    4.2770 C.ar  117  TRP117      0.0152
     81  NE1       22.0650   32.0440    4.3820 N.ar  117  TRP117     -0.2442
     82  CE2       21.3530   33.0090    3.6940 C.ar  117  TRP117      0.0810
     83  CE3       21.0450   35.4270    3.7440 C.ar  117  TRP117      0.0012
     84  CZ2       20.5070   32.8880    2.5970 C.ar  117  TRP117      0.0191
     85  CZ3       20.2250   35.2980    2.6530 C.ar  117  TRP117      0.0001
     86  CH2       19.9670   34.0520    2.0850 C.ar  117  TRP117      0.0015
     87  N         17.9130   32.5360    8.6300 N.3   121  MET121     -0.1245
     88  CA        17.9240   31.0910    8.3680 C.3   121  MET121      0.1570
     89  C         17.2930   30.3150    9.5620 C.2   121  MET121      0.2261
     90  O         16.4140   29.4330    9.3740 O.2   121  MET121     -0.2867
     91  CB        19.3470   30.6120    8.0240 C.3   121  MET121      0.0387
     92  CG        19.8110   31.0280    6.5940 C.3   121  MET121      0.0595
     93  SD        18.7960   30.3790    5.2090 S.3   121  MET121     -0.1393
     94  CE        19.1720   28.5740    5.2720 C.3   121  MET121      0.0692
     95  N         13.6270   30.7630    9.5000 N.3   124  TRP124     -0.1241
     96  CA        12.9110   30.0680    8.4120 C.3   124  TRP124      0.1605
     97  C         12.9320   28.5490    8.6490 C.2   124  TRP124      0.2264
     98  O         11.9750   27.8040    8.2900 O.2   124  TRP124     -0.2867
     99  CB        13.5170   30.4220    7.0400 C.3   124  TRP124      0.0550
    100  CG        13.3100   31.8960    6.6620 C.ar  124  TRP124      0.0003
    101  CD1       12.2500   32.7000    7.0180 C.ar  124  TRP124      0.0946
    102  CD2       14.2130   32.7270    5.9220 C.ar  124  TRP124      0.0152
    103  NE1       12.4340   33.9390    6.5340 N.ar  124  TRP124     -0.2442
    104  CE2       13.6310   33.9960    5.8530 C.ar  124  TRP124      0.0810
    105  CE3       15.4810   32.5230    5.3390 C.ar  124  TRP124      0.0012
    106  CZ2       14.2380   35.0650    5.1810 C.ar  124  TRP124      0.0191
    107  CZ3       16.1000   33.6130    4.6530 C.ar  124  TRP124      0.0001
    108  CH2       15.4650   34.8540    4.5810 C.ar  124  TRP124      0.0015
    109  N         10.3400   27.7930   11.6110 N.3   127  TYR127     -0.1227
    110  CA         8.9830   27.8290   10.9670 C.3   127  TYR127      0.1736
    111  C          8.7390   26.5290   10.1330 C.2   127  TYR127      0.2596
    112  O          7.6650   25.9040   10.1970 O.2   127  TYR127     -0.2718
    113  CB         8.8070   29.1140   10.0980 C.3   127  TYR127      0.0548
    114  CG         7.4120   29.1950    9.5790 C.ar  127  TYR127     -0.0200
    115  CD1        6.3410   28.9570   10.4440 C.ar  127  TYR127     -0.0009
    116  CD2        7.1330   29.4260    8.2550 C.ar  127  TYR127     -0.0009
    117  CE1        5.0210   28.9650    9.9930 C.ar  127  TYR127      0.0417
    118  CE2        5.7900   29.4590    7.7900 C.ar  127  TYR127      0.0417
    119  CZ         4.7550   29.2130    8.6780 C.ar  127  TYR127      0.1957
    120  OH         3.4140   29.2090    8.3040 O.3   127  TYR127     -0.2866
    121  N          9.7160   26.0970    9.3590 N.am  128  THR128     -0.1953
    122  CA         9.5570   24.8390    8.6050 C.3   128  THR128      0.1897
    123  C          9.3560   23.6640    9.5990 C.2   128  THR128      0.2313
    124  O          8.5370   22.7670    9.3560 O.2   128  THR128     -0.2863
    125  CB        10.8010   24.5050    7.7420 C.3   128  THR128      0.1794
    126  OG1       11.1440   25.6260    6.9130 O.3   128  THR128     -0.2208
    127  CG2       10.5270   23.2170    6.8990 C.3   128  THR128      0.0378
    128  N          5.8240   23.7610   11.0640 N.3   131  VAL131     -0.1245
    129  CA         4.8890   23.2250   10.0870 C.3   131  VAL131      0.1561
    130  C          5.0620   21.6840    9.9050 C.2   131  VAL131      0.2260
    131  O          4.0830   20.9350    9.8350 O.2   131  VAL131     -0.2867
    132  CB         4.9520   24.0050    8.7540 C.3   131  VAL131      0.0252
    133  CG1        4.0290   23.3820    7.7180 C.3   131  VAL131      0.0019
    134  CG2        4.6620   25.5540    8.9980 C.3   131  VAL131      0.0019
    135  N         16.4440   23.4910    4.3060 N.3   155  ASN155     -0.1240
    136  CA        16.7010   24.9000    4.0880 C.3   155  ASN155      0.1653
    137  C         18.0600   25.1040    3.4830 C.2   155  ASN155      0.2266
    138  O         18.2490   26.0000    2.6660 O.2   155  ASN155     -0.2867
    139  CB        16.5940   25.7170    5.4020 C.3   155  ASN155      0.1155
    140  CG        15.1390   26.1770    5.6810 C.2   155  ASN155      0.2627
    141  OD1       14.8210   27.4000    5.6750 O.2   155  ASN155     -0.2716
    142  ND2       14.2690   25.2190    5.9250 N.am  155  ASN155     -0.0877
    143  N         18.0160   24.2570   -0.1140 N.3   158  ASN158     -0.1225
    144  CA        17.4000   25.2780   -0.9380 C.3   158  ASN158      0.1785
    145  C         18.3480   26.4560   -1.1360 C.2   158  ASN158      0.2597
    146  O         18.4440   26.9360   -2.2490 O.2   158  ASN158     -0.2718
    147  CB        16.0820   25.7320   -0.3520 C.3   158  ASN158      0.1169
    148  CG        14.9970   24.7160   -0.6370 C.2   158  ASN158      0.2627
    149  OD1       15.2930   23.5720   -1.0480 O.2   158  ASN158     -0.2716
    150  ND2       13.7660   25.1150   -0.5040 N.am  158  ASN158     -0.0877
    151  N         19.0070   26.8990   -0.0780 N.am  159  GLU159     -0.1979
    152  CA        20.0090   28.0030   -0.1860 C.3   159  GLU159      0.1602
    153  C         21.0750   27.6880   -1.2900 C.2   159  GLU159      0.2287
    154  O         21.2410   28.4690   -2.2280 O.2   159  GLU159     -0.2864
    155  CB        20.6740   28.2500    1.1780 C.3   159  GLU159      0.0415
    156  CG        21.7800   29.3200    1.2110 C.3   159  GLU159      0.1163
    157  CD        22.6950   29.1990    2.4350 C.2   159  GLU159      0.3649
    158  OE1       22.2060   29.2040    3.5450 O.co2 159  GLU159     -0.2457
    159  OE2       23.9340   29.0850    2.3090 O.co2 159  GLU159     -0.2457
    160  N         19.2440   27.0180   -4.7780 N.3   162  LEU162     -0.1231
    161  CA        18.6060   28.1330   -5.4680 C.3   162  LEU162      0.1693
    162  C         19.7230   29.0390   -5.9270 C.2   162  LEU162      0.2592
    163  O         19.6950   29.5060   -7.0460 O.2   162  LEU162     -0.2718
    164  CB        17.6070   28.9420   -4.5740 C.3   162  LEU162      0.0284
    165  CG        16.2020   28.2850   -4.4060 C.3   162  LEU162      0.0019
    166  CD1       15.3990   29.0810   -3.3100 C.3   162  LEU162      0.0001
    167  CD2       15.5080   28.2180   -5.8070 C.3   162  LEU162      0.0001
    168  N         20.7230   29.2300   -5.0840 N.am  163  PHE163     -0.1976
    169  CA        21.7730   30.2670   -5.3580 C.3   163  PHE163      0.1639
    170  C         22.7520   29.8690   -6.4850 C.2   163  PHE163      0.2290
    171  O         23.1260   30.6600   -7.3500 O.2   163  PHE163     -0.2864
    172  CB        22.4850   30.7250   -4.0510 C.3   163  PHE163      0.0560
    173  CG        21.5750   31.5120   -3.0560 C.ar  163  PHE163     -0.0200
    174  CD1       20.2660   31.9360   -3.4050 C.ar  163  PHE163     -0.0042
    175  CD2       22.0110   31.7920   -1.7670 C.ar  163  PHE163     -0.0042
    176  CE1       19.4460   32.5760   -2.4390 C.ar  163  PHE163     -0.0003
    177  CE2       21.2220   32.4730   -0.8540 C.ar  163  PHE163     -0.0003
    178  CZ        19.9350   32.8610   -1.1900 C.ar  163  PHE163     -0.0000
    179  N         11.4830   18.1630   -0.9190 N.3   186  TRP186     -0.1241
    180  CA        10.7680   18.4810    0.3200 C.3   186  TRP186      0.1605
    181  C          9.6240   17.4970    0.5320 C.2   186  TRP186      0.2264
    182  O          9.4970   16.9230    1.6310 O.2   186  TRP186     -0.2867
    183  CB        10.1940   19.9020    0.3120 C.3   186  TRP186      0.0550
    184  CG        11.3440   20.9630    0.5530 C.ar  186  TRP186      0.0003
    185  CD1       12.4960   21.0560   -0.1540 C.ar  186  TRP186      0.0946
    186  CD2       11.4000   22.0220    1.5680 C.ar  186  TRP186      0.0152
    187  NE1       13.2690   22.1460    0.3170 N.ar  186  TRP186     -0.2442
    188  CE2       12.6430   22.7020    1.4050 C.ar  186  TRP186      0.0810
    189  CE3       10.5260   22.4530    2.5970 C.ar  186  TRP186      0.0012
    190  CZ2       13.0280   23.7860    2.2520 C.ar  186  TRP186      0.0191
    191  CZ3       10.9040   23.5000    3.4140 C.ar  186  TRP186      0.0001
    192  CH2       12.1400   24.1670    3.2470 C.ar  186  TRP186      0.0015
@<TRIPOS>BOND
     1   171   170    2
     2   163   162    2
     3   170   169    1
     4    65    64    2
     5   162   161    1
     6   162   168   am
     7   167   165    1
     8    64    63    1
     9   161   160    1
    10   161   164    1
    11   169   168    1
    12   169   172    1
    13   164   165    1
    14   165   166    1
    15    63    62    1
    16    63    66    1
    17   172   173    1
    18    54    53    2
    19    66    67    1
    20   174   173   ar
    21   174   176   ar
    22    53    52    1
    23   173   175   ar
    24    49    47    1
    25    46    45    2
    26    45    44    1
    27   176   178   ar
    28   146   145    2
    29   154   153    2
    30    67    68   ar
    31    67    69   ar
    32    47    44    1
    33    47    48    1
    34    52    51    1
    35    52    55    1
    36   175   177   ar
    37    68    70   ar
    38    50    48    1
    39    44    43    1
    40    69    71   ar
    41   153   152    1
    42   178   177   ar
    43   145   144    1
    44   145   151   am
    45   149   148    2
    46    17    18    1
    47    27    28    2
    48    27    26    1
    49    55    56    1
    50   144   147    1
    51   144   143    1
    52   179   180    1
    53    43    41   am
    54   148   150   am
    55   148   147    1
    56    39    40    1
    57   152   151    1
    58   152   155    1
    59    41    42    2
    60    41    40    1
    61    70    72   ar
    62   185   187   ar
    63   185   184   ar
    64    25    26    1
    65    25    19   am
    66    71    72   ar
    67    18    19    1
    68    18    21    1
    69    26    29    1
    70    19    20    2
    71    29    30    1
    72   183   180    1
    73   183   184    1
    74   187   188   ar
    75   180   181    1
    76    56    58   ar
    77    56    57   ar
    78    15    14    1
    79   181   182    2
    80   184   186   ar
    81    16    14    1
    82    58    60   ar
    83   155   156    1
    84   156   157    1
    85    57    59   ar
    86   188   186   ar
    87   188   190   ar
    88    21    22    2
    89    14    13    1
    90   186   189   ar
    91    30    31   ar
    92    30    32   ar
    93    31    33   ar
    94    86    84   ar
    95    86    85   ar
    96   190   192   ar
    97   159   157   ar
    98    60    61   ar
    99   157   158   ar
   100    59    61   ar
   101   189   191   ar
   102    84    82   ar
   103    85    83   ar
   104   138   137    2
   105    22    23    1
   106    13    10    1
   107    32    35   ar
   108    32    34   ar
   109   192   191   ar
   110    35    37   ar
   111    10     9    1
   112    10    11    1
   113    33    34   ar
   114   137   136    1
   115     1     2    1
   116    82    80   ar
   117    82    81   ar
   118    83    80   ar
   119     7     6    1
   120    34    36   ar
   121   136   135    1
   122   136   139    1
   123     2     5    1
   124     2     3    1
   125    24    23    1
   126    80    78   ar
   127    81    79   ar
   128    12    11    2
   129     5     6    1
   130   108   107   ar
   131   108   106   ar
   132    37    38   ar
   133   107   105   ar
   134     6     8    1
   135   106   104   ar
   136    93    94    1
   137    93    92    1
   138     3     4    2
   139    36    38   ar
   140   105   102   ar
   141    78    79   ar
   142    78    77    1
   143   139   140    1
   144   141   140    2
   145   140   142   am
   146   104   102   ar
   147   104   103   ar
   148   102   100   ar
   149    77    74    1
   150   103   101   ar
   151    92    91    1
   152   100   101   ar
   153   100    99    1
   154   127   125    1
   155   126   125    1
   156    99    96    1
   157    74    73    1
   158    74    75    1
   159   133   132    1
   160   125   122    1
   161   118   116   ar
   162   118   119   ar
   163    91    88    1
   164    75    76    2
   165   116   114   ar
   166    98    97    2
   167   120   119    1
   168    88    87    1
   169    88    89    1
   170    96    97    1
   171    96    95    1
   172   122   121    1
   173   122   123    1
   174   119   117   ar
   175   132   134    1
   176   132   129    1
   177   124   123    2
   178   121   111   am
   179    90    89    2
   180   114   113    1
   181   114   115   ar
   182   131   130    2
   183   130   129    1
   184   117   115   ar
   185   129   128    1
   186   113   110    1
   187   111   112    2
   188   111   110    1
   189   110   109    1
