@<TRIPOS>MOLECULE
tmp/4m3gA00.pdb
 192 189 0 0 0
SMALL
GASTEIGER

@<TRIPOS>ATOM
      1  N          6.9900   35.8300    3.4570 N.3    66  LEU66      -0.1245
      2  CA         6.8140   34.5810    4.1910 C.3    66  LEU66       0.1561
      3  C          5.7950   34.6720    5.3670 C.2    66  LEU66       0.2260
      4  O          4.9390   33.7730    5.5110 O.2    66  LEU66      -0.2867
      5  CB         8.1970   34.0070    4.6320 C.3    66  LEU66       0.0270
      6  CG         8.1470   32.5360    5.0130 C.3    66  LEU66       0.0019
      7  CD1        7.6690   31.5830    3.8470 C.3    66  LEU66       0.0001
      8  CD2        9.4420   32.0590    5.6780 C.3    66  LEU66       0.0001
      9  N          2.0880   34.7790    3.6980 N.3    69  LEU69      -0.1245
     10  CA         1.6270   33.3940    3.5030 C.3    69  LEU69       0.1561
     11  C          1.1580   32.7540    4.8040 C.2    69  LEU69       0.2260
     12  O          0.1220   32.0840    4.8350 O.2    69  LEU69      -0.2867
     13  CB         2.7660   32.5250    2.9630 C.3    69  LEU69       0.0270
     14  CG         2.6820   31.9970    1.5490 C.3    69  LEU69       0.0019
     15  CD1        1.9290   32.9470    0.6230 C.3    69  LEU69       0.0001
     16  CD2        4.1020   31.7630    1.0840 C.3    69  LEU69       0.0001
     17  N          1.6730   24.0480   -0.8580 N.3    79  MET79      -0.1230
     18  CA         2.0470   24.8400    0.2840 C.3    79  MET79       0.1702
     19  C          3.5700   25.0230    0.3000 C.2    79  MET79       0.2592
     20  O          4.0520   26.1220    0.4550 O.2    79  MET79      -0.2718
     21  CB         1.5780   24.2020    1.5880 C.3    79  MET79       0.0401
     22  CG         2.0990   24.9080    2.9020 C.3    79  MET79       0.0596
     23  SD         1.6120   23.9990    4.4150 S.3    79  MET79      -0.1393
     24  CE         2.6580   22.5210    4.4870 C.3    79  MET79       0.0692
     25  N          4.3240   23.9460    0.0920 N.am   80  TRP80      -0.1976
     26  CA         5.7940   24.0400    0.1990 C.3    80  TRP80       0.1640
     27  C          6.3250   24.8520   -0.9740 C.2    80  TRP80       0.2290
     28  O          7.2120   25.7280   -0.8010 O.2    80  TRP80      -0.2864
     29  CB         6.4510   22.6310    0.3200 C.3    80  TRP80       0.0576
     30  CG         6.1790   22.0440    1.6730 C.ar   80  TRP80       0.0006
     31  CD1        5.3400   20.9660    1.9760 C.ar   80  TRP80       0.0946
     32  CD2        6.6930   22.5240    2.9420 C.ar   80  TRP80       0.0152
     33  NE1        5.3270   20.7680    3.3510 N.ar   80  TRP80      -0.2442
     34  CE2        6.1360   21.6970    3.9640 C.ar   80  TRP80       0.0810
     35  CE3        7.5630   23.5610    3.3110 C.ar   80  TRP80       0.0012
     36  CZ2        6.4440   21.8700    5.3400 C.ar   80  TRP80       0.0191
     37  CZ3        7.8750   23.7440    4.7010 C.ar   80  TRP80       0.0001
     38  CH2        7.3050   22.9080    5.6940 C.ar   80  TRP80       0.0015
     39  N          5.8810   28.5390   -0.3810 N.3    83  GLY83      -0.1210
     40  CA         6.9770   29.0150    0.5090 C.3    83  GLY83       0.1956
     41  C          8.3480   29.1560   -0.1600 C.2    83  GLY83       0.2611
     42  O          9.0290   30.1960   -0.0620 O.2    83  GLY83      -0.2717
     43  N          8.7630   28.1350   -0.8910 N.am   84  ILE84      -0.1979
     44  CA        10.0680   28.1860   -1.5320 C.3    84  ILE84       0.1595
     45  C         10.0590   29.2900   -2.5730 C.2    84  ILE84       0.2287
     46  O         11.0990   29.9410   -2.7980 O.2    84  ILE84      -0.2864
     47  CB        10.3900   26.8020   -2.2030 C.3    84  ILE84       0.0276
     48  CG1       10.4060   25.6670   -1.1400 C.3    84  ILE84       0.0022
     49  CG2       11.6620   26.8820   -3.0290 C.3    84  ILE84       0.0022
     50  CD1       10.5350   24.1970   -1.7160 C.3    84  ILE84       0.0001
     51  N         11.3260   32.7710   -1.7970 N.3    87  PHE87      -0.1241
     52  CA        12.7760   32.9680   -1.9360 C.3    87  PHE87       0.1605
     53  C         13.2930   33.0100   -3.3720 C.2    87  PHE87       0.2264
     54  O         14.0650   33.8550   -3.7100 O.2    87  PHE87      -0.2867
     55  CB        13.4950   31.9570   -1.0440 C.3    87  PHE87       0.0534
     56  CG        13.1380   32.1270    0.4240 C.ar   87  PHE87      -0.0203
     57  CD1       13.8060   33.0520    1.1990 C.ar   87  PHE87      -0.0042
     58  CD2       12.1010   31.3960    0.9960 C.ar   87  PHE87      -0.0042
     59  CE1       13.4470   33.2460    2.5310 C.ar   87  PHE87      -0.0003
     60  CE2       11.7250   31.5760    2.3350 C.ar   87  PHE87      -0.0003
     61  CZ        12.4030   32.4900    3.1110 C.ar   87  PHE87      -0.0000
     62  N         14.7310   36.7460   -4.2720 N.3    91  PHE91      -0.1241
     63  CA        16.1700   36.8340   -4.5500 C.3    91  PHE91       0.1605
     64  C         16.4450   36.8210   -6.0320 C.2    91  PHE91       0.2264
     65  O         17.4140   37.4590   -6.5040 O.2    91  PHE91      -0.2867
     66  CB        16.9610   35.7380   -3.8400 C.3    91  PHE91       0.0534
     67  CG        16.8510   35.8160   -2.3390 C.ar   91  PHE91      -0.0203
     68  CD1       17.5250   36.7690   -1.6300 C.ar   91  PHE91      -0.0042
     69  CD2       16.1210   34.9080   -1.6390 C.ar   91  PHE91      -0.0042
     70  CE1       17.4210   36.8370   -0.2130 C.ar   91  PHE91      -0.0003
     71  CE2       16.0290   34.9770   -0.2330 C.ar   91  PHE91      -0.0003
     72  CZ        16.6530   35.9650    0.4640 C.ar   91  PHE91      -0.0000
     73  N         22.6370   37.4610    7.7490 N.3   115  TRP115     -0.1241
     74  CA        22.2470   36.2550    7.0350 C.3   115  TRP115      0.1605
     75  C         21.9420   35.1310    8.0340 C.2   115  TRP115      0.2264
     76  O         20.8950   34.4460    8.0060 O.2   115  TRP115     -0.2867
     77  CB        23.3670   35.8060    6.0590 C.3   115  TRP115      0.0550
     78  CG        22.8140   34.6700    5.1660 C.ar  115  TRP115      0.0003
     79  CD1       23.1210   33.3250    5.2020 C.ar  115  TRP115      0.0946
     80  CD2       21.7570   34.8180    4.1840 C.ar  115  TRP115      0.0152
     81  NE1       22.3560   32.6430    4.2390 N.ar  115  TRP115     -0.2442
     82  CE2       21.5200   33.5500    3.6170 C.ar  115  TRP115      0.0810
     83  CE3       21.0540   35.9240    3.6910 C.ar  115  TRP115      0.0012
     84  CZ2       20.5620   33.3530    2.6020 C.ar  115  TRP115      0.0191
     85  CZ3       20.1120   35.7410    2.6440 C.ar  115  TRP115      0.0001
     86  CH2       19.8770   34.4660    2.1240 C.ar  115  TRP115      0.0015
     87  N         18.4520   33.0550    8.5100 N.3   119  MET119     -0.1245
     88  CA        18.4950   31.5500    8.4490 C.3   119  MET119      0.1570
     89  C         17.9190   30.8080    9.7050 C.2   119  MET119      0.2261
     90  O         17.0740   29.8770    9.5760 O.2   119  MET119     -0.2867
     91  CB        19.9010   31.0150    8.0760 C.3   119  MET119      0.0387
     92  CG        20.3510   31.4300    6.6880 C.3   119  MET119      0.0595
     93  SD        19.4150   30.6460    5.3380 S.3   119  MET119     -0.1393
     94  CE        20.1690   28.9790    5.3460 C.3   119  MET119      0.0692
     95  N         14.3050   31.2940    9.6050 N.3   122  TRP122     -0.1241
     96  CA        13.6560   30.5170    8.5260 C.3   122  TRP122      0.1605
     97  C         13.5960   29.0120    8.8440 C.2   122  TRP122      0.2264
     98  O         12.5900   28.2940    8.5030 O.2   122  TRP122     -0.2867
     99  CB        14.3020   30.8580    7.1620 C.3   122  TRP122      0.0550
    100  CG        14.0270   32.2860    6.7780 C.ar  122  TRP122      0.0003
    101  CD1       12.8950   33.0450    7.1370 C.ar  122  TRP122      0.0946
    102  CD2       14.8650   33.1640    5.9880 C.ar  122  TRP122      0.0152
    103  NE1       13.0000   34.3280    6.5870 N.ar  122  TRP122     -0.2442
    104  CE2       14.1890   34.4260    5.8940 C.ar  122  TRP122      0.0810
    105  CE3       16.0920   33.0030    5.3430 C.ar  122  TRP122      0.0012
    106  CZ2       14.7150   35.5060    5.1810 C.ar  122  TRP122      0.0191
    107  CZ3       16.6510   34.0740    4.6590 C.ar  122  TRP122      0.0001
    108  CH2       15.9390   35.3300    4.5690 C.ar  122  TRP122      0.0015
    109  N         11.1040   28.4260   11.7260 N.3   125  TYR125     -0.1227
    110  CA         9.7560   28.4190   11.1310 C.3   125  TYR125      0.1736
    111  C          9.4540   27.1370   10.3110 C.2   125  TYR125      0.2592
    112  O          8.4020   26.4890   10.4330 O.2   125  TYR125     -0.2718
    113  CB         9.5180   29.7220   10.3390 C.3   125  TYR125      0.0548
    114  CG         8.1320   29.7630    9.7190 C.ar  125  TYR125     -0.0200
    115  CD1        7.0050   29.5190   10.5180 C.ar  125  TYR125     -0.0009
    116  CD2        7.9410   29.9710    8.3540 C.ar  125  TYR125     -0.0009
    117  CE1        5.7200   29.5400    9.9990 C.ar  125  TYR125      0.0417
    118  CE2        6.6190   29.9790    7.8100 C.ar  125  TYR125      0.0417
    119  CZ         5.5250   29.7650    8.6640 C.ar  125  TYR125      0.1957
    120  OH         4.2290   29.7330    8.2330 O.3   125  TYR125     -0.2866
    121  N         10.3760   26.7380    9.4590 N.am  126  THR126     -0.2006
    122  CA        10.1960   25.4580    8.7490 C.3   126  THR126      0.1584
    123  C          9.9790   24.2670    9.6650 C.3   126  THR126      0.2062
    124  O          9.1240   23.3390    9.3760 O.3   126  THR126     -0.2184
    125  CB        11.4530   25.1840    7.8540 C.3   126  THR126      0.1745
    126  OG1       11.7150   26.3710    7.0250 O.3   126  THR126     -0.2212
    127  CG2       11.2840   23.8560    7.0350 C.3   126  THR126      0.0374
    128  N          6.4100   24.2670   11.2150 N.3   129  VAL129     -0.1245
    129  CA         5.4450   23.7200   10.2430 C.3   129  VAL129      0.1561
    130  C          5.5860   22.2100   10.0310 C.2   129  VAL129      0.2260
    131  O          4.5830   21.4770    9.9910 O.2   129  VAL129     -0.2867
    132  CB         5.4910   24.5430    8.9190 C.3   129  VAL129      0.0252
    133  CG1        4.5070   23.9820    7.8560 C.3   129  VAL129      0.0019
    134  CG2        5.1910   26.0410    9.2360 C.3   129  VAL129      0.0019
    135  N         16.9620   24.0600    4.2680 N.3   153  ASN153     -0.1240
    136  CA        17.2460   25.4840    4.1030 C.3   153  ASN153      0.1653
    137  C         18.6710   25.7630    3.5130 C.2   153  ASN153      0.2266
    138  O         18.8950   26.6570    2.6840 O.2   153  ASN153     -0.2867
    139  CB        17.1000   26.1530    5.4990 C.3   153  ASN153      0.1155
    140  CG        15.6840   26.5800    5.7960 C.2   153  ASN153      0.2627
    141  OD1       14.7740   25.7520    5.9980 O.2   153  ASN153     -0.2716
    142  ND2       15.4600   27.8850    5.7640 N.am  153  ASN153     -0.0877
    143  N         18.6670   24.9460   -0.1480 N.3   156  ASN156     -0.1225
    144  CA        18.0630   25.9820   -0.9670 C.3   156  ASN156      0.1785
    145  C         18.9840   27.1710   -1.0760 C.2   156  ASN156      0.2597
    146  O         19.0850   27.7520   -2.1390 O.2   156  ASN156     -0.2718
    147  CB        16.7400   26.4090   -0.3390 C.3   156  ASN156      0.1169
    148  CG        15.6240   25.4320   -0.6250 C.2   156  ASN156      0.2627
    149  OD1       15.8670   24.2540   -0.8940 O.2   156  ASN156     -0.2716
    150  ND2       14.3780   25.9150   -0.5800 N.am  156  ASN156     -0.0877
    151  N         19.6590   27.5630    0.0210 N.am  157  GLU157     -0.1979
    152  CA        20.6400   28.6280   -0.0610 C.3   157  GLU157      0.1602
    153  C         21.6700   28.3290   -1.1870 C.2   157  GLU157      0.2287
    154  O         21.8590   29.1380   -2.0990 O.2   157  GLU157     -0.2864
    155  CB        21.3750   28.7250    1.2490 C.3   157  GLU157      0.0415
    156  CG        22.4720   29.7540    1.2000 C.3   157  GLU157      0.1163
    157  CD        23.2750   29.8120    2.4930 C.2   157  GLU157      0.3649
    158  OE1       22.6970   29.9160    3.5990 O.co2 157  GLU157     -0.2457
    159  OE2       24.4940   29.7400    2.3910 O.co2 157  GLU157     -0.2457
    160  N         19.7580   27.6830   -4.9250 N.3   160  LEU160     -0.1231
    161  CA        19.2180   28.9270   -5.4960 C.3   160  LEU160      0.1693
    162  C         20.3320   29.8520   -5.9510 C.2   160  LEU160      0.2592
    163  O         20.3050   30.3700   -7.1040 O.2   160  LEU160     -0.2718
    164  CB        18.2270   29.6860   -4.5810 C.3   160  LEU160      0.0284
    165  CG        16.8750   28.9910   -4.3080 C.3   160  LEU160      0.0019
    166  CD1       16.2290   29.5870   -3.0710 C.3   160  LEU160      0.0001
    167  CD2       15.8670   29.0190   -5.5510 C.3   160  LEU160      0.0001
    168  N         21.2960   30.0960   -5.0680 N.am  161  PHE161     -0.1976
    169  CA        22.3600   31.0400   -5.3910 C.3   161  PHE161      0.1639
    170  C         23.2950   30.5030   -6.4750 C.2   161  PHE161      0.2290
    171  O         23.7250   31.2460   -7.3510 O.2   161  PHE161     -0.2864
    172  CB        23.0790   31.5470   -4.1050 C.3   161  PHE161      0.0560
    173  CG        22.1210   32.2060   -3.1280 C.ar  161  PHE161     -0.0200
    174  CD1       20.8600   32.6830   -3.5710 C.ar  161  PHE161     -0.0042
    175  CD2       22.4140   32.3250   -1.7910 C.ar  161  PHE161     -0.0042
    176  CE1       19.9300   33.2850   -2.6660 C.ar  161  PHE161     -0.0003
    177  CE2       21.4880   32.9510   -0.8940 C.ar  161  PHE161     -0.0003
    178  CZ        20.2750   33.4170   -1.3180 C.ar  161  PHE161     -0.0000
    179  N         11.9950   18.5880   -0.9850 N.3   184  TRP184     -0.1241
    180  CA        11.3390   18.9640    0.2640 C.3   184  TRP184      0.1605
    181  C         10.1570   18.0570    0.5590 C.2   184  TRP184      0.2264
    182  O         10.0510   17.5710    1.6620 O.2   184  TRP184     -0.2867
    183  CB        10.8700   20.3950    0.2840 C.3   184  TRP184      0.0550
    184  CG        11.9600   21.4350    0.5460 C.ar  184  TRP184      0.0003
    185  CD1       13.1520   21.6050   -0.1380 C.ar  184  TRP184      0.0946
    186  CD2       11.8810   22.5100    1.4960 C.ar  184  TRP184      0.0152
    187  NE1       13.8570   22.6900    0.3820 N.ar  184  TRP184     -0.2442
    188  CE2       13.0930   23.2580    1.3900 C.ar  184  TRP184      0.0810
    189  CE3       10.9370   22.8670    2.4810 C.ar  184  TRP184      0.0012
    190  CZ2       13.3690   24.3340    2.2250 C.ar  184  TRP184      0.0191
    191  CZ3       11.2270   23.9610    3.3570 C.ar  184  TRP184      0.0001
    192  CH2       12.4110   24.6680    3.2050 C.ar  184  TRP184      0.0015
@<TRIPOS>BOND
     1   171   170    2
     2   163   162    2
     3    65    64    2
     4   170   169    1
     5    64    63    1
     6   162   161    1
     7   162   168   am
     8   167   165    1
     9   161   160    1
    10   161   164    1
    11   169   168    1
    12   169   172    1
    13   164   165    1
    14    63    62    1
    15    63    66    1
    16   165   166    1
    17   172   173    1
    18    66    67    1
    19    54    53    2
    20   174   173   ar
    21   174   176   ar
    22    53    52    1
    23   173   175   ar
    24    49    47    1
    25    46    45    2
    26   176   178   ar
    27    45    44    1
    28    67    69   ar
    29    67    68   ar
    30    47    44    1
    31    47    48    1
    32   146   145    2
    33   154   153    2
    34    52    51    1
    35    52    55    1
    36   175   177   ar
    37    50    48    1
    38    69    71   ar
    39    68    70   ar
    40    44    43    1
    41   178   177   ar
    42   153   152    1
    43   145   144    1
    44   145   151   am
    45    55    56    1
    46   179   180    1
    47    27    28    2
    48    27    26    1
    49   144   147    1
    50   144   143    1
    51   149   148    2
    52    43    41   am
    53    17    18    1
    54   148   150   am
    55   148   147    1
    56    39    40    1
    57    71    72   ar
    58    70    72   ar
    59    41    42    2
    60    41    40    1
    61   185   187   ar
    62   185   184   ar
    63   152   151    1
    64   152   155    1
    65    25    26    1
    66    25    19   am
    67    26    29    1
    68   180   183    1
    69   180   181    1
    70    18    19    1
    71    18    21    1
    72   183   184    1
    73    19    20    2
    74    29    30    1
    75   187   188   ar
    76    56    58   ar
    77    56    57   ar
    78   184   186   ar
    79   181   182    2
    80    15    14    1
    81    58    60   ar
    82    16    14    1
    83    57    59   ar
    84   156   155    1
    85   156   157    1
    86   188   186   ar
    87   188   190   ar
    88   186   189   ar
    89    14    13    1
    90    21    22    1
    91    30    31   ar
    92    30    32   ar
    93    31    33   ar
    94    86    84   ar
    95    86    85   ar
    96   190   192   ar
    97    60    61   ar
    98   159   157   ar
    99   189   191   ar
   100   157   158   ar
   101    59    61   ar
   102    84    82   ar
   103    85    83   ar
   104   138   137    2
   105    22    23    1
   106    32    35   ar
   107    32    34   ar
   108    13    10    1
   109   192   191   ar
   110    35    37   ar
   111    33    34   ar
   112     1     2    1
   113    10     9    1
   114    10    11    1
   115   137   136    1
   116    82    80   ar
   117    82    81   ar
   118    83    80   ar
   119     7     6    1
   120    34    36   ar
   121   136   135    1
   122   136   139    1
   123    80    78   ar
   124     2     5    1
   125     2     3    1
   126    81    79   ar
   127    23    24    1
   128   108   107   ar
   129   108   106   ar
   130     5     6    1
   131   107   105   ar
   132    37    38   ar
   133    11    12    2
   134     6     8    1
   135    78    79   ar
   136    78    77    1
   137   106   104   ar
   138    93    94    1
   139    93    92    1
   140    36    38   ar
   141   105   102   ar
   142     3     4    2
   143   139   140    1
   144   142   140   am
   145   140   141    2
   146   104   102   ar
   147   104   103   ar
   148   102   100   ar
   149    77    74    1
   150   103   101   ar
   151    92    91    1
   152   100   101   ar
   153   100    99    1
   154   126   125    1
   155   127   125    1
   156    74    73    1
   157    74    75    1
   158    99    96    1
   159   118   116   ar
   160   118   119   ar
   161   125   122    1
   162   133   132    1
   163    76    75    2
   164    91    88    1
   165   120   119    1
   166   116   114   ar
   167    88    87    1
   168    88    89    1
   169    98    97    2
   170    96    97    1
   171    96    95    1
   172   119   117   ar
   173   122   121    1
   174   122   123    1
   175   132   134    1
   176   132   129    1
   177   124   123    1
   178   121   111   am
   179    90    89    2
   180   114   113    1
   181   114   115   ar
   182   131   130    2
   183   117   115   ar
   184   130   129    1
   185   129   128    1
   186   111   112    2
   187   111   110    1
   188   113   110    1
   189   110   109    1
