@<TRIPOS>MOLECULE
tmp/4m3pB00.pdb
 108 106 0 0 0
SMALL
GASTEIGER

@<TRIPOS>ATOM
      1  N         49.8150    1.0060  -39.4740 N.3    19  ASP19      -0.1225
      2  CA        51.0850    1.7340  -39.5940 C.3    19  ASP19       0.1805
      3  C         51.2830    2.5840  -38.3390 C.2    19  ASP19       0.2598
      4  O         50.4620    2.5130  -37.4230 O.2    19  ASP19      -0.2718
      5  CB        51.1990    2.5150  -40.9240 C.3    19  ASP19       0.1424
      6  CG        50.1140    3.5400  -41.1060 C.2    19  ASP19       0.3668
      7  OD1       49.3430    3.7680  -40.1290 O.co2  19  ASP19      -0.2456
      8  OD2       50.0280    4.1100  -42.2330 O.co2  19  ASP19      -0.2456
      9  N         52.3690    3.3600  -38.2950 N.am   20  GLY20      -0.1942
     10  CA        52.7670    4.0880  -37.0880 C.3    20  GLY20       0.2014
     11  C         52.3370    5.5340  -37.1140 C.2    20  GLY20       0.2639
     12  O         51.2770    5.8500  -37.6400 O.2    20  GLY20      -0.2714
     13  N         53.1640    6.4240  -36.5520 N.am   21  GLY21      -0.1939
     14  CA        52.7590    7.8340  -36.3920 C.3    21  GLY21       0.2014
     15  C         53.4470    8.7520  -37.3770 C.2    21  GLY21       0.2639
     16  O         54.6050    9.1230  -37.1770 O.2    21  GLY21      -0.2714
     17  N         52.7400    9.1240  -38.4350 N.am   22  PHE22      -0.1959
     18  CA        53.3600    9.8660  -39.5220 C.3    22  PHE22       0.1771
     19  C         53.8000   11.2550  -39.1590 C.2    22  PHE22       0.2619
     20  O         54.9540   11.6030  -39.3960 O.2    22  PHE22      -0.2715
     21  CB        52.4610    9.9290  -40.7290 C.3    22  PHE22       0.0574
     22  CG        52.8370    8.9640  -41.7700 C.ar   22  PHE22      -0.0200
     23  CD1       52.6610    7.6170  -41.5410 C.ar   22  PHE22      -0.0042
     24  CD2       53.3860    9.3970  -42.9620 C.ar   22  PHE22      -0.0042
     25  CE1       53.0180    6.6950  -42.5020 C.ar   22  PHE22      -0.0003
     26  CE2       53.7690    8.4780  -43.9330 C.ar   22  PHE22      -0.0003
     27  CZ        53.5790    7.1280  -43.6950 C.ar   22  PHE22      -0.0000
     28  N         52.8950   12.0670  -38.6070 N.am   23  VAL23      -0.1977
     29  CA        53.2700   13.4380  -38.3590 C.3    23  VAL23       0.1596
     30  C         54.4430   13.5370  -37.3940 C.2    23  VAL23       0.2287
     31  O         55.3860   14.2840  -37.6520 O.2    23  VAL23      -0.2864
     32  CB        52.0880   14.4050  -38.0080 C.3    23  VAL23       0.0276
     33  CG1       51.1110   14.4690  -39.1780 C.3    23  VAL23       0.0022
     34  CG2       51.3790   14.0550  -36.7130 C.3    23  VAL23       0.0022
     35  N         47.7850    4.3140  -44.0680 N.3    65  GLN65      -0.1231
     36  CA        46.8850    5.4370  -43.8890 C.3    65  GLN65       0.1698
     37  C         47.3800    6.5980  -44.7380 C.2    65  GLN65       0.2593
     38  O         48.5880    6.9070  -44.7550 O.2    65  GLN65      -0.2718
     39  CB        46.7960    5.8560  -42.4270 C.3    65  GLN65       0.0381
     40  CG        46.1470    4.7950  -41.5380 C.3    65  GLN65       0.0905
     41  CD        45.8480    5.3160  -40.1430 C.2    65  GLN65       0.2608
     42  OE1       46.1730    4.6760  -39.1640 O.2    65  GLN65      -0.2717
     43  NE2       45.2140    6.4800  -40.0570 N.am   65  GLN65      -0.0878
     44  N         46.4570    7.2690  -45.4130 N.am   66  THR66      -0.1939
     45  CA        46.8100    8.4040  -46.2480 C.3    66  THR66       0.2028
     46  C         47.3370    9.5450  -45.3780 C.2    66  THR66       0.2642
     47  O         46.8200    9.8220  -44.3100 O.2    66  THR66      -0.2714
     48  CB        45.6060    8.8900  -47.0950 C.3    66  THR66       0.1808
     49  OG1       44.5140    9.2310  -46.2310 O.3    66  THR66      -0.2208
     50  CG2       45.1570    7.8020  -48.0790 C.3    66  THR66       0.0379
     51  N         48.3720   10.2170  -45.8560 N.am   67  PHE67      -0.1973
     52  CA        48.9740   11.3260  -45.1290 C.3    67  PHE67       0.1639
     53  C         48.2330   12.6140  -45.5330 C.2    67  PHE67       0.2290
     54  O         48.7680   13.4760  -46.2540 O.2    67  PHE67      -0.2864
     55  CB        50.4830   11.3670  -45.4580 C.3    67  PHE67       0.0560
     56  CG        51.2490   12.4050  -44.7030 C.ar   67  PHE67      -0.0200
     57  CD1       51.1080   12.5280  -43.3410 C.ar   67  PHE67      -0.0042
     58  CD2       52.1400   13.2300  -45.3610 C.ar   67  PHE67      -0.0042
     59  CE1       51.8310   13.4760  -42.6400 C.ar   67  PHE67      -0.0003
     60  CE2       52.8570   14.2020  -44.6660 C.ar   67  PHE67      -0.0003
     61  CZ        52.7010   14.3170  -43.3050 C.ar   67  PHE67      -0.0000
     62  N         39.1890    9.0300  -37.3670 N.3   129  GLU129     -0.1231
     63  CA        40.1200    8.9650  -36.2380 C.3   129  GLU129      0.1699
     64  C         40.3330   10.3220  -35.6010 C.2   129  GLU129      0.2592
     65  O         40.0210   11.3460  -36.2070 O.2   129  GLU129     -0.2718
     66  CB        41.4660    8.3280  -36.6290 C.3   129  GLU129      0.0402
     67  CG        42.2220    8.9640  -37.7880 C.3   129  GLU129      0.1161
     68  CD        43.6860    8.5020  -37.9140 C.2   129  GLU129      0.3649
     69  OE1       44.0860    7.4090  -37.4060 O.co2 129  GLU129     -0.2457
     70  OE2       44.4630    9.2620  -38.5390 O.co2 129  GLU129     -0.2457
     71  N         40.8660   10.3100  -34.3860 N.am  130  TYR130     -0.1976
     72  CA        41.1690   11.5320  -33.6300 C.3   130  TYR130      0.1639
     73  C         39.9060   12.3700  -33.4240 C.2   130  TYR130      0.2290
     74  O         39.8130   13.5090  -33.8830 O.2   130  TYR130     -0.2864
     75  CB        42.2720   12.3500  -34.3040 C.3   130  TYR130      0.0560
     76  CG        43.0320   13.2230  -33.3120 C.ar  130  TYR130     -0.0198
     77  CD1       44.0910   12.7040  -32.5540 C.ar  130  TYR130     -0.0009
     78  CD2       42.6810   14.5600  -33.1150 C.ar  130  TYR130     -0.0009
     79  CE1       44.7700   13.4970  -31.6330 C.ar  130  TYR130      0.0417
     80  CE2       43.3570   15.3600  -32.2020 C.ar  130  TYR130      0.0417
     81  CZ        44.3950   14.8210  -31.4590 C.ar  130  TYR130      0.1957
     82  OH        45.0580   15.6080  -30.5470 O.3   130  TYR130     -0.2866
     83  N         42.5880    5.9020  -30.6880 N.3   186  ASN186     -0.1225
     84  CA        43.9190    6.2920  -31.1220 C.3   186  ASN186      0.1785
     85  C         44.4360    7.5180  -30.3870 C.2   186  ASN186      0.2597
     86  O         43.6610    8.3670  -29.9590 O.2   186  ASN186     -0.2718
     87  CB        43.9730    6.5070  -32.6460 C.3   186  ASN186      0.1169
     88  CG        43.4190    7.8540  -33.0720 C.2   186  ASN186      0.2627
     89  OD1       42.2120    8.1240  -32.9440 O.2   186  ASN186     -0.2716
     90  ND2       44.2830    8.6920  -33.6200 N.am  186  ASN186     -0.0877
     91  N         45.7570    7.5610  -30.2240 N.am  187  CYS187     -0.1970
     92  CA        46.4880    8.7400  -29.7530 C.3   187  CYS187      0.1712
     93  C         46.2200    9.0400  -28.2710 C.2   187  CYS187      0.2296
     94  O         45.5920    8.2400  -27.5640 O.2   187  CYS187     -0.2864
     95  CB        46.1920    9.9510  -30.6450 C.3   187  CYS187      0.0983
     96  SG        47.5240   11.1910  -30.6450 S.3   187  CYS187     -0.0798
     97  N         49.9800    5.0830  -32.9800 N.3   269  CYS269     -0.1221
     98  CA        49.8020    6.4840  -33.3840 C.3   269  CYS269      0.1808
     99  C         51.0910    7.2350  -33.0860 C.2   269  CYS269      0.2601
    100  O         52.1550    6.6540  -33.1490 O.2   269  CYS269     -0.2717
    101  CB        48.6200    7.0810  -32.6350 C.3   269  CYS269      0.0970
    102  SG        47.8780    8.4330  -33.5210 S.3   269  CYS269     -0.0800
    103  N         51.0050    8.5210  -32.7370 N.am  270  CYS270     -0.1970
    104  CA        52.2240    9.3130  -32.4970 C.3   270  CYS270      0.1712
    105  C         53.2780    8.6030  -31.6370 C.2   270  CYS270      0.2296
    106  O         52.9760    8.0430  -30.5370 O.2   270  CYS270     -0.2864
    107  CB        51.8380   10.6460  -31.8820 C.3   270  CYS270      0.0983
    108  SG        50.6530   11.5280  -32.9070 S.3   270  CYS270     -0.0798
@<TRIPOS>BOND
     1    50    48    1
     2    48    45    1
     3    48    49    1
     4    54    53    2
     5    45    44    1
     6    45    46    1
     7    51    46   am
     8    51    52    1
     9    53    52    1
    10    55    52    1
    11    55    56    1
    12    44    37   am
    13    46    47    2
    14    58    56   ar
    15    58    60   ar
    16    38    37    2
    17    37    36    1
    18    56    57   ar
    19    60    61   ar
    20    35    36    1
    21    26    27   ar
    22    26    24   ar
    23    36    39    1
    24    27    25   ar
    25    57    59   ar
    26    61    59   ar
    27    24    22   ar
    28    25    23   ar
    29    39    40    1
    30     8     6   ar
    31    22    23   ar
    32    22    21    1
    33    40    41    1
    34     6     5    1
    35     6     7   ar
    36     5     2    1
    37    21    18    1
    38    41    43   am
    39    41    42    2
    40     2     1    1
    41     2     3    1
    42    18    19    1
    43    18    17    1
    44    20    19    2
    45    33    32    1
    46    19    28   am
    47    28    29    1
    48    70    68   ar
    49    17    15   am
    50    29    32    1
    51    29    30    1
    52     3     9   am
    53     3     4    2
    54     9    10    1
    55    32    34    1
    56    68    67    1
    57    68    69   ar
    58    67    66    1
    59    31    30    2
    60    12    11    2
    61    15    16    2
    62    15    14    1
    63    62    63    1
    64    11    10    1
    65    11    13   am
    66    66    63    1
    67    13    14    1
    68    63    64    1
    69    65    64    2
    70    64    71   am
    71    71    72    1
    72    75    72    1
    73    75    76    1
    74    74    73    2
    75    72    73    1
    76    90    88   am
    77   102   101    1
    78    98    99    1
    79    98    97    1
    80    98   101    1
    81    76    78   ar
    82    76    77   ar
    83   100    99    2
    84    78    80   ar
    85    99   103   am
    86    88    89    2
    87    88    87    1
    88   108   107    1
    89   103   104    1
    90    87    84    1
    91    77    79   ar
    92   104   107    1
    93   104   105    1
    94    80    81   ar
    95   105   106    2
    96    79    81   ar
    97    81    82    1
    98    84    83    1
    99    84    85    1
   100    95    96    1
   101    95    92    1
   102    85    91   am
   103    85    86    2
   104    91    92    1
   105    92    93    1
   106    93    94    2
