@<TRIPOS>MOLECULE
tmp/4m3qB00.pdb
 148 142 0 0 0
SMALL
GASTEIGER

@<TRIPOS>ATOM
      1  N         -9.8040    3.4080  -20.9020 N.3    17  LEU17      -0.1231
      2  CA       -11.1570    3.9370  -20.7880 C.3    17  LEU17       0.1693
      3  C        -11.1740    5.3450  -20.2070 C.2    17  LEU17       0.2592
      4  O        -11.9710    6.1830  -20.6230 O.2    17  LEU17      -0.2718
      5  CB       -12.0060    3.0060  -19.9230 C.3    17  LEU17       0.0284
      6  CG       -12.1510    1.5780  -20.4570 C.3    17  LEU17       0.0019
      7  CD1      -12.8850    0.7070  -19.4500 C.3    17  LEU17       0.0001
      8  CD2      -12.8590    1.5570  -21.8070 C.3    17  LEU17       0.0001
      9  N        -10.2900    5.6030  -19.2490 N.am   18  GLY18      -0.1957
     10  CA       -10.2080    6.9100  -18.6250 C.3    18  GLY18       0.1869
     11  C         -9.0040    7.0400  -17.7120 C.2    18  GLY18       0.2309
     12  O         -8.7500    8.1070  -17.1520 O.2    18  GLY18      -0.2863
     13  N         -7.3470    3.6480  -16.1550 N.3    20  VAL20      -0.1245
     14  CA        -8.3680    2.6090  -16.2660 C.3    20  VAL20       0.1561
     15  C         -8.3740    1.9810  -17.6580 C.2    20  VAL20       0.2260
     16  O         -8.5430    2.6770  -18.6610 O.2    20  VAL20      -0.2867
     17  CB        -9.7730    3.1700  -15.9590 C.3    20  VAL20       0.0252
     18  CG1      -10.8260    2.0700  -16.0450 C.3    20  VAL20       0.0019
     19  CG2       -9.7970    3.8200  -14.5830 C.3    20  VAL20       0.0019
     20  N        -13.0110   -4.0070  -16.1650 N.3    31  ALA31      -0.1245
     21  CA       -12.2640   -2.7540  -16.1720 C.3    31  ALA31       0.1562
     22  C        -11.1800   -2.8390  -15.1070 C.2    31  ALA31       0.2260
     23  O        -11.4400   -3.3010  -13.9960 O.2    31  ALA31      -0.2867
     24  CB       -13.1840   -1.5770  -15.9160 C.3    31  ALA31       0.0290
     25  N         -8.3360   -0.9240  -12.8290 N.3    33  LYS33      -0.1245
     26  CA        -7.6720    0.2230  -12.2170 C.3    33  LYS33       0.1561
     27  C         -6.2100   -0.0960  -11.9300 C.2    33  LYS33       0.2260
     28  O         -5.8930   -1.1880  -11.4640 O.2    33  LYS33      -0.2867
     29  CB        -8.3720    0.6330  -10.9200 C.3    33  LYS33       0.0271
     30  CG        -9.8570    0.9190  -11.0640 C.3    33  LYS33       0.0035
     31  CD       -10.3010    2.0260  -10.1160 C.3    33  LYS33       0.0206
     32  CE       -10.1000    1.6340   -8.6570 C.3    33  LYS33       0.1093
     33  NZ       -10.5780    2.6880   -7.7210 N.3    33  LYS33      -0.1314
     34  N        -20.7810   -1.6740   -6.7450 N.3    52  ILE52      -0.1245
     35  CA       -19.9470   -2.3630   -7.7200 C.3    52  ILE52       0.1561
     36  C        -19.2120   -3.4900   -7.0040 C.2    52  ILE52       0.2260
     37  O        -18.7150   -3.3050   -5.8920 O.2    52  ILE52      -0.2867
     38  CB       -18.9460   -1.4060   -8.4160 C.3    52  ILE52       0.0252
     39  CG1      -18.3110   -2.1020   -9.6240 C.3    52  ILE52       0.0019
     40  CG2      -17.8730   -0.9130   -7.4440 C.3    52  ILE52       0.0019
     41  CD1      -17.5640   -1.1650  -10.5530 C.3    52  ILE52       0.0001
     42  N        -12.5460   -4.8870  -11.8590 N.3    65  LEU65      -0.1231
     43  CA       -13.9530   -4.5780  -11.6340 C.3    65  LEU65       0.1678
     44  C        -14.7580   -4.9400  -12.8820 C.2    65  LEU65       0.2434
     45  O        -14.1920   -5.0760  -13.9660 O.2    65  LEU65      -0.2733
     46  CB       -14.1290   -3.0980  -11.2890 C.3    65  LEU65       0.0284
     47  CG       -13.2790   -2.5910  -10.1200 C.3    65  LEU65       0.0019
     48  CD1      -13.2970   -1.0730  -10.0650 C.3    65  LEU65       0.0001
     49  CD2      -13.7540   -3.1780   -8.7990 C.3    65  LEU65       0.0001
     50  N        -16.0820   -5.0910  -12.7410 N.am   66  PRO66      -0.2718
     51  CA       -16.8960   -5.4160  -13.9170 C.3    66  PRO66       0.1535
     52  C        -16.9160   -4.2820  -14.9330 C.2    66  PRO66       0.2599
     53  O        -16.7670   -3.1190  -14.5570 O.2    66  PRO66      -0.2715
     54  CB       -18.2980   -5.6420  -13.3350 C.3    66  PRO66       0.0310
     55  CG       -18.0990   -5.8280  -11.8670 C.3    66  PRO66       0.0237
     56  CD       -16.8860   -5.0400  -11.5100 C.3    66  PRO66       0.0939
     57  N        -17.1080   -4.6200  -16.2030 N.am   67  PHE67      -0.1960
     58  CA       -17.2850   -3.6160  -17.2420 C.3    67  PHE67       0.1771
     59  C        -18.7660   -3.2780  -17.3530 C.2    67  PHE67       0.2619
     60  O        -19.6180   -4.1650  -17.2780 O.2    67  PHE67      -0.2715
     61  CB       -16.7440   -4.1170  -18.5810 C.3    67  PHE67       0.0574
     62  CG       -16.7920   -3.0890  -19.6750 C.ar   67  PHE67      -0.0200
     63  CD1      -17.9240   -2.9470  -20.4620 C.ar   67  PHE67      -0.0042
     64  CD2      -15.7050   -2.2670  -19.9190 C.ar   67  PHE67      -0.0042
     65  CE1      -17.9710   -2.0040  -21.4680 C.ar   67  PHE67      -0.0003
     66  CE2      -15.7460   -1.3220  -20.9250 C.ar   67  PHE67      -0.0003
     67  CZ       -16.8810   -1.1910  -21.7000 C.ar   67  PHE67      -0.0000
     68  N        -19.0640   -1.9950  -17.5380 N.am   68  MET68      -0.1963
     69  CA       -20.4420   -1.5210  -17.6270 C.3    68  MET68       0.1736
     70  C        -20.6010   -0.5750  -18.8090 C.2    68  MET68       0.2616
     71  O        -20.2560    0.6030  -18.7380 O.2    68  MET68      -0.2715
     72  CB       -20.8520   -0.8430  -16.3200 C.3    68  MET68       0.0427
     73  CG       -20.8850   -1.8100  -15.1470 C.3    68  MET68       0.0599
     74  SD       -21.2380   -1.0340  -13.5640 S.3    68  MET68      -0.1393
     75  CE       -21.1540   -2.4570  -12.4790 C.3    68  MET68       0.0692
     76  N        -21.1460   -1.1170  -19.8920 N.am   69  LYS69      -0.1963
     77  CA       -21.1950   -0.4430  -21.1840 C.3    69  LYS69       0.1728
     78  C        -21.8920    0.9170  -21.1720 C.2    69  LYS69       0.2616
     79  O        -21.5760    1.7770  -21.9930 O.2    69  LYS69      -0.2715
     80  CB       -21.8750   -1.3670  -22.1970 C.3    69  LYS69       0.0311
     81  CG       -23.2480   -1.8660  -21.7690 C.3    69  LYS69       0.0038
     82  CD       -23.9130   -2.6610  -22.8790 C.3    69  LYS69       0.0206
     83  CE       -25.2090   -3.3000  -22.4100 C.3    69  LYS69       0.1093
     84  NZ       -25.8670   -4.0850  -23.4920 N.3    69  LYS69      -0.1314
     85  N        -22.8260    1.1210  -20.2480 N.am   70  TYR70      -0.1960
     86  CA       -23.5370    2.3970  -20.1600 C.3    70  TYR70       0.1771
     87  C        -22.6980    3.4460  -19.4230 C.2    70  TYR70       0.2620
     88  O        -23.0340    4.6310  -19.4120 O.2    70  TYR70      -0.2715
     89  CB       -24.8890    2.2030  -19.4700 C.3    70  TYR70       0.0574
     90  CG       -25.8270    1.2880  -20.2310 C.ar   70  TYR70      -0.0198
     91  CD1      -25.8110    1.2410  -21.6220 C.ar   70  TYR70      -0.0009
     92  CD2      -26.7190    0.4630  -19.5610 C.ar   70  TYR70      -0.0009
     93  CE1      -26.6610    0.4040  -22.3210 C.ar   70  TYR70       0.0417
     94  CE2      -27.5740   -0.3770  -20.2530 C.ar   70  TYR70       0.0417
     95  CZ       -27.5390   -0.4020  -21.6310 C.ar   70  TYR70       0.1957
     96  OH       -28.3850   -1.2370  -22.3210 O.3    70  TYR70      -0.2866
     97  N        -21.6090    2.9950  -18.8100 N.am   71  GLY71      -0.1940
     98  CA       -20.6000    3.8770  -18.2480 C.3    71  GLY71       0.2014
     99  C        -21.0290    4.7130  -17.0590 C.2    71  GLY71       0.2638
    100  O        -22.1040    4.5150  -16.4930 O.2    71  GLY71      -0.2714
    101  N        -20.1670    5.6560  -16.6860 N.am   72  ASP72      -0.1971
    102  CA       -20.4000    6.5300  -15.5390 C.3    72  ASP72       0.1709
    103  C        -21.6470    7.3920  -15.7210 C.2    72  ASP72       0.2293
    104  O        -22.0440    7.7060  -16.8420 O.2    72  ASP72      -0.2864
    105  CB       -19.1730    7.4140  -15.2890 C.3    72  ASP72       0.1436
    106  CG       -18.8940    8.3730  -16.4320 C.2    72  ASP72       0.3671
    107  OD1      -18.4820    7.9100  -17.5170 O.co2  72  ASP72      -0.2456
    108  OD2      -19.0690    9.5930  -16.2400 O.co2  72  ASP72      -0.2456
    109  N        -19.4990   11.1230  -11.2720 N.3   121  ARG121     -0.1231
    110  CA       -18.5380   10.4950  -12.1720 C.3   121  ARG121      0.1694
    111  C        -18.1320    9.1030  -11.6900 C.2   121  ARG121      0.2592
    112  O        -17.6990    8.2660  -12.4830 O.2   121  ARG121     -0.2718
    113  CB       -17.2890   11.3690  -12.3090 C.3   121  ARG121      0.0321
    114  CG       -16.5790   11.6260  -10.9870 C.3   121  ARG121      0.0489
    115  CD       -15.2910   12.4120  -11.1710 C.3   121  ARG121      0.2205
    116  NE       -14.6780   12.7520   -9.8880 N.pl3 121  ARG121     -0.0865
    117  CZ       -15.0290   13.7930   -9.1360 C.cat 121  ARG121      0.5346
    118  NH1      -15.9920   14.6160   -9.5330 N.pl3 121  ARG121      0.1354
    119  NH2      -14.4120   14.0150   -7.9830 N.pl3 121  ARG121      0.1354
    120  N        -18.2710    8.8680  -10.3880 N.am  122  ASN122     -0.1974
    121  CA       -17.8730    7.6030   -9.7790 C.3   122  ASN122      0.1688
    122  C        -19.0600    6.6730   -9.5480 C.2   122  ASN122      0.2292
    123  O        -18.9590    5.7000   -8.7990 O.2   122  ASN122     -0.2864
    124  CB       -17.1500    7.8620   -8.4540 C.3   122  ASN122      0.1181
    125  CG       -15.7940    8.5150   -8.6460 C.2   122  ASN122      0.2629
    126  OD1      -15.1540    8.3580   -9.6870 O.2   122  ASN122     -0.2716
    127  ND2      -15.3500    9.2550   -7.6390 N.am  122  ASN122     -0.0877
    128  N        -21.6480    4.1760  -11.5440 N.3   124  MET124     -0.1245
    129  CA       -21.7570    3.4420  -12.7990 C.3   124  MET124      0.1570
    130  C        -23.1850    2.9740  -13.0370 C.2   124  MET124      0.2261
    131  O        -23.9290    2.7210  -12.0900 O.2   124  MET124     -0.2867
    132  CB       -20.8110    2.2390  -12.7980 C.3   124  MET124      0.0387
    133  CG       -19.3710    2.5780  -12.4490 C.3   124  MET124      0.0595
    134  SD       -18.6560    3.8460  -13.5090 S.3   124  MET124     -0.1393
    135  CE       -18.7720    3.0690  -15.1170 C.3   124  MET124      0.0692
    136  N        -19.0370    3.2700   -6.9500 N.3   134  ALA134     -0.1231
    137  CA       -17.7500    2.6920   -7.3170 C.3   134  ALA134      0.1694
    138  C        -16.5960    3.6360   -7.0050 C.2   134  ALA134      0.2592
    139  O        -16.8010    4.7550   -6.5430 O.2   134  ALA134     -0.2718
    140  CB       -17.7440    2.3310   -8.7930 C.3   134  ALA134      0.0304
    141  N        -15.3820    3.1630   -7.2690 N.am  135  ASP135     -0.1974
    142  CA       -14.1650    3.9450   -7.0790 C.3   135  ASP135      0.1709
    143  C        -13.9820    4.3870   -5.6250 C.2   135  ASP135      0.2293
    144  O        -13.9200    5.5810   -5.3320 O.2   135  ASP135     -0.2864
    145  CB       -14.1770    5.1660   -8.0040 C.3   135  ASP135      0.1436
    146  CG       -12.7960    5.7650   -8.1980 C.2   135  ASP135      0.3671
    147  OD1      -12.0700    5.2970   -9.1000 O.co2 135  ASP135     -0.2456
    148  OD2      -12.4380    6.7020   -7.4540 O.co2 135  ASP135     -0.2456
@<TRIPOS>BOND
     1    84    83    1
     2    82    83    1
     3    82    81    1
     4    96    95    1
     5    93    95   ar
     6    93    91   ar
     7    80    81    1
     8    80    77    1
     9    79    78    2
    10     8     6    1
    11    67    65   ar
    12    67    66   ar
    13    95    94   ar
    14    91    90   ar
    15    65    63   ar
    16    77    78    1
    17    77    76    1
    18    78    85   am
    19    66    64   ar
    20     1     2    1
    21     2     3    1
    22     2     5    1
    23     4     3    2
    24    63    62   ar
    25     6     5    1
    26     6     7    1
    27    94    92   ar
    28    85    86    1
    29    90    92   ar
    30    90    89    1
    31     3     9   am
    32    86    89    1
    33    86    87    1
    34    64    62   ar
    35    76    70   am
    36    62    61    1
    37    87    88    2
    38    87    97   am
    39     9    10    1
    40    97    98    1
    41    70    71    2
    42    70    69    1
    43    16    15    2
    44    10    11    1
    45    61    58    1
    46    98    99    1
    47    11    12    2
    48    15    14    1
    49    69    68    1
    50    69    72    1
    51    68    59   am
    52   107   106   ar
    53    59    60    2
    54    59    58    1
    55    58    57    1
    56    99   101   am
    57    99   100    2
    58   104   103    2
    59   101   102    1
    60   106   108   ar
    61   106   105    1
    62    72    73    1
    63    14    13    1
    64    14    17    1
    65    57    52   am
    66    21    20    1
    67    21    24    1
    68    21    22    1
    69    18    17    1
    70    17    19    1
    71   103   102    1
    72   102   105    1
    73    73    74    1
    74   135   134    1
    75    22    23    2
    76    52    53    2
    77    52    51    1
    78    45    44    2
    79    51    54    1
    80    51    50    1
    81    74    75    1
    82   134   133    1
    83    54    55    1
    84   130   129    1
    85   130   131    2
    86    44    50   am
    87    44    43    1
    88    25    26    1
    89   129   132    1
    90   129   128    1
    91   132   133    1
    92    50    56    1
    93   112   111    2
    94   113   110    1
    95   113   114    1
    96    26    27    1
    97    26    29    1
    98   110   111    1
    99   110   109    1
   100    27    28    2
   101    55    56    1
   102    42    43    1
   103   111   120   am
   104    43    46    1
   105    46    47    1
   106   115   114    1
   107   115   116    1
   108    30    29    1
   109    30    31    1
   110    41    39    1
   111   120   121    1
   112    47    48    1
   113    47    49    1
   114    31    32    1
   115   116   117    2
   116   121   122    1
   117   121   124    1
   118   126   125    2
   119    39    38    1
   120   122   123    2
   121   118   117    1
   122   117   119    1
   123   147   146   ar
   124   140   137    1
   125    32    33    1
   126   125   124    1
   127   125   127   am
   128    38    35    1
   129    38    40    1
   130   146   145    1
   131   146   148   ar
   132   145   142    1
   133    35    36    1
   134    35    34    1
   135   137   138    1
   136   137   136    1
   137   141   142    1
   138   141   138   am
   139   142   143    1
   140   138   139    2
   141    36    37    2
   142   143   144    2
