@<TRIPOS>MOLECULE
tmp/4m3sA00.pdb
 128 123 0 0 0
SMALL
GASTEIGER

@<TRIPOS>ATOM
      1  N         17.6860    4.3080    2.0820 N.3    27  TYR27      -0.1227
      2  CA        18.3180    4.8290    3.2890 C.3    27  TYR27       0.1736
      3  C         17.4750    5.8980    3.9830 C.2    27  TYR27       0.2595
      4  O         17.3510    5.8890    5.2220 O.2    27  TYR27      -0.2718
      5  CB        19.7140    5.3680    3.0420 C.3    27  TYR27       0.0548
      6  CG        20.6140    4.4690    2.2650 C.ar   27  TYR27      -0.0200
      7  CD1       20.5880    3.0880    2.3980 C.ar   27  TYR27      -0.0009
      8  CD2       21.5040    4.9960    1.3500 C.ar   27  TYR27      -0.0009
      9  CE1       21.4180    2.2750    1.6610 C.ar   27  TYR27       0.0417
     10  CE2       22.3310    4.1920    0.5820 C.ar   27  TYR27       0.0417
     11  CZ        22.2560    2.8380    0.7230 C.ar   27  TYR27       0.1957
     12  OH        23.0530    2.0390   -0.0160 O.3    27  TYR27      -0.2866
     13  N         16.9110    6.7830    3.1410 N.am   28  CYS28      -0.1970
     14  CA        16.0620    8.0120    3.4670 C.3    28  CYS28       0.1712
     15  C         14.7680    7.5260    4.1700 C.2    28  CYS28       0.2296
     16  O         14.2570    8.1720    5.0780 O.2    28  CYS28      -0.2864
     17  CB        15.7480    9.0030    2.1970 C.3    28  CYS28       0.0983
     18  SG        17.2230    9.8830    1.7110 S.3    28  CYS28      -0.0798
     19  N         12.9970    3.5890    4.2850 N.3    30  PRO30      -0.2116
     20  CA        12.9540    2.2150    3.7880 C.3    30  PRO30       0.1372
     21  C         11.6150    1.6990    3.2520 C.2    30  PRO30       0.2244
     22  O         11.6330    0.8340    2.3950 O.2    30  PRO30      -0.2868
     23  CB        13.3970    1.3890    5.0100 C.3    30  PRO30       0.0268
     24  CG        14.1160    2.3200    5.8820 C.3    30  PRO30       0.0207
     25  CD        13.6800    3.6920    5.5840 C.3    30  PRO30       0.0892
     26  N         10.6010    9.2980   13.6620 N.3    67  TYR67      -0.1241
     27  CA         9.6930    8.1610   13.4910 C.3    67  TYR67       0.1605
     28  C          9.2750    7.4650   14.7680 C.2    67  TYR67       0.2264
     29  O          8.3290    6.6810   14.7580 O.2    67  TYR67      -0.2867
     30  CB        10.1530    7.1680   12.4300 C.3    67  TYR67       0.0534
     31  CG        11.0090    6.0210   12.9200 C.ar   67  TYR67      -0.0201
     32  CD1       12.3130    6.1930   13.3050 C.ar   67  TYR67      -0.0009
     33  CD2       10.4690    4.7320   13.0260 C.ar   67  TYR67      -0.0009
     34  CE1       13.0960    5.1200   13.7450 C.ar   67  TYR67       0.0417
     35  CE2       11.2220    3.6600   13.4700 C.ar   67  TYR67       0.0417
     36  CZ        12.5290    3.8690   13.8310 C.ar   67  TYR67       0.1957
     37  OH        13.2830    2.8120   14.2640 O.3    67  TYR67      -0.2866
     38  N         15.3200    9.4910   15.1610 N.3    77  LEU77      -0.1231
     39  CA        15.3470   10.1340   13.8560 C.3    77  LEU77       0.1693
     40  C         14.6430    9.2910   12.8110 C.2    77  LEU77       0.2593
     41  O         14.8670    8.1040   12.6800 O.2    77  LEU77      -0.2718
     42  CB        16.8040   10.3790   13.4460 C.3    77  LEU77       0.0284
     43  CG        16.9590   11.0440   12.1020 C.3    77  LEU77       0.0019
     44  CD1       16.6110   12.5060   12.2440 C.3    77  LEU77       0.0001
     45  CD2       18.3980   10.9130   11.6090 C.3    77  LEU77       0.0001
     46  N         13.7520    9.9170   12.0760 N.am   78  GLY78      -0.1942
     47  CA        13.0140    9.2950   10.9840 C.3    78  GLY78       0.2014
     48  C         13.6960    9.5750    9.7030 C.2    78  GLY78       0.2638
     49  O         14.8590    9.1620    9.4970 O.2    78  GLY78      -0.2714
     50  N         13.0270   10.2160    8.7820 N.am   79  ASN79      -0.1972
     51  CA        13.6550   10.6100    7.5250 C.3    79  ASN79       0.1688
     52  C         14.7250   11.6870    7.7690 C.2    79  ASN79       0.2292
     53  O         14.5390   12.5680    8.6070 O.2    79  ASN79      -0.2864
     54  CB        12.5240   11.2490    6.6480 C.3    79  ASN79       0.1181
     55  CG        11.3300   10.3480    6.4290 C.2    79  ASN79       0.2629
     56  OD1       10.1940   10.6970    6.7520 O.2    79  ASN79      -0.2716
     57  ND2       11.5560    9.1490    5.9010 N.am   79  ASN79      -0.0877
     58  N         19.4450    5.4230   13.6010 N.3   111  SER111     -0.1202
     59  CA        19.8450    4.2530   12.8890 C.3   111  SER111      0.2020
     60  C         20.3990    4.6730   11.5460 C.2   111  SER111      0.2619
     61  O         19.8820    5.5940   10.8940 O.2   111  SER111     -0.2717
     62  CB        18.6490    3.3230   12.6970 C.3   111  SER111      0.2103
     63  OG        18.1610    2.8440   13.9350 O.3   111  SER111     -0.2182
     64  N         21.4040    3.9560   11.0890 N.am  112  CYS112     -0.1955
     65  CA        22.0570    4.2660    9.8290 C.3   112  CYS112      0.1843
     66  C         22.4400    2.9850    9.1050 C.2   112  CYS112      0.2625
     67  O         23.0620    2.0960    9.6890 O.2   112  CYS112     -0.2714
     68  CB        23.3090    5.0750   10.1800 C.3   112  CYS112      0.0997
     69  SG        24.2460    5.7420    8.8140 S.3   112  CYS112     -0.0797
     70  N         22.0860    2.9030    7.8440 N.am  113  PHE113     -0.1974
     71  CA        22.4390    1.7440    7.0450 C.3   113  PHE113      0.1639
     72  C         23.9390    1.6930    6.7810 C.2   113  PHE113      0.2290
     73  O         24.6390    2.7110    6.6730 O.2   113  PHE113     -0.2864
     74  CB        21.6880    1.7300    5.7210 C.3   113  PHE113      0.0560
     75  CG        20.2610    1.3470    5.8870 C.ar  113  PHE113     -0.0200
     76  CD1       19.8820    0.0620    6.0780 C.ar  113  PHE113     -0.0042
     77  CD2       19.2550    2.3210    5.8960 C.ar  113  PHE113     -0.0042
     78  CE1       18.5510   -0.3080    6.2270 C.ar  113  PHE113     -0.0003
     79  CE2       17.9290    1.9790    6.0470 C.ar  113  PHE113     -0.0003
     80  CZ        17.5630    0.6880    6.2270 C.ar  113  PHE113     -0.0000
     81  N         25.9200    3.8150    4.2550 N.3   116  ASN116     -0.1240
     82  CA        25.9610    5.2660    4.4400 C.3   116  ASN116      0.1653
     83  C         27.1420    5.7100    5.3180 C.2   116  ASN116      0.2266
     84  O         26.9830    6.0570    6.4610 O.2   116  ASN116     -0.2867
     85  CB        24.6050    5.7650    4.9510 C.3   116  ASN116      0.1155
     86  CG        24.5360    7.2730    5.0640 C.2   116  ASN116      0.2627
     87  OD1       25.4390    7.9950    4.6440 O.2   116  ASN116     -0.2716
     88  ND2       23.4500    7.7710    5.6230 N.am  116  ASN116     -0.0877
     89  N         27.4330   11.1880   12.3670 N.3   123  TYR123     -0.1241
     90  CA        26.8140   10.9390   13.6660 C.3   123  TYR123      0.1605
     91  C         27.8530   10.6730   14.7570 C.2   123  TYR123      0.2264
     92  O         27.6960   11.0870   15.8980 O.2   123  TYR123     -0.2867
     93  CB        25.7730    9.8000   13.5850 C.3   123  TYR123      0.0534
     94  CG        24.7280    9.9820   12.5120 C.ar  123  TYR123     -0.0201
     95  CD1       24.0970   11.1650   12.3100 C.ar  123  TYR123     -0.0009
     96  CD2       24.3540    8.8750   11.7470 C.ar  123  TYR123     -0.0009
     97  CE1       23.1170   11.2770   11.2830 C.ar  123  TYR123      0.0417
     98  CE2       23.4230    8.9410   10.7660 C.ar  123  TYR123      0.0417
     99  CZ        22.7870   10.1500   10.5640 C.ar  123  TYR123      0.1957
    100  OH        21.8120   10.2120    9.6040 O.3   123  TYR123     -0.2866
    101  N         18.5060   -5.9080    7.9600 N.3   136  ARG136     -0.1245
    102  CA        17.3960   -5.4560    7.1140 C.3   136  ARG136      0.1563
    103  C         17.6400   -5.9790    5.6980 C.2   136  ARG136      0.2260
    104  O         18.6830   -6.5560    5.4150 O.2   136  ARG136     -0.2867
    105  CB        17.2440   -3.9310    7.1230 C.3   136  ARG136      0.0307
    106  CG        17.0100   -3.2690    8.5020 C.3   136  ARG136      0.0489
    107  CD        15.6050   -3.5530    8.9880 C.3   136  ARG136      0.2205
    108  NE        15.2990   -2.8810   10.2570 N.pl3 136  ARG136     -0.0865
    109  CZ        15.4300   -3.4600   11.4590 C.cat 136  ARG136      0.5346
    110  NH1       15.8310   -4.7150   11.6010 N.pl3 136  ARG136      0.1354
    111  NH2       15.1270   -2.7870   12.5510 N.pl3 136  ARG136      0.1354
    112  N         21.9200   -2.5330    9.7160 N.3   146  LEU146     -0.1245
    113  CA        21.4300   -1.2570   10.2320 C.3   146  LEU146      0.1561
    114  C         22.1600   -1.0080   11.5530 C.2   146  LEU146      0.2260
    115  O         21.9410   -1.7430   12.5300 O.2   146  LEU146     -0.2867
    116  CB        19.9170   -1.3170   10.4170 C.3   146  LEU146      0.0270
    117  CG        19.2630    0.0090   10.8620 C.3   146  LEU146      0.0019
    118  CD1       19.3120    1.0580    9.7660 C.3   146  LEU146      0.0001
    119  CD2       17.8810   -0.2900   11.3530 C.3   146  LEU146      0.0001
    120  N         22.5540    0.7900   14.8410 N.3   148  GLN148     -0.1245
    121  CA        21.6480    1.4830   15.7500 C.3   148  GLN148      0.1566
    122  C         22.5070    2.2110   16.7690 C.2   148  GLN148      0.2260
    123  O         23.2730    1.5610   17.5100 O.2   148  GLN148     -0.2867
    124  CB        20.7390    0.4810   16.4090 C.3   148  GLN148      0.0367
    125  CG        19.8570   -0.2330   15.3760 C.3   148  GLN148      0.0905
    126  CD        19.1210   -1.4520   15.8810 C.2   148  GLN148      0.2608
    127  OE1       19.6910   -2.3300   16.5040 O.2   148  GLN148     -0.2717
    128  NE2       17.8140   -1.5380   15.5510 N.am  148  GLN148     -0.0878
@<TRIPOS>BOND
     1    12    11    1
     2    10    11   ar
     3    10     8   ar
     4    11     9   ar
     5     8     6   ar
     6     9     7   ar
     7    18    17    1
     8     1     2    1
     9    17    14    1
    10     6     7   ar
    11     6     5    1
    12    22    21    2
    13     5     2    1
    14    13    14    1
    15    13     3   am
    16    21    20    1
    17     2     3    1
    18    14    15    1
    19    20    19    1
    20    20    23    1
    21     3     4    2
    22    15    16    2
    23    81    82    1
    24    19    25    1
    25    82    85    1
    26    82    83    1
    27    87    86    2
    28    85    86    1
    29    23    24    1
    30    86    88   am
    31    83    84    2
    32   104   103    2
    33    25    24    1
    34   103   102    1
    35    74    75    1
    36    74    71    1
    37    75    77   ar
    38    75    76   ar
    39    77    79   ar
    40    57    55   am
    41    79    80   ar
    42    76    78   ar
    43    78    80   ar
    44    55    54    1
    45    55    56    2
    46    54    51    1
    47    73    72    2
    48    72    71    1
    49    71    70    1
    50   102   105    1
    51   102   101    1
    52   105   106    1
    53    51    52    1
    54    51    50    1
    55    52    53    2
    56    70    66   am
    57   106   107    1
    58    50    48   am
    59    69    68    1
    60   107   108    1
    61    66    67    2
    62    66    65    1
    63    49    48    2
    64   100    99    1
    65    48    47    1
    66   112   113    1
    67   118   117    1
    68    65    68    1
    69    65    64    1
    70   113   116    1
    71   113   114    1
    72   108   109    2
    73   116   117    1
    74    99    98   ar
    75    99    97   ar
    76    98    96   ar
    77   117   119    1
    78    61    60    2
    79    47    46    1
    80    64    60   am
    81    97    95   ar
    82   109   110    1
    83   109   111    1
    84    60    59    1
    85   114   115    2
    86    45    43    1
    87    96    94   ar
    88    46    40   am
    89    43    44    1
    90    43    42    1
    91    95    94   ar
    92    89    90    1
    93    30    31    1
    94    30    27    1
    95    94    93    1
    96    41    40    2
    97    62    59    1
    98    62    63    1
    99    40    39    1
   100    59    58    1
   101    31    33   ar
   102    31    32   ar
   103    33    35   ar
   104    32    34   ar
   105    42    39    1
   106    35    36   ar
   107    27    26    1
   108    27    28    1
   109    93    90    1
   110    90    91    1
   111    34    36   ar
   112    36    37    1
   113    39    38    1
   114    91    92    2
   115    29    28    2
   116   120   121    1
   117   125   126    1
   118   125   124    1
   119   128   126   am
   120   121   124    1
   121   121   122    1
   122   126   127    2
   123   122   123    2
