@<TRIPOS>MOLECULE
tmp/4m44A03.pdb
 133 128 0 0 0
SMALL
GASTEIGER

@<TRIPOS>ATOM
      1  N        219.3190  -35.6250   16.4120 N.3    95  PHE95      -0.1241
      2  CA       219.5530  -34.5660   15.4310 C.3    95  PHE95       0.1605
      3  C        219.9560  -33.2450   16.0860 C.2    95  PHE95       0.2264
      4  O        219.3910  -32.8640   17.1110 O.2    95  PHE95      -0.2867
      5  CB       218.2990  -34.3650   14.5760 C.3    95  PHE95       0.0534
      6  CG       218.5780  -33.7960   13.2190 C.ar   95  PHE95      -0.0203
      7  CD1      218.8730  -34.6310   12.1520 C.ar   95  PHE95      -0.0042
      8  CD2      218.5500  -32.4280   13.0060 C.ar   95  PHE95      -0.0042
      9  CE1      219.1330  -34.1130   10.8990 C.ar   95  PHE95      -0.0003
     10  CE2      218.8130  -31.9020   11.7530 C.ar   95  PHE95      -0.0003
     11  CZ       219.1040  -32.7470   10.6990 C.ar   95  PHE95      -0.0000
     12  N        205.4730  -37.6550    4.1650 N.3   136  ARG136     -0.1245
     13  CA       206.1410  -38.8410    4.6760 C.3   136  ARG136      0.1563
     14  C        206.8440  -38.4420    5.9680 C.2   136  ARG136      0.2260
     15  O        207.3210  -37.3120    6.0960 O.2   136  ARG136     -0.2867
     16  CB       207.1400  -39.4000    3.6600 C.3   136  ARG136      0.0307
     17  CG       208.3130  -38.4840    3.3690 C.3   136  ARG136      0.0489
     18  CD       209.3460  -39.1580    2.4840 C.3   136  ARG136      0.2205
     19  NE       210.4490  -38.2560    2.1710 N.pl3 136  ARG136     -0.0865
     20  CZ       211.6000  -38.2280    2.8350 C.cat 136  ARG136      0.5346
     21  NH1      211.8010  -39.0580    3.8500 N.pl3 136  ARG136      0.1354
     22  NH2      212.5520  -37.3710    2.4850 N.pl3 136  ARG136      0.1354
     23  N        209.7520  -38.2090    8.1730 N.3   138  GLY138     -0.1210
     24  CA       211.1990  -38.2700    8.0650 C.3   138  GLY138      0.1956
     25  C        211.9230  -38.9150    9.2340 C.2   138  GLY138      0.2613
     26  O        211.3950  -39.0070   10.3420 O.2   138  GLY138     -0.2717
     27  N        213.1500  -39.3540    8.9710 N.am  139  THR139     -0.1938
     28  CA       213.9910  -40.0240    9.9570 C.3   139  THR139      0.2028
     29  C        215.4330  -39.6260    9.6920 C.2   139  THR139      0.2643
     30  O        215.7370  -39.0250    8.6600 O.2   139  THR139     -0.2714
     31  CB       213.8940  -41.5630    9.8800 C.3   139  THR139      0.1808
     32  OG1      214.1760  -41.9970    8.5430 O.3   139  THR139     -0.2208
     33  CG2      212.5140  -42.0490   10.2940 C.3   139  THR139      0.0379
     34  N        216.3210  -39.9500   10.6240 N.am  140  SER140     -0.1935
     35  CA       217.7240  -39.5910   10.4730 C.3   140  SER140      0.2055
     36  C        218.6610  -40.5820   11.1530 C.2   140  SER140      0.2643
     37  O        218.3360  -41.1480   12.1970 O.2   140  SER140     -0.2714
     38  CB       217.9770  -38.1770   10.9960 C.3   140  SER140      0.2130
     39  OG       219.3490  -37.8400   10.9000 O.3   140  SER140     -0.2179
     40  N        219.8260  -40.7850   10.5460 N.am  141  GLY141     -0.1954
     41  CA       220.8500  -41.6450   11.1080 C.3   141  GLY141      0.1869
     42  C        221.4400  -41.0790   12.3840 C.2   141  GLY141      0.2309
     43  O        222.0870  -41.7940   13.1480 O.2   141  GLY141     -0.2863
     44  N        208.8700  -35.3760   11.5110 N.3   158  TRP158     -0.1241
     45  CA       209.4990  -34.5950   10.4570 C.3   158  TRP158      0.1605
     46  C        208.6470  -34.6590    9.1930 C.2   158  TRP158      0.2264
     47  O        208.8360  -35.5410    8.3570 O.2   158  TRP158     -0.2867
     48  CB       210.9070  -35.1360   10.1930 C.3   158  TRP158      0.0550
     49  CG       211.7690  -34.2740    9.3210 C.ar  158  TRP158      0.0003
     50  CD1      211.3820  -33.1900    8.5850 C.ar  158  TRP158      0.0946
     51  CD2      213.1770  -34.4240    9.1040 C.ar  158  TRP158      0.0152
     52  NE1      212.4620  -32.6590    7.9190 N.ar  158  TRP158     -0.2442
     53  CE2      213.5760  -33.3980    8.2210 C.ar  158  TRP158      0.0810
     54  CE3      214.1390  -35.3270    9.5690 C.ar  158  TRP158      0.0012
     55  CZ2      214.8940  -33.2520    7.7950 C.ar  158  TRP158      0.0191
     56  CZ3      215.4470  -35.1800    9.1430 C.ar  158  TRP158      0.0001
     57  CH2      215.8130  -34.1510    8.2650 C.ar  158  TRP158      0.0015
     58  N        207.6870  -34.0160    5.7250 N.3   160  VAL160     -0.1245
     59  CA       208.2330  -33.6060    4.4440 C.3   160  VAL160      0.1561
     60  C        207.3070  -34.0710    3.3100 C.2   160  VAL160      0.2260
     61  O        206.8550  -35.2170    3.3070 O.2   160  VAL160     -0.2867
     62  CB       209.6840  -34.1290    4.2880 C.3   160  VAL160      0.0252
     63  CG1      209.7990  -35.5390    4.8480 C.3   160  VAL160      0.0019
     64  CG2      210.1620  -34.0540    2.8420 C.3   160  VAL160      0.0019
     65  N        212.5370  -27.9390   10.9670 N.3   193  HIS193     -0.1241
     66  CA       213.8360  -28.2410   10.3790 C.3   193  HIS193      0.1621
     67  C        214.1760  -27.2140    9.3080 C.2   193  HIS193      0.2264
     68  O        213.3030  -26.7790    8.5570 O.2   193  HIS193     -0.2867
     69  CB       213.8320  -29.6440    9.7710 C.3   193  HIS193      0.0745
     70  CG       215.0400  -29.9460    8.9410 C.ar  193  HIS193      0.0817
     71  ND1      215.0680  -29.7670    7.5740 N.ar  193  HIS193     -0.2268
     72  CD2      216.2640  -30.4150    9.2830 C.ar  193  HIS193      0.1154
     73  CE1      216.2570  -30.1100    7.1110 C.ar  193  HIS193      0.1986
     74  NE2      217.0010  -30.5080    8.1280 N.ar  193  HIS193     -0.2212
     75  N        217.6740  -25.9210    6.4970 N.3   195  ASP195     -0.1239
     76  CA       218.8750  -26.4180    5.8340 C.3   195  ASP195      0.1674
     77  C        219.4750  -25.3540    4.9200 C.2   195  ASP195      0.2266
     78  O        219.1380  -24.1740    5.0190 O.2   195  ASP195     -0.2867
     79  CB       218.5360  -27.6720    5.0240 C.3   195  ASP195      0.1410
     80  CG       219.6500  -28.6980    5.0400 C.2   195  ASP195      0.3668
     81  OD1      220.8170  -28.3180    4.8140 O.co2 195  ASP195     -0.2456
     82  OD2      219.3530  -29.8880    5.2760 O.co2 195  ASP195     -0.2456
     83  N        219.3890  -28.2440   -0.3980 N.3   199  GLN199     -0.1245
     84  CA       218.6850  -29.2590    0.3830 C.3   199  GLN199      0.1566
     85  C        217.2430  -28.8570    0.6750 C.2   199  GLN199      0.2260
     86  O        216.3460  -29.7030    0.6820 O.2   199  GLN199     -0.2867
     87  CB       219.4250  -29.5720    1.6860 C.3   199  GLN199      0.0367
     88  CG       220.8130  -30.1720    1.5120 C.3   199  GLN199      0.0905
     89  CD       221.8870  -29.1270    1.2770 C.2   199  GLN199      0.2608
     90  OE1      221.5910  -27.9530    1.0510 O.2   199  GLN199     -0.2717
     91  NE2      223.1450  -29.5490    1.3400 N.am  199  GLN199     -0.0878
     92  N        213.9980  -31.1220   -0.3170 N.3   203  LEU203     -0.1245
     93  CA       213.0460  -31.5640    0.6980 C.3   203  LEU203      0.1561
     94  C        211.6710  -30.9050    0.5940 C.2   203  LEU203      0.2260
     95  O        210.6470  -31.5700    0.7500 O.2   203  LEU203     -0.2867
     96  CB       213.6150  -31.3320    2.0990 C.3   203  LEU203      0.0270
     97  CG       214.8130  -32.1740    2.5360 C.3   203  LEU203      0.0019
     98  CD1      215.4560  -31.5660    3.7700 C.3   203  LEU203      0.0001
     99  CD2      214.3910  -33.6080    2.8070 C.3   203  LEU203      0.0001
    100  N        227.0580  -37.3330   13.8020 N.3   239  LEU239     -0.1231
    101  CA       227.0720  -37.3060   12.3400 C.3   239  LEU239      0.1678
    102  C        226.9500  -35.8870   11.8000 C.2   239  LEU239      0.2434
    103  O        226.0940  -35.1210   12.2400 O.2   239  LEU239     -0.2733
    104  CB       225.9490  -38.1710   11.7690 C.3   239  LEU239      0.0284
    105  CG       226.1000  -39.6770   11.9760 C.3   239  LEU239      0.0019
    106  CD1      224.9150  -40.4210   11.3800 C.3   239  LEU239      0.0001
    107  CD2      227.4080  -40.1600   11.3700 C.3   239  LEU239      0.0001
    108  N        227.8100  -35.5340   10.8360 N.am  240  PRO240     -0.2718
    109  CA       227.7370  -34.2220   10.1870 C.3   240  PRO240      0.1535
    110  C        226.4210  -34.0440    9.4400 C.2   240  PRO240      0.2598
    111  O        225.9840  -34.9490    8.7300 O.2   240  PRO240     -0.2715
    112  CB       228.9040  -34.2570    9.1930 C.3   240  PRO240      0.0310
    113  CG       229.8410  -35.2840    9.7400 C.3   240  PRO240      0.0237
    114  CD       228.9590  -36.3240   10.3620 C.3   240  PRO240      0.0939
    115  N        225.7900  -32.8900    9.6190 N.am  241  GLN241     -0.1964
    116  CA       224.5660  -32.5590    8.9030 C.3   241  GLN241      0.1733
    117  C        224.6780  -31.1360    8.3780 C.2   241  GLN241      0.2617
    118  O        225.4190  -30.3190    8.9280 O.2   241  GLN241     -0.2715
    119  CB       223.3440  -32.6830    9.8190 C.3   241  GLN241      0.0408
    120  CG       223.1180  -34.0720   10.4050 C.3   241  GLN241      0.0908
    121  CD       222.4530  -35.0320    9.4340 C.2   241  GLN241      0.2608
    122  OE1      222.2060  -34.6970    8.2720 O.2   241  GLN241     -0.2717
    123  NE2      222.1530  -36.2360    9.9110 N.am  241  GLN241     -0.0878
    124  N        223.9560  -30.8450    7.3020 N.am  242  SER242     -0.1936
    125  CA       223.9950  -29.5180    6.7010 C.3   242  SER242      0.2055
    126  C        222.9110  -28.6170    7.2820 C.2   242  SER242      0.2643
    127  O        222.9660  -27.3960    7.1410 O.2   242  SER242     -0.2714
    128  CB       223.8560  -29.6120    5.1750 C.3   242  SER242      0.2130
    129  OG       222.6820  -30.3190    4.8070 O.3   242  SER242     -0.2179
    130  N        221.9270  -29.2280    7.9340 N.am  243  GLY243     -0.1954
    131  CA       220.8250  -28.4860    8.5170 C.3   243  GLY243      0.1869
    132  C        220.7300  -28.5840   10.0300 C.2   243  GLY243      0.2309
    133  O        221.5290  -29.2630   10.6760 O.2   243  GLY243     -0.2863
@<TRIPOS>BOND
     1    83    84    1
     2    92    93    1
     3    84    85    1
     4    84    87    1
     5    94    93    1
     6    94    95    2
     7    85    86    2
     8    93    96    1
     9    90    89    2
    10    89    91   am
    11    89    88    1
    12    88    87    1
    13    96    97    1
    14    19    18    1
    15    19    20    2
    16    18    17    1
    17    22    20    1
    18    97    99    1
    19    97    98    1
    20    20    21    1
    21    64    62    1
    22    61    60    2
    23    60    59    1
    24    17    16    1
    25    16    13    1
    26    12    13    1
    27    62    59    1
    28    62    63    1
    29    59    58    1
    30    13    14    1
    31   129   128    1
    32    81    80   ar
    33    77    78    2
    34    77    76    1
    35    79    80    1
    36    79    76    1
    37    80    82   ar
    38   128   125    1
    39    76    75    1
    40    14    15    2
    41   125   126    1
    42   125   124    1
    43    73    71   ar
    44    73    74   ar
    45   127   126    2
    46   126   130   am
    47   124   117   am
    48    71    70   ar
    49    55    53   ar
    50    55    57   ar
    51    52    53   ar
    52    52    50   ar
    53   130   131    1
    54    24    23    1
    55    24    25    1
    56    74    72   ar
    57    53    51   ar
    58    57    56   ar
    59   122   121    2
    60    47    46    2
    61   117   116    1
    62   117   118    2
    63   131   132    1
    64    32    31    1
    65    68    67    2
    66    50    49   ar
    67    30    29    2
    68   111   110    2
    69   116   115    1
    70   116   119    1
    71    70    72   ar
    72    70    69    1
    73    27    25   am
    74    27    28    1
    75    51    49   ar
    76    51    54   ar
    77    56    54   ar
    78    46    45    1
    79   112   113    1
    80   112   109    1
    81    25    26    2
    82    67    66    1
    83    49    48    1
    84   121   123   am
    85   121   120    1
    86   110   115   am
    87   110   109    1
    88    29    28    1
    89    29    34   am
    90   113   114    1
    91    69    66    1
    92   119   120    1
    93    31    28    1
    94    31    33    1
    95   132   133    2
    96   109   108    1
    97    48    45    1
    98   114   108    1
    99    66    65    1
   100    45    44    1
   101    35    34    1
   102    35    38    1
   103    35    36    1
   104    40    41    1
   105    40    36   am
   106    11     9   ar
   107    11    10   ar
   108   108   102   am
   109     9     7   ar
   110    39    38    1
   111    41    42    1
   112    36    37    2
   113   107   105    1
   114   106   105    1
   115    10     8   ar
   116   104   105    1
   117   104   101    1
   118   102   103    2
   119   102   101    1
   120     7     6   ar
   121   101   100    1
   122    42    43    2
   123     8     6   ar
   124     6     5    1
   125     5     2    1
   126     2     3    1
   127     2     1    1
   128     3     4    2
