@<TRIPOS>MOLECULE
tmp/4m44B00.pdb
 78 74 0 0 0
SMALL
GASTEIGER

@<TRIPOS>ATOM
      1  N        225.0710  -29.5320   94.7850 N.3    18  ALA18      -0.1231
      2  CA       224.0490  -30.5030   94.4070 C.3    18  ALA18       0.1694
      3  C        222.7580  -29.8690   93.8850 C.2    18  ALA18       0.2593
      4  O        221.7780  -30.5720   93.6420 O.2    18  ALA18      -0.2718
      5  CB       223.7480  -31.4300   95.5780 C.3    18  ALA18       0.0304
      6  N        222.7580  -28.5510   93.7080 N.am   19  GLY19      -0.1942
      7  CA       221.5640  -27.8510   93.2640 C.3    19  GLY19       0.2014
      8  C        221.7780  -26.3710   93.0100 C.2    19  GLY19       0.2638
      9  O        222.8980  -25.8710   93.1190 O.2    19  GLY19      -0.2714
     10  N        220.6970  -25.6690   92.6800 N.am   20  TRP20      -0.1973
     11  CA       220.7810  -24.2710   92.2560 C.3    20  TRP20       0.1640
     12  C        220.4710  -23.2940   93.3840 C.2    20  TRP20       0.2290
     13  O        221.0960  -22.2390   93.4930 O.2    20  TRP20      -0.2864
     14  CB       219.8390  -24.0090   91.0820 C.3    20  TRP20       0.0576
     15  CG       220.1760  -24.7770   89.8410 C.ar   20  TRP20       0.0006
     16  CD1      221.2070  -25.6550   89.6700 C.ar   20  TRP20       0.0946
     17  CD2      219.4720  -24.7380   88.5950 C.ar   20  TRP20       0.0152
     18  NE1      221.1900  -26.1610   88.3920 N.ar   20  TRP20      -0.2442
     19  CE2      220.1340  -25.6130   87.7130 C.ar   20  TRP20       0.0810
     20  CE3      218.3470  -24.0440   88.1390 C.ar   20  TRP20       0.0012
     21  CZ2      219.7080  -25.8150   86.4020 C.ar   20  TRP20       0.0191
     22  CZ3      217.9250  -24.2450   86.8380 C.ar   20  TRP20       0.0001
     23  CH2      218.6040  -25.1250   85.9840 C.ar   20  TRP20       0.0015
     24  N        216.6810  -29.7480   96.7340 N.3    37  LEU37      -0.1245
     25  CA       216.5150  -30.4860   95.4870 C.3    37  LEU37       0.1561
     26  C        215.1370  -30.2890   94.8570 C.2    37  LEU37       0.2260
     27  O        214.9890  -30.3740   93.6390 O.2    37  LEU37      -0.2867
     28  CB       216.8010  -31.9730   95.7060 C.3    37  LEU37       0.0270
     29  CG       218.2120  -32.2840   96.2140 C.3    37  LEU37       0.0019
     30  CD1      218.3820  -33.7700   96.4900 C.3    37  LEU37       0.0001
     31  CD2      219.2660  -31.7910   95.2340 C.3    37  LEU37       0.0001
     32  N        215.2240  -26.9480   92.9380 N.3    40  THR40      -0.1203
     33  CA       216.0870  -27.1010   91.7710 C.3    40  THR40       0.1994
     34  C        215.3880  -27.8940   90.6650 C.2    40  THR40       0.2617
     35  O        215.4730  -27.5460   89.4860 O.2    40  THR40      -0.2717
     36  CB       217.4240  -27.7810   92.1430 C.3    40  THR40       0.1784
     37  OG1      218.1150  -26.9860   93.1150 O.3    40  THR40      -0.2211
     38  CG2      218.3080  -27.9420   90.9170 C.3    40  THR40       0.0376
     39  N        214.6860  -28.9520   91.0560 N.am   41  GLN41      -0.1979
     40  CA       213.9640  -29.7820   90.1010 C.3    41  GLN41       0.1601
     41  C        212.8280  -29.0010   89.4440 C.2    41  GLN41       0.2287
     42  O        212.6050  -29.1180   88.2420 O.2    41  GLN41      -0.2864
     43  CB       213.4300  -31.0510   90.7720 C.3    41  GLN41       0.0394
     44  CG       212.9890  -32.1250   89.7870 C.3    41  GLN41       0.0908
     45  CD       214.0570  -32.4410   88.7540 C.2    41  GLN41       0.2608
     46  OE1      215.2040  -32.7300   89.0970 O.2    41  GLN41      -0.2717
     47  NE2      213.6840  -32.3780   87.4810 N.am   41  GLN41      -0.0878
     48  N        214.2750  -26.8240   86.8360 N.3    44  ILE44      -0.1245
     49  CA       214.7380  -27.6510   85.7280 C.3    44  ILE44       0.1561
     50  C        213.5700  -28.1230   84.8600 C.2    44  ILE44       0.2260
     51  O        213.6740  -28.1720   83.6320 O.2    44  ILE44      -0.2867
     52  CB       215.5700  -28.8560   86.2380 C.3    44  ILE44       0.0252
     53  CG1      216.9250  -28.3780   86.7630 C.3    44  ILE44       0.0019
     54  CG2      215.7780  -29.8840   85.1370 C.3    44  ILE44       0.0019
     55  CD1      217.8310  -29.4940   87.2400 C.3    44  ILE44       0.0001
     56  N        212.1440  -25.1800   82.7020 N.3    47  ILE47      -0.1231
     57  CA       213.0320  -24.9850   81.5680 C.3    47  ILE47       0.1692
     58  C        212.8400  -26.0780   80.5210 C.2    47  ILE47       0.2592
     59  O        212.8370  -25.8050   79.3180 O.2    47  ILE47      -0.2718
     60  CB       214.4990  -24.9460   82.0290 C.3    47  ILE47       0.0266
     61  CG1      214.7290  -23.7340   82.9360 C.3    47  ILE47       0.0019
     62  CG2      215.4470  -24.9060   80.8410 C.3    47  ILE47       0.0020
     63  CD1      216.0220  -23.7900   83.7200 C.3    47  ILE47       0.0001
     64  N        212.6650  -27.3130   80.9830 N.am   48  THR48      -0.1953
     65  CA       212.4750  -28.4410   80.0780 C.3    48  THR48       0.1897
     66  C        211.1790  -28.3060   79.2810 C.2    48  THR48       0.2313
     67  O        211.1630  -28.5230   78.0690 O.2    48  THR48      -0.2863
     68  CB       212.4850  -29.7810   80.8360 C.3    48  THR48       0.1794
     69  OG1      213.7940  -30.0180   81.3660 O.3    48  THR48      -0.2208
     70  CG2      212.1090  -30.9270   79.9070 C.3    48  THR48       0.0378
     71  N        211.6480  -25.6070   76.7740 N.3    51  LEU51      -0.1245
     72  CA       212.3590  -26.1490   75.6180 C.3    51  LEU51       0.1561
     73  C        211.4170  -26.8750   74.6590 C.2    51  LEU51       0.2260
     74  O        211.4900  -26.6800   73.4460 O.2    51  LEU51      -0.2867
     75  CB       213.4730  -27.0960   76.0640 C.3    51  LEU51       0.0270
     76  CG       214.1770  -27.8680   74.9480 C.3    51  LEU51       0.0019
     77  CD1      214.9160  -26.9160   74.0170 C.3    51  LEU51       0.0001
     78  CD2      215.1250  -28.9050   75.5310 C.3    51  LEU51       0.0001
@<TRIPOS>BOND
     1    74    73    2
     2    77    76    1
     3    73    72    1
     4    76    78    1
     5    76    75    1
     6    72    75    1
     7    72    71    1
     8    67    66    2
     9    66    65    1
    10    59    58    2
    11    70    68    1
    12    65    68    1
    13    65    64    1
    14    58    64   am
    15    58    57    1
    16    68    69    1
    17    62    60    1
    18    57    60    1
    19    57    56    1
    20    60    61    1
    21    61    63    1
    22    51    50    2
    23    50    49    1
    24    54    52    1
    25    49    52    1
    26    49    48    1
    27    23    21   ar
    28    23    22   ar
    29    52    53    1
    30    21    19   ar
    31    53    55    1
    32    22    20   ar
    33    47    45   am
    34    19    18   ar
    35    19    17   ar
    36    20    17   ar
    37    42    41    2
    38    18    16   ar
    39    17    15   ar
    40    45    46    2
    41    45    44    1
    42    41    40    1
    43    35    34    2
    44    16    15   ar
    45    44    43    1
    46    15    14    1
    47    40    43    1
    48    40    39    1
    49    34    39   am
    50    34    33    1
    51    38    36    1
    52    14    11    1
    53    33    36    1
    54    33    32    1
    55    36    37    1
    56    11    10    1
    57    11    12    1
    58    10     8   am
    59     8     9    2
    60     8     7    1
    61     7     6    1
    62    12    13    2
    63    27    26    2
    64     4     3    2
    65     6     3   am
    66     3     2    1
    67     2     1    1
    68     2     5    1
    69    26    25    1
    70    31    29    1
    71    25    28    1
    72    25    24    1
    73    28    29    1
    74    29    30    1
