@<TRIPOS>MOLECULE
tmp/4m48A00.pdb
 164 157 0 0 0
SMALL
GASTEIGER

@<TRIPOS>ATOM
      1  N        -45.3140   -8.5410   53.0680 N.3    19  PHE19      -0.1227
      2  CA       -44.2430   -7.5510   53.0580 C.3    19  PHE19       0.1736
      3  C        -44.7080   -6.2020   52.5270 C.2    19  PHE19       0.2595
      4  O        -44.3570   -5.1550   53.0700 O.2    19  PHE19      -0.2718
      5  CB       -43.0670   -8.0300   52.2100 C.3    19  PHE19       0.0547
      6  CG       -42.1670   -6.9150   51.7550 C.ar   19  PHE19      -0.0202
      7  CD1      -41.3720   -6.2310   52.6630 C.ar   19  PHE19      -0.0042
      8  CD2      -42.1210   -6.5430   50.4210 C.ar   19  PHE19      -0.0042
      9  CE1      -40.5480   -5.1980   52.2490 C.ar   19  PHE19      -0.0003
     10  CE2      -41.2940   -5.5110   49.9990 C.ar   19  PHE19      -0.0003
     11  CZ       -40.5100   -4.8360   50.9150 C.ar   19  PHE19      -0.0000
     12  N        -45.4860   -6.2310   51.4520 N.am   20  ALA20      -0.1980
     13  CA       -45.9150   -5.0040   50.7980 C.3    20  ALA20       0.1597
     14  C        -46.9230   -4.2500   51.6520 C.2    20  ALA20       0.2287
     15  O        -46.8290   -3.0370   51.8150 O.2    20  ALA20      -0.2864
     16  CB       -46.5010   -5.3100   49.4280 C.3    20  ALA20       0.0319
     17  N        -48.4590   -2.9760   54.8400 N.3    22  ASP22      -0.1239
     18  CA       -48.1850   -2.6970   56.2470 C.3    22  ASP22       0.1674
     19  C        -49.0200   -1.5200   56.7320 C.2    22  ASP22       0.2266
     20  O        -50.0710   -1.2230   56.1640 O.2    22  ASP22      -0.2867
     21  CB       -46.6940   -2.4330   56.4810 C.3    22  ASP22       0.1410
     22  CG       -46.2140   -1.1510   55.8260 C.2    22  ASP22       0.3668
     23  OD1      -46.8920   -0.6590   54.8990 O.co2  22  ASP22      -0.2456
     24  OD2      -45.1520   -0.6360   56.2340 O.co2  22  ASP22      -0.2456
     25  N        -29.4260   -1.3130   55.0490 N.3    92  ILE92      -0.1231
     26  CA       -30.6320   -0.5180   55.1710 C.3    92  ILE92       0.1692
     27  C        -31.7210   -1.3440   55.8380 C.2    92  ILE92       0.2591
     28  O        -32.3750   -0.8960   56.7820 O.2    92  ILE92      -0.2718
     29  CB       -31.0810   -0.0120   53.8090 C.3    92  ILE92       0.0266
     30  CG1      -30.1390    1.1060   53.3620 C.3    92  ILE92       0.0019
     31  CG2      -32.5240    0.4710   53.8670 C.3    92  ILE92       0.0020
     32  CD1      -30.3540    1.5480   51.9580 C.3    92  ILE92       0.0001
     33  N        -31.8810   -2.5700   55.3530 N.am   93  ALA93      -0.1980
     34  CA       -32.7760   -3.5420   55.9660 C.3    93  ALA93       0.1597
     35  C        -32.3520   -3.7700   57.4060 C.2    93  ALA93       0.2287
     36  O        -33.1810   -3.9950   58.2960 O.2    93  ALA93      -0.2864
     37  CB       -32.7450   -4.8520   55.1920 C.3    93  ALA93       0.0319
     38  N        -33.3710   -0.5430   59.5460 N.3    96  VAL96      -0.1231
     39  CA       -34.8110   -0.4340   59.7470 C.3    96  VAL96       0.1692
     40  C        -35.2880   -1.3750   60.8510 C.2    96  VAL96       0.2592
     41  O        -36.1720   -1.0260   61.6300 O.2    96  VAL96      -0.2718
     42  CB       -35.6040   -0.6800   58.4400 C.3    96  VAL96       0.0266
     43  CG1      -37.0950   -0.5860   58.6860 C.3    96  VAL96       0.0020
     44  CG2      -35.2080    0.3280   57.3880 C.3    96  VAL96       0.0020
     45  N        -34.6740   -2.5500   60.9400 N.am   97  ASP97      -0.1974
     46  CA       -35.0630   -3.5340   61.9470 C.3    97  ASP97       0.1709
     47  C        -34.8870   -3.0200   63.3750 C.2    97  ASP97       0.2293
     48  O        -35.4920   -3.5440   64.3130 O.2    97  ASP97      -0.2864
     49  CB       -34.2860   -4.8370   61.7610 C.3    97  ASP97       0.1436
     50  CG       -34.9780   -5.8060   60.8180 C.2    97  ASP97       0.3671
     51  OD1      -36.2280   -5.8150   60.7680 O.co2  97  ASP97      -0.2456
     52  OD2      -34.2680   -6.5650   60.1270 O.co2  97  ASP97      -0.2456
     53  N        -35.7470    0.0350   64.4400 N.3    99  TYR99      -0.1227
     54  CA       -36.8210    0.9340   64.8410 C.3    99  TYR99       0.1736
     55  C        -38.2090    0.4860   64.4070 C.2    99  TYR99       0.2595
     56  O        -39.1890    0.7570   65.0960 O.2    99  TYR99      -0.2718
     57  CB       -36.5460    2.3640   64.3590 C.3    99  TYR99       0.0548
     58  CG       -36.8420    2.6300   62.8990 C.ar   99  TYR99      -0.0200
     59  CD1      -38.1070    3.0350   62.4870 C.ar   99  TYR99      -0.0009
     60  CD2      -35.8500    2.5070   61.9360 C.ar   99  TYR99      -0.0009
     61  CE1      -38.3820    3.2880   61.1600 C.ar   99  TYR99       0.0417
     62  CE2      -36.1150    2.7640   60.6010 C.ar   99  TYR99       0.0417
     63  CZ       -37.3830    3.1530   60.2210 C.ar   99  TYR99       0.1957
     64  OH       -37.6540    3.4090   58.8980 O.3    99  TYR99      -0.2866
     65  N        -38.2930   -0.1820   63.2630 N.am  100  TYR100     -0.1962
     66  CA       -39.5820   -0.5750   62.7040 C.3   100  TYR100      0.1771
     67  C        -40.3290   -1.5050   63.6460 C.2   100  TYR100      0.2619
     68  O        -41.5440   -1.4040   63.7980 O.2   100  TYR100     -0.2715
     69  CB       -39.3930   -1.2500   61.3450 C.3   100  TYR100      0.0574
     70  CG       -40.6800   -1.5610   60.6050 C.ar  100  TYR100     -0.0198
     71  CD1      -41.3480   -2.7630   60.8050 C.ar  100  TYR100     -0.0009
     72  CD2      -41.2160   -0.6580   59.6940 C.ar  100  TYR100     -0.0009
     73  CE1      -42.5150   -3.0510   60.1280 C.ar  100  TYR100      0.0417
     74  CE2      -42.3830   -0.9390   59.0100 C.ar  100  TYR100      0.0417
     75  CZ       -43.0280   -2.1370   59.2310 C.ar  100  TYR100      0.1957
     76  OH       -44.1900   -2.4250   58.5540 O.3   100  TYR100     -0.2866
     77  N        -39.5930   -2.4050   64.2870 N.am  101  ASN101     -0.1972
     78  CA       -40.2090   -3.4100   65.1430 C.3   101  ASN101      0.1688
     79  C        -40.8810   -2.8590   66.3940 C.2   101  ASN101      0.2292
     80  O        -41.7890   -3.4850   66.9440 O.2   101  ASN101     -0.2864
     81  CB       -39.1900   -4.4760   65.5220 C.3   101  ASN101      0.1181
     82  CG       -38.8280   -5.3500   64.3600 C.2   101  ASN101      0.2629
     83  OD1      -39.5560   -6.2850   64.0260 O.2   101  ASN101     -0.2716
     84  ND2      -37.7070   -5.0470   63.7180 N.am  101  ASN101     -0.0877
     85  N        -42.5210    3.7210   48.3700 N.3   252  PHE252     -0.1227
     86  CA       -42.3420    3.1530   49.6980 C.3   252  PHE252      0.1736
     87  C        -43.3830    2.0960   50.0810 C.2   252  PHE252      0.2596
     88  O        -43.0940    1.2290   50.9000 O.2   252  PHE252     -0.2718
     89  CB       -42.2460    4.2580   50.7540 C.3   252  PHE252      0.0547
     90  CG       -40.9450    5.0000   50.7170 C.ar  252  PHE252     -0.0202
     91  CD1      -39.8420    4.5160   51.3960 C.ar  252  PHE252     -0.0042
     92  CD2      -40.8140    6.1640   49.9770 C.ar  252  PHE252     -0.0042
     93  CE1      -38.6340    5.1830   51.3480 C.ar  252  PHE252     -0.0003
     94  CE2      -39.6090    6.8380   49.9270 C.ar  252  PHE252     -0.0003
     95  CZ       -38.5180    6.3470   50.6130 C.ar  252  PHE252     -0.0000
     96  N        -44.5730    2.1550   49.4800 N.am  253  SER253     -0.1938
     97  CA       -45.6380    1.1920   49.7830 C.3   253  SER253      0.2055
     98  C        -45.4550   -0.1580   49.0910 C.2   253  SER253      0.2643
     99  O        -45.9830   -1.1730   49.5520 O.2   253  SER253     -0.2714
    100  CB       -47.0140    1.7580   49.4330 C.3   253  SER253      0.2130
    101  OG       -48.0300    0.7990   49.6680 O.3   253  SER253     -0.2179
    102  N        -44.7240   -0.1620   47.9790 N.am  254  LEU254     -0.1963
    103  CA       -44.4090   -1.3980   47.2630 C.3   254  LEU254      0.1728
    104  C        -43.0480   -1.9340   47.6760 C.2   254  LEU254      0.2616
    105  O        -42.8020   -3.1390   47.6230 O.2   254  LEU254     -0.2715
    106  CB       -44.4250   -1.1670   45.7540 C.3   254  LEU254      0.0311
    107  CG       -45.8070   -1.0150   45.1270 C.3   254  LEU254      0.0022
    108  CD1      -45.6810   -0.7870   43.6340 C.3   254  LEU254      0.0001
    109  CD2      -46.6430   -2.2480   45.4210 C.3   254  LEU254      0.0001
    110  N        -42.1730   -1.0200   48.0840 N.am  255  GLY255     -0.1955
    111  CA       -40.8060   -1.3460   48.4530 C.3   255  GLY255      0.1869
    112  C        -39.9920   -2.1210   47.4280 C.2   255  GLY255      0.2309
    113  O        -39.4240   -3.1620   47.7580 O.2   255  GLY255     -0.2863
    114  N        -35.6890   -3.3030   47.5700 N.3   258  PHE258     -0.1241
    115  CA       -35.2950   -3.2340   48.9730 C.3   258  PHE258      0.1605
    116  C        -34.5990   -4.5240   49.3720 C.2   258  PHE258      0.2264
    117  O        -34.1870   -4.6900   50.5190 O.2   258  PHE258     -0.2867
    118  CB       -36.4940   -2.9800   49.8910 C.3   258  PHE258      0.0534
    119  CG       -37.0930   -1.6000   49.7660 C.ar  258  PHE258     -0.0203
    120  CD1      -36.8770   -0.8170   48.6450 C.ar  258  PHE258     -0.0042
    121  CD2      -37.8760   -1.0890   50.7810 C.ar  258  PHE258     -0.0042
    122  CE1      -37.4400    0.4450   48.5380 C.ar  258  PHE258     -0.0003
    123  CE2      -38.4320    0.1720   50.6830 C.ar  258  PHE258     -0.0003
    124  CZ       -38.2160    0.9390   49.5620 C.ar  258  PHE258     -0.0000
    125  N        -35.8170   -7.5420   49.4500 N.3   260  VAL260     -0.1245
    126  CA       -36.6750   -8.5340   50.0830 C.3   260  VAL260      0.1561
    127  C        -37.5420   -9.2520   49.0580 C.2   260  VAL260      0.2260
    128  O        -37.7160  -10.4680   49.1350 O.2   260  VAL260     -0.2867
    129  CB       -37.5180   -7.9100   51.2260 C.3   260  VAL260      0.0252
    130  CG1      -37.4890   -6.3950   51.1350 C.3   260  VAL260      0.0019
    131  CG2      -38.9440   -8.4510   51.2330 C.3   260  VAL260      0.0019
    132  N        -44.1320   -7.6970   57.2810 N.3   354  SER354     -0.1202
    133  CA       -43.1980   -6.7330   56.7110 C.3   354  SER354      0.2020
    134  C        -41.8490   -6.9000   57.3820 C.2   354  SER354      0.2619
    135  O        -40.8110   -6.9140   56.7190 O.2   354  SER354     -0.2717
    136  CB       -43.6960   -5.3050   56.8980 C.3   354  SER354      0.2103
    137  OG       -44.7770   -5.0300   56.0280 O.3   354  SER354     -0.2182
    138  N        -41.8770   -7.0380   58.7050 N.am  355  SER355     -0.1951
    139  CA       -40.6650   -7.2530   59.4850 C.3   355  SER355      0.1924
    140  C        -39.9930   -8.5630   59.0860 C.2   355  SER355      0.2314
    141  O        -38.7630   -8.6480   59.0450 O.2   355  SER355     -0.2863
    142  CB       -40.9830   -7.2570   60.9790 C.3   355  SER355      0.2116
    143  OG       -39.8280   -7.5530   61.7430 O.3   355  SER355     -0.2180
    144  N        -38.1570   -8.0180   55.7770 N.3   358  GLY358     -0.1225
    145  CA       -36.9920   -7.1760   55.9710 C.3   358  GLY358      0.1811
    146  C        -35.8100   -7.9790   56.4680 C.2   358  GLY358      0.2280
    147  O        -34.7100   -7.8850   55.9280 O.2   358  GLY358     -0.2866
    148  N        -33.1230    4.9850   56.4500 N.3   412  ALA412     -0.1231
    149  CA       -33.4370    4.3360   55.1840 C.3   412  ALA412      0.1694
    150  C        -34.1010    5.2460   54.1570 C.2   412  ALA412      0.2592
    151  O        -34.1630    4.9060   52.9780 O.2   412  ALA412     -0.2718
    152  CB       -34.2940    3.1090   55.4320 C.3   412  ALA412      0.0304
    153  N        -34.5960    6.3930   54.6090 N.am  413  GLY413     -0.1957
    154  CA       -35.3380    7.3030   53.7530 C.3   413  GLY413      0.1869
    155  C        -34.6740    7.6830   52.4410 C.2   413  GLY413      0.2309
    156  O        -35.2500    7.5050   51.3730 O.2   413  GLY413     -0.2863
    157  N        -32.1410    4.3030   50.4690 N.3   416  ILE416     -0.1245
    158  CA       -32.7330    3.2960   49.5980 C.3   416  ILE416      0.1561
    159  C        -33.1560    3.8750   48.2450 C.2   416  ILE416      0.2260
    160  O        -33.2540    3.1500   47.2560 O.2   416  ILE416     -0.2867
    161  CB       -33.9130    2.5730   50.2760 C.3   416  ILE416      0.0252
    162  CG1      -34.1490    1.2110   49.6200 C.3   416  ILE416      0.0019
    163  CG2      -35.1590    3.4380   50.2460 C.3   416  ILE416      0.0019
    164  CD1      -32.8840    0.3910   49.4560 C.3   416  ILE416      0.0001
@<TRIPOS>BOND
     1   108   107    1
     2   107   109    1
     3   107   106    1
     4   106   103    1
     5   160   159    2
     6   103   104    1
     7   103   102    1
     8   112   113    2
     9   112   111    1
    10   114   115    1
    11   105   104    2
    12   104   110   am
    13   102    98   am
    14   110   111    1
    15   159   158    1
    16    85    86    1
    17   122   120   ar
    18   122   124   ar
    19   120   119   ar
    20   115   116    1
    21   115   118    1
    22   127   128    2
    23   127   126    1
    24    98    99    2
    25    98    97    1
    26   116   117    2
    27    16    13    1
    28   100   101    1
    29   100    97    1
    30   125   126    1
    31   164   162    1
    32    96    97    1
    33    96    87   am
    34   124   123   ar
    35   158   161    1
    36   158   157    1
    37   162   161    1
    38    86    87    1
    39    86    89    1
    40   119   118    1
    41   119   121   ar
    42    94    92   ar
    43    94    95   ar
    44    92    90   ar
    45    10     8   ar
    46    10    11   ar
    47    87    88    2
    48   126   129    1
    49   163   161    1
    50     8     6   ar
    51    95    93   ar
    52   123   121   ar
    53    90    89    1
    54    90    91   ar
    55    13    12    1
    56    13    14    1
    57    11     9   ar
    58   130   129    1
    59   129   131    1
    60    93    91   ar
    61   156   155    2
    62    12     3   am
    63    14    15    2
    64     6     5    1
    65     6     7   ar
    66    32    30    1
    67     5     2    1
    68     9     7   ar
    69   155   154    1
    70     3     2    1
    71     3     4    2
    72   151   150    2
    73     2     1    1
    74    30    29    1
    75   154   153    1
    76    29    31    1
    77    29    26    1
    78   150   153   am
    79   150   149    1
    80    17    18    1
    81    23    22   ar
    82    25    26    1
    83    26    27    1
    84   149   152    1
    85   149   148    1
    86    37    34    1
    87    33    27   am
    88    33    34    1
    89   144   145    1
    90    22    24   ar
    91    22    21    1
    92    27    28    2
    93   147   146    2
    94    34    35    1
    95   145   146    1
    96   137   136    1
    97    20    19    2
    98    18    21    1
    99    18    19    1
   100   133   136    1
   101   133   132    1
   102   133   134    1
   103   135   134    2
   104   134   138   am
   105    44    42    1
   106    35    36    2
   107    42    43    1
   108    42    39    1
   109    76    75    1
   110   138   139    1
   111    64    63    1
   112    74    75   ar
   113    74    72   ar
   114   141   140    2
   115   140   139    1
   116    75    73   ar
   117   139   142    1
   118    38    39    1
   119    72    70   ar
   120    39    40    1
   121    52    50   ar
   122    73    71   ar
   123    63    62   ar
   124    63    61   ar
   125    62    60   ar
   126    70    71   ar
   127    70    69    1
   128    51    50   ar
   129    50    49    1
   130    40    45   am
   131    40    41    2
   132    45    46    1
   133   142   143    1
   134    61    59   ar
   135    69    66    1
   136    49    46    1
   137    60    58   ar
   138    46    47    1
   139    59    58   ar
   140    66    65    1
   141    66    67    1
   142    58    57    1
   143    65    55   am
   144    47    48    2
   145    67    68    2
   146    67    77   am
   147    84    82   am
   148    83    82    2
   149    77    78    1
   150    57    54    1
   151    82    81    1
   152    55    54    1
   153    55    56    2
   154    53    54    1
   155    78    81    1
   156    78    79    1
   157    79    80    2
