@<TRIPOS>MOLECULE
tmp/4m49C02.pdb
 113 108 0 0 0
SMALL
GASTEIGER

@<TRIPOS>ATOM
      1  N          5.5710   -4.3230   15.5150 N.3    29  ALA29      -0.1231
      2  CA         6.6630   -3.3630   15.4240 C.3    29  ALA29       0.1694
      3  C          7.1340   -2.8870   16.7980 C.2    29  ALA29       0.2591
      4  O          8.3210   -2.6300   16.9910 O.2    29  ALA29      -0.2718
      5  CB         6.2790   -2.1810   14.5310 C.3    29  ALA29       0.0304
      6  N          6.2030   -2.7800   17.7480 N.am   30  VAL30      -0.1980
      7  CA         6.5130   -2.3200   19.0990 C.3    30  VAL30       0.1595
      8  C          7.2340   -3.4030   19.9130 C.2    30  VAL30       0.2287
      9  O          8.3160   -3.1660   20.4410 O.2    30  VAL30      -0.2864
     10  CB         5.2390   -1.8500   19.8540 C.3    30  VAL30       0.0276
     11  CG1        5.5700   -1.4870   21.3090 C.3    30  VAL30       0.0022
     12  CG2        4.5960   -0.6800   19.1340 C.3    30  VAL30       0.0022
     13  N         -5.9740   -3.5380   17.0600 N.3    98  ARG98      -0.1231
     14  CA        -5.9530   -2.1830   16.5150 C.3    98  ARG98       0.1694
     15  C         -7.3780   -1.6980   16.2820 C.2    98  ARG98       0.2591
     16  O         -8.1820   -2.4090   15.6820 O.2    98  ARG98      -0.2718
     17  CB        -5.1970   -2.1620   15.1860 C.3    98  ARG98       0.0321
     18  CG        -3.8990   -2.9540   15.1850 C.3    98  ARG98       0.0489
     19  CD        -3.4120   -3.2000   13.7660 C.3    98  ARG98       0.2205
     20  NE        -3.2280   -1.9560   13.0230 N.pl3  98  ARG98      -0.0865
     21  CZ        -4.1980   -1.3210   12.3700 C.cat  98  ARG98       0.5346
     22  NH1       -5.4320   -1.8090   12.3680 N.pl3  98  ARG98       0.1354
     23  NH2       -3.9350   -0.1950   11.7200 N.pl3  98  ARG98       0.1354
     24  N         -7.6950   -0.4940   16.7490 N.am   99  GLN99      -0.1979
     25  CA        -9.0410    0.0390   16.5670 C.3    99  GLN99       0.1601
     26  C         -9.4230   -0.0100   15.0970 C.2    99  GLN99       0.2287
     27  O         -8.6000    0.2700   14.2270 O.2    99  GLN99      -0.2864
     28  CB        -9.1630    1.4680   17.0990 C.3    99  GLN99       0.0394
     29  CG       -10.5640    2.0530   16.9400 C.3    99  GLN99       0.0908
     30  CD       -10.7470    3.3580   17.6900 C.2    99  GLN99       0.2608
     31  OE1       -9.7740    3.9990   18.0890 O.2    99  GLN99      -0.2717
     32  NE2      -12.0000    3.7560   17.8930 N.am   99  GLN99      -0.0878
     33  N         -2.2660   -0.2340   24.1460 N.3   137  ASN137     -0.1240
     34  CA        -3.2090    0.8620   24.3780 C.3   137  ASN137      0.1653
     35  C         -4.6680    0.4280   24.2920 C.2   137  ASN137      0.2266
     36  O         -4.9810   -0.5560   23.6300 O.2   137  ASN137     -0.2867
     37  CB        -2.9440    2.0210   23.4140 C.3   137  ASN137      0.1155
     38  CG        -1.8190    2.9170   23.8880 C.2   137  ASN137      0.2627
     39  OD1       -1.7080    3.2100   25.0820 O.2   137  ASN137     -0.2716
     40  ND2       -0.9660    3.3460   22.9590 N.am  137  ASN137     -0.0877
     41  N          9.5450   12.3710   25.1350 N.3   168  ARG168     -0.1245
     42  CA         9.2930   13.2330   23.9920 C.3   168  ARG168      0.1563
     43  C          9.3570   14.6970   24.4180 C.2   168  ARG168      0.2260
     44  O          9.9460   15.5440   23.7360 O.2   168  ARG168     -0.2867
     45  CB         7.9220   12.9290   23.3820 C.3   168  ARG168      0.0307
     46  CG         7.8510   11.6300   22.5840 C.3   168  ARG168      0.0489
     47  CD         6.6360   11.6350   21.6680 C.3   168  ARG168      0.2205
     48  NE         6.6430   10.5210   20.7240 N.pl3 168  ARG168     -0.0865
     49  CZ         5.8400    9.4630   20.8090 C.cat 168  ARG168      0.5346
     50  NH1        5.9140    8.5000   19.8980 N.pl3 168  ARG168      0.1354
     51  NH2        4.9600    9.3700   21.8020 N.pl3 168  ARG168      0.1354
     52  N         -2.4110    8.7370   29.9960 N.3   192  HIS192     -0.1226
     53  CA        -1.6420    8.7270   28.7540 C.3   192  HIS192      0.1752
     54  C         -2.5010    9.1730   27.5740 C.2   192  HIS192      0.2596
     55  O         -3.5820    8.6310   27.3370 O.2   192  HIS192     -0.2718
     56  CB        -1.0630    7.3350   28.4820 C.3   192  HIS192      0.0759
     57  CG        -0.4270    7.2010   27.1340 C.ar  192  HIS192      0.0818
     58  ND1        0.5950    8.0220   26.7080 N.ar  192  HIS192     -0.2268
     59  CD2       -0.6710    6.3450   26.1120 C.ar  192  HIS192      0.1154
     60  CE1        0.9540    7.6790   25.4830 C.ar  192  HIS192      0.1986
     61  NE2        0.2010    6.6640   25.0990 N.ar  192  HIS192     -0.2212
     62  N         -2.0210   10.1700   26.8410 N.am  193  GLY193     -0.1957
     63  CA        -2.7200   10.6210   25.6520 C.3   193  GLY193      0.1869
     64  C         -3.2140   12.0500   25.7260 C.2   193  GLY193      0.2309
     65  O         -2.5490   12.9180   26.2870 O.2   193  GLY193     -0.2863
     66  N          2.3600   10.5790   18.2450 N.3   237  ALA237     -0.1231
     67  CA         2.0580    9.2470   17.7420 C.3   237  ALA237      0.1694
     68  C          1.3530    9.3570   16.3980 C.2   237  ALA237      0.2592
     69  O          1.6750    8.6280   15.4540 O.2   237  ALA237     -0.2718
     70  CB         1.2060    8.4700   18.7380 C.3   237  ALA237      0.0304
     71  N          0.4010   10.2820   16.3110 N.am  238  TYR238     -0.1976
     72  CA        -0.3700   10.4680   15.0860 C.3   238  TYR238      0.1639
     73  C          0.5050   10.9900   13.9550 C.2   238  TYR238      0.2290
     74  O          0.4310   10.5030   12.8320 O.2   238  TYR238     -0.2864
     75  CB        -1.5380   11.4250   15.3220 C.3   238  TYR238      0.0560
     76  CG        -2.4610   10.9900   16.4330 C.ar  238  TYR238     -0.0198
     77  CD1       -2.3400   11.5260   17.7110 C.ar  238  TYR238     -0.0009
     78  CD2       -3.4500   10.0400   16.2090 C.ar  238  TYR238     -0.0009
     79  CE1       -3.1810   11.1320   18.7330 C.ar  238  TYR238      0.0417
     80  CE2       -4.2970    9.6380   17.2270 C.ar  238  TYR238      0.0417
     81  CZ        -4.1580   10.1880   18.4860 C.ar  238  TYR238      0.1957
     82  OH        -4.9960    9.7930   19.5050 O.3   238  TYR238     -0.2866
     83  N          2.7790    8.1720   12.7580 N.3   241  ILE241     -0.1245
     84  CA         2.0290    7.1330   12.0630 C.3   241  ILE241      0.1561
     85  C          1.6420    7.5980   10.6640 C.2   241  ILE241      0.2260
     86  O          1.6820    6.8250    9.7090 O.2   241  ILE241     -0.2867
     87  CB         0.7640    6.7250   12.8380 C.3   241  ILE241      0.0252
     88  CG1        1.1450    6.0030   14.1270 C.3   241  ILE241      0.0019
     89  CG2       -0.1210    5.8310   11.9740 C.3   241  ILE241      0.0019
     90  CD1       -0.0330    5.7060   15.0290 C.3   241  ILE241      0.0001
     91  N          3.4790    5.0490    9.0600 N.3   245  GLY245     -0.1210
     92  CA         2.4490    4.0360    9.2190 C.3   245  GLY245      0.1956
     93  C          2.3250    3.4520   10.6170 C.2   245  GLY245      0.2612
     94  O          1.3300    2.7980   10.9370 O.2   245  GLY245     -0.2717
     95  N          3.3300    3.6860   11.4540 N.am  246  TYR246     -0.1962
     96  CA         3.3420    3.1360   12.8060 C.3   246  TYR246      0.1771
     97  C          4.4870    3.7580   13.5910 C.2   246  TYR246      0.2620
     98  O          5.2770    4.5150   13.0360 O.2   246  TYR246     -0.2715
     99  CB         3.5060    1.6120   12.7710 C.3   246  TYR246      0.0574
    100  CG         4.8070    1.1390   12.1380 C.ar  246  TYR246     -0.0198
    101  CD1        5.9630    0.9810   12.9020 C.ar  246  TYR246     -0.0009
    102  CD2        4.8770    0.8520   10.7840 C.ar  246  TYR246     -0.0009
    103  CE1        7.1540    0.5540   12.3270 C.ar  246  TYR246      0.0417
    104  CE2        6.0640    0.4190   10.1950 C.ar  246  TYR246      0.0417
    105  CZ         7.1980    0.2760   10.9680 C.ar  246  TYR246      0.1957
    106  OH         8.3730   -0.1460   10.3880 O.3   246  TYR246     -0.2866
    107  N          4.5700    3.4540   14.8820 N.am  247  THR247     -0.1951
    108  CA         5.7150    3.8860   15.6780 C.3   247  THR247      0.1897
    109  C          6.4050    2.6610   16.2860 C.2   247  THR247      0.2313
    110  O          5.7530    1.6550   16.5550 O.2   247  THR247     -0.2863
    111  CB         5.3000    4.8840   16.7790 C.3   247  THR247      0.1794
    112  OG1        6.4160    5.7120   17.1230 O.3   247  THR247     -0.2208
    113  CG2        4.8390    4.1620   18.0180 C.3   247  THR247      0.0378
@<TRIPOS>BOND
     1    91    92    1
     2    92    93    1
     3    86    85    2
     4   104   102   ar
     5   104   105   ar
     6   106   105    1
     7    93    94    2
     8    93    95   am
     9    85    84    1
    10   102   100   ar
    11   105   103   ar
    12    95    96    1
    13    23    21    1
    14    89    87    1
    15    84    83    1
    16    84    87    1
    17   100    99    1
    18   100   101   ar
    19   103   101   ar
    20    22    21    1
    21    21    20    2
    22    99    96    1
    23    96    97    1
    24    74    73    2
    25    87    88    1
    26    20    19    1
    27    98    97    2
    28    97   107   am
    29    19    18    1
    30    73    72    1
    31    88    90    1
    32    27    26    2
    33     5     2    1
    34   107   108    1
    35    72    75    1
    36    72    71    1
    37    26    25    1
    38    18    17    1
    39    17    14    1
    40    75    76    1
    41     2     1    1
    42     2     3    1
    43    69    68    2
    44   108   109    1
    45   108   111    1
    46    16    15    2
    47    78    76   ar
    48    78    80   ar
    49    15    14    1
    50    15    24   am
    51   109   110    2
    52    71    68   am
    53    68    67    1
    54    76    77   ar
    55    14    13    1
    56    25    24    1
    57    25    28    1
    58   111   112    1
    59   111   113    1
    60     3     4    2
    61     3     6   am
    62    29    28    1
    63    29    30    1
    64    80    81   ar
    65    30    32   am
    66    30    31    2
    67    77    79   ar
    68    67    66    1
    69    67    70    1
    70     6     7    1
    71    81    79   ar
    72    81    82    1
    73     7    10    1
    74     7     8    1
    75    12    10    1
    76    10    11    1
    77    50    49    1
    78     8     9    2
    79    48    49    2
    80    48    47    1
    81    49    51    1
    82    47    46    1
    83    46    45    1
    84    40    38   am
    85    45    42    1
    86    37    38    1
    87    37    34    1
    88    36    35    2
    89    44    43    2
    90    38    39    2
    91    42    43    1
    92    42    41    1
    93    33    34    1
    94    35    34    1
    95    61    60   ar
    96    61    59   ar
    97    60    58   ar
    98    63    64    1
    99    63    62    1
   100    64    65    2
   101    59    57   ar
   102    58    57   ar
   103    62    54   am
   104    57    56    1
   105    55    54    2
   106    54    53    1
   107    56    53    1
   108    53    52    1
