@<TRIPOS>MOLECULE
tmp/4m4gA00.pdb
 115 113 0 0 0
SMALL
GASTEIGER

@<TRIPOS>ATOM
      1  N         -2.7320   10.4400  -17.4640 N.3    15  THR15      -0.1203
      2  CA        -1.7680   10.1530  -18.5180 C.3    15  THR15       0.1994
      3  C         -1.9110    8.7220  -19.0240 C.2    15  THR15       0.2618
      4  O         -2.7740    7.9760  -18.5640 O.2    15  THR15      -0.2717
      5  CB        -0.3300   10.3660  -18.0280 C.3    15  THR15       0.1784
      6  OG1       -0.0090    9.3830  -17.0370 O.3    15  THR15      -0.2211
      7  CG2       -0.1730   11.7560  -17.4330 C.3    15  THR15       0.0376
      8  N         -1.0570    8.3440  -19.9700 N.am   16  HIS16      -0.1961
      9  CA        -1.1180    7.0170  -20.5720 C.3    16  HIS16       0.1787
     10  C         -0.6780    5.9210  -19.6110 C.2    16  HIS16       0.2621
     11  O         -1.3390    4.8900  -19.4940 O.2    16  HIS16      -0.2715
     12  CB        -0.2640    6.9560  -21.8380 C.3    16  HIS16       0.0785
     13  CG        -0.0270    5.5630  -22.3340 C.ar   16  HIS16       0.0821
     14  ND1       -0.9230    4.8980  -23.1400 N.ar   16  HIS16      -0.2267
     15  CD2        1.0000    4.7040  -22.1230 C.ar   16  HIS16       0.1154
     16  CE1       -0.4560    3.6920  -23.4130 C.ar   16  HIS16       0.1986
     17  NE2        0.7080    3.5500  -22.8070 N.ar   16  HIS16      -0.2212
     18  N          0.4460    6.1430  -18.9370 N.am   17  THR17      -0.1937
     19  CA         0.9950    5.1580  -18.0120 C.3    17  THR17       0.2028
     20  C          0.0050    4.8300  -16.8990 C.2    17  THR17       0.2642
     21  O         -0.1820    3.6660  -16.5440 O.2    17  THR17      -0.2714
     22  CB         2.3130    5.6470  -17.3850 C.3    17  THR17       0.1808
     23  OG1        3.1860    6.1260  -18.4140 O.3    17  THR17      -0.2208
     24  CG2        2.9970    4.5200  -16.6350 C.3    17  THR17       0.0379
     25  N         -0.6340    5.8620  -16.3590 N.am   18  GLN18      -0.1976
     26  CA        -1.6160    5.6810  -15.2990 C.3    18  GLN18       0.1601
     27  C         -2.8410    4.9360  -15.8080 C.2    18  GLN18       0.2287
     28  O         -3.3570    4.0400  -15.1410 O.2    18  GLN18      -0.2864
     29  CB        -2.0380    7.0340  -14.7270 C.3    18  GLN18       0.0394
     30  CG        -0.8870    7.9030  -14.2500 C.3    18  GLN18       0.0908
     31  CD        -0.1180    7.2810  -13.1030 C.2    18  GLN18       0.2608
     32  OE1       -0.6520    6.4670  -12.3490 O.2    18  GLN18      -0.2717
     33  NE2        1.1460    7.6600  -12.9660 N.am   18  GLN18      -0.0878
     34  N         -4.4090   12.8500  -22.7600 N.3    44  GLY44      -0.1225
     35  CA        -3.8200   13.1410  -21.4810 C.3    44  GLY44       0.1811
     36  C         -2.3650   13.5230  -21.4930 C.2    44  GLY44       0.2280
     37  O         -1.5130   12.6940  -21.6940 O.2    44  GLY44      -0.2866
     38  N          0.3720   16.0720  -19.0720 N.3    46  PRO46      -0.2116
     39  CA         0.5430   16.8200  -17.8180 C.3    46  PRO46       0.1372
     40  C          0.2190   18.3120  -17.9130 C.2    46  PRO46       0.2244
     41  O         -0.1330   18.9230  -16.9050 O.2    46  PRO46      -0.2868
     42  CB         2.0270   16.6240  -17.5080 C.3    46  PRO46       0.0268
     43  CG         2.3310   15.2790  -18.0600 C.3    46  PRO46       0.0207
     44  CD         1.4960   15.1470  -19.3100 C.3    46  PRO46       0.0892
     45  N          2.0210   12.2710  -12.7320 N.3    64  THR64      -0.1203
     46  CA         3.2940   12.4560  -12.0940 C.3    64  THR64       0.1994
     47  C          3.8720   13.8400  -12.0760 C.2    64  THR64       0.2617
     48  O          4.5030   14.2550  -11.1350 O.2    64  THR64      -0.2717
     49  CB         4.3180   11.5150  -12.6770 C.3    64  THR64       0.1784
     50  OG1        3.9850   10.2110  -12.2860 O.3    64  THR64      -0.2211
     51  CG2        5.6300   11.7890  -12.1280 C.3    64  THR64       0.0376
     52  N          3.7140   14.5400  -13.1670 N.am   65  GLU65      -0.1979
     53  CA         4.5290   15.7010  -13.3650 C.3    65  GLU65       0.1602
     54  C          3.9040   17.0340  -13.0660 C.2    65  GLU65       0.2287
     55  O          3.5660   17.3500  -11.9370 O.2    65  GLU65      -0.2864
     56  CB         5.0460   15.7080  -14.7920 C.3    65  GLU65       0.0415
     57  CG         6.4270   16.3400  -15.0790 C.3    65  GLU65       0.1163
     58  CD         7.0920   17.0110  -13.8300 C.2    65  GLU65       0.3649
     59  OE1        7.7620   16.3730  -13.0440 O.co2  65  GLU65      -0.2457
     60  OE2        6.8170   18.1980  -13.8130 O.co2  65  GLU65      -0.2457
     61  N          7.2760    5.7260   -7.8670 N.3    81  TRP81      -0.1241
     62  CA         7.6020    4.7320   -8.8820 C.3    81  TRP81       0.1605
     63  C          8.9360    5.0530   -9.5410 C.2    81  TRP81       0.2264
     64  O          9.3470    6.2120   -9.5970 O.2    81  TRP81      -0.2867
     65  CB         6.4980    4.6460   -9.9390 C.3    81  TRP81       0.0550
     66  CG         6.3740    5.8730  -10.7890 C.ar   81  TRP81       0.0003
     67  CD1        5.5950    6.9650  -10.5420 C.ar   81  TRP81       0.0946
     68  CD2        7.0500    6.1330  -12.0250 C.ar   81  TRP81       0.0152
     69  NE1        5.7450    7.8900  -11.5460 N.ar   81  TRP81      -0.2442
     70  CE2        6.6330    7.4040  -12.4690 C.ar   81  TRP81       0.0810
     71  CE3        7.9680    5.4170  -12.7990 C.ar   81  TRP81       0.0012
     72  CZ2        7.1020    7.9730  -13.6530 C.ar   81  TRP81       0.0191
     73  CZ3        8.4320    5.9840  -13.9720 C.ar   81  TRP81       0.0001
     74  CH2        7.9980    7.2480  -14.3880 C.ar   81  TRP81       0.0015
     75  N         10.7640    8.1230  -22.5710 N.3   112  TYR112     -0.1241
     76  CA         9.5870    8.9780  -22.6660 C.3   112  TYR112      0.1605
     77  C          9.9280   10.3150  -23.3120 C.2   112  TYR112      0.2264
     78  O         11.0630   10.5400  -23.7270 O.2   112  TYR112     -0.2867
     79  CB         8.9540    9.1900  -21.2880 C.3   112  TYR112      0.0534
     80  CG         8.4240    7.9190  -20.6630 C.ar  112  TYR112     -0.0201
     81  CD1        7.2740    7.3110  -21.1500 C.ar  112  TYR112     -0.0009
     82  CD2        9.0710    7.3270  -19.5880 C.ar  112  TYR112     -0.0009
     83  CE1        6.7860    6.1470  -20.5860 C.ar  112  TYR112      0.0417
     84  CE2        8.5900    6.1640  -19.0160 C.ar  112  TYR112      0.0417
     85  CZ         7.4470    5.5780  -19.5180 C.ar  112  TYR112      0.1957
     86  OH         6.9660    4.4200  -18.9510 O.3   112  TYR112     -0.2866
     87  N          6.9420   14.6630  -19.5240 N.3   116  PHE116     -0.1227
     88  CA         6.5920   13.5220  -18.6840 C.3   116  PHE116      0.1736
     89  C          7.7520   13.1590  -17.7510 C.2   116  PHE116      0.2596
     90  O          8.9010   13.0730  -18.1880 O.2   116  PHE116     -0.2718
     91  CB         6.2080   12.3260  -19.5560 C.3   116  PHE116      0.0547
     92  CG         5.5350   11.2160  -18.8090 C.ar  116  PHE116     -0.0202
     93  CD1        4.3650   11.4100  -18.1280 C.ar  116  PHE116     -0.0042
     94  CD2        6.1450   10.0250  -18.7290 C.ar  116  PHE116     -0.0042
     95  CE1        3.8130   10.3250  -17.3720 C.ar  116  PHE116     -0.0003
     96  CE2        5.5660    8.9420  -18.0160 C.ar  116  PHE116     -0.0003
     97  CZ         4.3970    9.1280  -17.3550 C.ar  116  PHE116     -0.0000
     98  N          7.4410   12.9370  -16.4740 N.am  117  THR117     -0.1939
     99  CA         8.4580   12.7600  -15.4310 C.3   117  THR117      0.2028
    100  C          9.4060   11.5890  -15.6680 C.2   117  THR117      0.2642
    101  O         10.5010   11.5470  -15.1030 O.2   117  THR117     -0.2714
    102  CB         7.8270   12.5820  -14.0410 C.3   117  THR117      0.1808
    103  OG1        6.5370   13.1990  -14.0170 O.3   117  THR117     -0.2208
    104  CG2        8.7070   13.2070  -12.9670 C.3   117  THR117      0.0379
    105  N          8.9880   10.6380  -16.4980 N.am  118  GLY118     -0.1954
    106  CA         9.8560    9.5360  -16.8760 C.3   118  GLY118      0.1869
    107  C         11.1070   10.0570  -17.5570 C.2   118  GLY118      0.2309
    108  O         12.1350    9.3790  -17.6080 O.2   118  GLY118     -0.2863
    109  N          5.0260    8.5940  -25.5210 N.3   140  THR140     -0.1218
    110  CA         4.2250    8.6110  -24.3020 C.3   140  THR140      0.1862
    111  C          3.8420    7.1960  -23.8790 C.2   140  THR140      0.2287
    112  O          3.5520    6.9420  -22.7110 O.2   140  THR140     -0.2866
    113  CB         2.9460    9.4490  -24.4780 C.3   140  THR140      0.1770
    114  OG1        2.1340    8.8740  -25.5100 O.3   140  THR140     -0.2211
    115  CG2        3.2930   10.8810  -24.8510 C.3   140  THR140      0.0375
@<TRIPOS>BOND
     1   109   110    1
     2   114   113    1
     3   115   113    1
     4   113   110    1
     5   110   111    1
     6   111   112    2
     7    78    77    2
     8    16    14   ar
     9    16    17   ar
    10    77    76    1
    11    14    13   ar
    12    17    15   ar
    13    34    35    1
    14    76    75    1
    15    76    79    1
    16    13    15   ar
    17    13    12    1
    18    12     9    1
    19    37    36    2
    20    36    35    1
    21    79    80    1
    22    81    80   ar
    23    81    83   ar
    24    80    82   ar
    25    83    85   ar
    26     9     8    1
    27     9    10    1
    28     8     3   am
    29    10    11    2
    30    10    18   am
    31    82    84   ar
    32    91    92    1
    33    91    88    1
    34    87    88    1
    35    85    84   ar
    36    85    86    1
    37    44    38    1
    38    44    43    1
    39    38    39    1
    40     3     4    2
    41     3     2    1
    42    18    19    1
    43    92    94   ar
    44    92    93   ar
    45    94    96   ar
    46    88    89    1
    47     2     5    1
    48     2     1    1
    49    23    22    1
    50    90    89    2
    51    93    95   ar
    52    43    42    1
    53     5     7    1
    54     5     6    1
    55    96    97   ar
    56    19    22    1
    57    19    20    1
    58    40    39    1
    59    40    41    2
    60    39    42    1
    61    89    98   am
    62   108   107    2
    63   107   106    1
    64    22    24    1
    65    95    97   ar
    66    20    21    2
    67    20    25   am
    68   106   105    1
    69   105   100   am
    70    98    99    1
    71    25    26    1
    72    27    26    1
    73    27    28    2
    74   100    99    1
    75   100   101    2
    76    99   102    1
    77    26    29    1
    78    57    56    1
    79    57    58    1
    80    56    53    1
    81    29    30    1
    82    74    73   ar
    83    74    72   ar
    84    30    31    1
    85   102   103    1
    86   102   104    1
    87    73    71   ar
    88    58    60   ar
    89    58    59   ar
    90    72    70   ar
    91    53    52    1
    92    53    54    1
    93    52    47   am
    94    31    33   am
    95    31    32    2
    96    54    55    2
    97    71    68   ar
    98    45    46    1
    99    49    50    1
   100    49    51    1
   101    49    46    1
   102    70    68   ar
   103    70    69   ar
   104    46    47    1
   105    47    48    2
   106    68    66   ar
   107    69    67   ar
   108    66    67   ar
   109    66    65    1
   110    65    62    1
   111    64    63    2
   112    63    62    1
   113    62    61    1
