@<TRIPOS>MOLECULE
tmp/4m4kA01.pdb
 101 100 0 0 0
SMALL
GASTEIGER

@<TRIPOS>ATOM
      1  N         28.6920   23.7520   23.4230 N.3   104  TYR104     -0.1241
      2  CA        28.1350   24.8940   24.1550 C.3   104  TYR104      0.1605
      3  C         27.8350   24.5350   25.5940 C.2   104  TYR104      0.2264
      4  O         27.0270   23.6410   25.8570 O.2   104  TYR104     -0.2867
      5  CB        26.8790   25.4100   23.4520 C.3   104  TYR104      0.0534
      6  CG        27.1550   25.8050   22.0170 C.ar  104  TYR104     -0.0201
      7  CD1       28.1110   26.7720   21.7160 C.ar  104  TYR104     -0.0009
      8  CD2       26.4640   25.2190   20.9730 C.ar  104  TYR104     -0.0009
      9  CE1       28.3660   27.1480   20.4070 C.ar  104  TYR104      0.0417
     10  CE2       26.7140   25.5840   19.6560 C.ar  104  TYR104      0.0417
     11  CZ        27.6630   26.5460   19.3870 C.ar  104  TYR104      0.1957
     12  OH        27.9140   26.9050   18.0900 O.3   104  TYR104     -0.2866
     13  N         27.6760   27.0630   28.3900 N.3   106  TYR106     -0.1241
     14  CA        27.1900   28.0790   29.3170 C.3   106  TYR106      0.1605
     15  C         25.8440   27.6630   29.9110 C.2   106  TYR106      0.2264
     16  O         25.0570   26.9640   29.2570 O.2   106  TYR106     -0.2867
     17  CB        27.1430   29.4780   28.6750 C.3   106  TYR106      0.0534
     18  CG        26.2480   29.6450   27.4530 C.ar  106  TYR106     -0.0201
     19  CD1       26.6780   29.2430   26.1880 C.ar  106  TYR106     -0.0009
     20  CD2       24.9920   30.2470   27.5600 C.ar  106  TYR106     -0.0009
     21  CE1       25.8750   29.4140   25.0690 C.ar  106  TYR106      0.0417
     22  CE2       24.1870   30.4350   26.4500 C.ar  106  TYR106      0.0417
     23  CZ        24.6330   30.0150   25.2030 C.ar  106  TYR106      0.1957
     24  OH        23.8410   30.1840   24.0840 O.3   106  TYR106     -0.2866
     25  N         22.3620   28.0320   28.0970 N.3   109  PHE109     -0.1241
     26  CA        22.2750   27.5340   26.7290 C.3   109  PHE109      0.1605
     27  C         21.0210   26.6740   26.6060 C.2   109  PHE109      0.2264
     28  O         20.8550   25.7050   27.3490 O.2   109  PHE109     -0.2867
     29  CB        23.5150   26.7140   26.3650 C.3   109  PHE109      0.0534
     30  CG        23.3900   25.9710   25.0600 C.ar  109  PHE109     -0.0203
     31  CD1       23.4390   26.6540   23.8420 C.ar  109  PHE109     -0.0042
     32  CD2       23.2320   24.5890   25.0440 C.ar  109  PHE109     -0.0042
     33  CE1       23.3210   25.9670   22.6320 C.ar  109  PHE109     -0.0003
     34  CE2       23.1210   23.8950   23.8390 C.ar  109  PHE109     -0.0003
     35  CZ        23.1640   24.5860   22.6310 C.ar  109  PHE109     -0.0000
     36  N         19.9770   25.9240   23.2640 N.3   111  GLY111     -0.1225
     37  CA        19.9750   25.6510   21.8380 C.3   111  GLY111      0.1811
     38  C         19.9780   24.1670   21.5030 C.2   111  GLY111      0.2280
     39  O         19.8640   23.3120   22.3870 O.2   111  GLY111     -0.2866
     40  N         23.2870   33.4640   11.9280 N.3   134  TRP134     -0.1227
     41  CA        23.6070   32.6720   13.1050 C.3   134  TRP134      0.1737
     42  C         23.5280   33.4450   14.4210 C.2   134  TRP134      0.2596
     43  O         23.9480   34.6110   14.5090 O.2   134  TRP134     -0.2718
     44  CB        25.0130   32.0870   12.9540 C.3   134  TRP134      0.0564
     45  CG        25.4480   31.1960   14.1100 C.ar  134  TRP134      0.0003
     46  CD1       25.3490   29.8280   14.1780 C.ar  134  TRP134      0.0946
     47  CD2       26.0710   31.6120   15.3400 C.ar  134  TRP134      0.0152
     48  NE1       25.8610   29.3710   15.3740 N.ar  134  TRP134     -0.2442
     49  CE2       26.3100   30.4430   16.1040 C.ar  134  TRP134      0.0810
     50  CE3       26.4410   32.8560   15.8660 C.ar  134  TRP134      0.0012
     51  CZ2       26.9050   30.4860   17.3730 C.ar  134  TRP134      0.0191
     52  CZ3       27.0420   32.8970   17.1300 C.ar  134  TRP134      0.0001
     53  CH2       27.2620   31.7160   17.8680 C.ar  134  TRP134      0.0015
     54  N         22.9720   32.7830   15.4380 N.am  135  GLY135     -0.1942
     55  CA        23.2050   33.1730   16.8140 C.3   135  GLY135      0.2014
     56  C         22.1450   33.9830   17.5190 C.2   135  GLY135      0.2639
     57  O         21.3520   34.7040   16.8760 O.2   135  GLY135     -0.2714
     58  N         22.1530   33.8320   18.8500 N.am  136  LEU136     -0.1963
     59  CA        21.3820   34.6310   19.8080 C.3   136  LEU136      0.1728
     60  C         19.8910   34.3130   19.9190 C.2   136  LEU136      0.2616
     61  O         19.2930   34.6040   20.9530 O.2   136  LEU136     -0.2715
     62  CB        21.5900   36.1330   19.5980 C.3   136  LEU136      0.0311
     63  CG        22.9980   36.6510   19.8930 C.3   136  LEU136      0.0022
     64  CD1       23.0660   38.1260   19.5310 C.3   136  LEU136      0.0001
     65  CD2       23.3830   36.4170   21.3660 C.3   136  LEU136      0.0001
     66  N         19.2920   33.7040   18.8950 N.am  137  GLU137     -0.1963
     67  CA        17.8340   33.5000   18.9090 C.3   137  GLU137      0.1733
     68  C         17.3790   32.6560   20.1070 C.2   137  GLU137      0.2616
     69  O         16.3840   32.9780   20.7580 O.2   137  GLU137     -0.2715
     70  CB        17.3090   32.9530   17.5610 C.3   137  GLU137      0.0429
     71  CG        17.3210   31.4270   17.3960 C.3   137  GLU137      0.1163
     72  CD        18.7240   30.8250   17.4280 C.2   137  GLU137      0.3649
     73  OE1       19.6910   31.5120   17.0100 O.co2 137  GLU137     -0.2457
     74  OE2       18.8650   29.6570   17.8840 O.co2 137  GLU137     -0.2457
     75  N         18.1410   31.6150   20.4300 N.am  138  ASN138     -0.1958
     76  CA        17.8440   30.7800   21.5900 C.3   138  ASN138      0.1819
     77  C         18.0770   31.4790   22.9250 C.2   138  ASN138      0.2621
     78  O         17.4040   31.1880   23.9120 O.2   138  ASN138     -0.2715
     79  CB        18.6770   29.4980   21.5480 C.3   138  ASN138      0.1195
     80  CG        20.1530   29.7740   21.3290 C.2   138  ASN138      0.2630
     81  OD1       20.5230   30.6490   20.5340 O.2   138  ASN138     -0.2716
     82  ND2       21.0070   29.0190   22.0190 N.am  138  ASN138     -0.0877
     83  N         19.0370   32.3950   22.9580 N.am  139  ASP139     -0.1971
     84  CA        19.3610   33.1210   24.1860 C.3   139  ASP139      0.1709
     85  C         18.2650   34.1130   24.5700 C.2   139  ASP139      0.2293
     86  O         17.9850   34.3230   25.7590 O.2   139  ASP139     -0.2864
     87  CB        20.6800   33.8770   24.0130 C.3   139  ASP139      0.1436
     88  CG        21.8430   32.9530   23.7560 C.2   139  ASP139      0.3671
     89  OD1       21.8720   31.8470   24.3430 O.co2 139  ASP139     -0.2456
     90  OD2       22.7310   33.3320   22.9660 O.co2 139  ASP139     -0.2456
     91  N         21.0870   42.0130   20.3090 N.3   190  ARG190     -0.1245
     92  CA        21.5100   41.7620   21.6940 C.3   190  ARG190      0.1563
     93  C         20.4950   42.2370   22.7310 C.2   190  ARG190      0.2260
     94  O         20.7320   42.1450   23.9360 O.2   190  ARG190     -0.2867
     95  CB        22.8920   42.3750   21.9950 C.3   190  ARG190      0.0307
     96  CG        24.0420   41.7070   21.2340 C.3   190  ARG190      0.0489
     97  CD        25.3800   41.8560   21.9490 C.3   190  ARG190      0.2205
     98  NE        26.3310   40.8310   21.5040 N.pl3 190  ARG190     -0.0865
     99  CZ        26.3590   39.5760   21.9650 C.cat 190  ARG190      0.5346
    100  NH1       25.4930   39.1800   22.8960 N.pl3 190  ARG190      0.1354
    101  NH2       27.2540   38.7090   21.4980 N.pl3 190  ARG190      0.1354
@<TRIPOS>BOND
     1    40    41    1
     2    44    41    1
     3    44    45    1
     4    41    42    1
     5    45    46   ar
     6    45    47   ar
     7    46    48   ar
     8    42    43    2
     9    42    54   am
    10    47    50   ar
    11    47    49   ar
    12    48    49   ar
    13    54    55    1
    14    50    52   ar
    15    49    51   ar
    16    55    56    1
    17    57    56    2
    18    73    72   ar
    19    52    53   ar
    20    51    53   ar
    21    71    72    1
    22    71    70    1
    23    72    74   ar
    24    56    58   am
    25    70    67    1
    26    12    11    1
    27    58    59    1
    28    66    67    1
    29    66    60   am
    30    67    68    1
    31    11    10   ar
    32    11     9   ar
    33    64    63    1
    34    62    59    1
    35    62    63    1
    36    10     8   ar
    37    59    60    1
    38    63    65    1
    39    60    61    2
    40    68    75   am
    41    68    69    2
    42    91    92    1
    43     9     7   ar
    44    75    76    1
    45    81    80    2
    46     8     6   ar
    47    96    97    1
    48    96    95    1
    49    80    79    1
    50    80    82   am
    51   101    99    1
    52    38    37    1
    53    38    39    2
    54    98    97    1
    55    98    99    2
    56    79    76    1
    57    76    77    1
    58    92    95    1
    59    92    93    1
    60     7     6   ar
    61    37    36    1
    62    99   100    1
    63     6     5    1
    64    35    33   ar
    65    35    34   ar
    66    33    31   ar
    67    93    94    2
    68    77    83   am
    69    77    78    2
    70    83    84    1
    71    90    88   ar
    72     1     2    1
    73     5     2    1
    74    88    87    1
    75    88    89   ar
    76    34    32   ar
    77    31    30   ar
    78    87    84    1
    79    24    23    1
    80     2     3    1
    81    84    85    1
    82    85    86    2
    83    32    30   ar
    84    30    29    1
    85    21    23   ar
    86    21    19   ar
    87    23    22   ar
    88     3     4    2
    89    19    18   ar
    90    29    26    1
    91    22    20   ar
    92    27    26    1
    93    27    28    2
    94    26    25    1
    95    18    20   ar
    96    18    17    1
    97    13    14    1
    98    17    14    1
    99    16    15    2
   100    14    15    1
