@<TRIPOS>MOLECULE
tmp/4m4qA00.pdb
 163 152 0 0 0
SMALL
GASTEIGER

@<TRIPOS>ATOM
      1  N         13.3040   13.5440  -18.5280 N.3    25  ALA25      -0.1231
      2  CA        12.2430   14.4860  -18.1760 C.3    25  ALA25       0.1694
      3  C         12.1270   15.6380  -19.1760 C.2    25  ALA25       0.2591
      4  O         11.0270   15.9510  -19.6310 O.2    25  ALA25      -0.2718
      5  CB        12.4720   15.0330  -16.7770 C.3    25  ALA25       0.0304
      6  N         13.2490   16.2590  -19.5250 N.am   26  MET26      -0.1979
      7  CA        13.2360   17.3520  -20.4930 C.3    26  MET26       0.1605
      8  C         12.7240   16.8610  -21.8450 C.2    26  MET26       0.2287
      9  O         11.8730   17.5050  -22.4590 O.2    26  MET26      -0.2864
     10  CB        14.6230   17.9830  -20.6290 C.3    26  MET26       0.0413
     11  CG        15.0940   18.6620  -19.3470 C.3    26  MET26       0.0598
     12  SD        16.6300   19.5870  -19.5140 S.3    26  MET26      -0.1393
     13  CE        16.0620   21.0010  -20.4610 C.3    26  MET26       0.0692
     14  N          9.0470   16.4510  -21.9450 N.3    29  TYR29      -0.1241
     15  CA         8.3430   17.7170  -22.0940 C.3    29  TYR29       0.1605
     16  C          8.8010   18.4330  -23.3580 C.2    29  TYR29       0.2264
     17  O          8.4210   19.5760  -23.6070 O.2    29  TYR29      -0.2867
     18  CB         8.5710   18.6110  -20.8750 C.3    29  TYR29       0.0534
     19  CG         7.8780   18.1340  -19.6180 C.ar   29  TYR29      -0.0201
     20  CD1        6.5680   18.5010  -19.3360 C.ar   29  TYR29      -0.0009
     21  CD2        8.5380   17.3210  -18.7080 C.ar   29  TYR29      -0.0009
     22  CE1        5.9390   18.0670  -18.1830 C.ar   29  TYR29       0.0417
     23  CE2        7.9200   16.8810  -17.5580 C.ar   29  TYR29       0.0417
     24  CZ         6.6210   17.2570  -17.2990 C.ar   29  TYR29       0.1957
     25  OH         6.0030   16.8200  -16.1490 O.3    29  TYR29      -0.2866
     26  N         12.1140   19.1730  -24.6240 N.3    31  GLU31      -0.1245
     27  CA        13.1760   20.1550  -24.5230 C.3    31  GLU31       0.1567
     28  C         14.5200   19.4550  -24.6590 C.2    31  GLU31       0.2260
     29  O         14.6480   18.2800  -24.3200 O.2    31  GLU31      -0.2867
     30  CB        13.0860   20.8910  -23.1850 C.3    31  GLU31       0.0388
     31  CG        12.1590   22.0940  -23.2000 C.3    31  GLU31       0.1160
     32  CD        11.5600   22.3880  -21.8360 C.2    31  GLU31       0.3649
     33  OE1       11.4160   21.4440  -21.0300 O.co2  31  GLU31      -0.2457
     34  OE2       11.2370   23.5660  -21.5720 O.co2  31  GLU31      -0.2457
     35  N         20.6660   25.8960  -18.6180 N.3    38  ASN38      -0.1225
     36  CA        20.3350   26.3890  -17.2840 C.3    38  ASN38       0.1785
     37  C         19.1310   25.6420  -16.7340 C.2    38  ASN38       0.2597
     38  O         19.0820   25.3370  -15.5440 O.2    38  ASN38      -0.2718
     39  CB        20.0740   27.8970  -17.2900 C.3    38  ASN38       0.1169
     40  CG        21.3410   28.7050  -17.5070 C.2    38  ASN38       0.2627
     41  OD1       22.4280   28.2890  -17.1080 O.2    38  ASN38      -0.2716
     42  ND2       21.2050   29.8710  -18.1280 N.am   38  ASN38      -0.0877
     43  N         18.1580   25.3490  -17.5930 N.am   39  LYS39      -0.1980
     44  CA        16.9900   24.5900  -17.1620 C.3    39  LYS39       0.1596
     45  C         17.4300   23.1900  -16.7840 C.2    39  LYS39       0.2287
     46  O         16.9930   22.6300  -15.7770 O.2    39  LYS39      -0.2864
     47  CB        15.9330   24.5130  -18.2640 C.3    39  LYS39       0.0298
     48  CG        14.5090   24.5570  -17.7480 C.3    39  LYS39       0.0038
     49  CD        13.5920   23.6610  -18.5680 C.3    39  LYS39       0.0206
     50  CE        12.1880   23.6340  -17.9860 C.3    39  LYS39       0.1093
     51  NZ        11.3790   24.8160  -18.3900 N.3    39  LYS39      -0.1314
     52  N         19.0970   23.2970  -13.4660 N.3    42  ALA42      -0.1231
     53  CA        18.0960   23.5170  -12.4310 C.3    42  ALA42       0.1694
     54  C         17.3580   22.2330  -12.0810 C.2    42  ALA42       0.2591
     55  O         17.0730   21.9670  -10.9140 O.2    42  ALA42      -0.2718
     56  CB        17.1080   24.5910  -12.8650 C.3    42  ALA42       0.0304
     57  N         17.0500   21.4450  -13.1050 N.am   43  ILE43      -0.1980
     58  CA        16.2730   20.2260  -12.9290 C.3    43  ILE43       0.1595
     59  C         17.1140   19.1830  -12.1870 C.2    43  ILE43       0.2287
     60  O         16.6150   18.4750  -11.3100 O.2    43  ILE43      -0.2864
     61  CB        15.7880   19.6710  -14.2800 C.3    43  ILE43       0.0276
     62  CG1       14.6710   20.5550  -14.8360 C.3    43  ILE43       0.0022
     63  CG2       15.2940   18.2390  -14.1350 C.3    43  ILE43       0.0022
     64  CD1       14.3430   20.3030  -16.2960 C.3    43  ILE43       0.0001
     65  N         17.2910   20.2340   -8.4230 N.3    46  HIS46      -0.1241
     66  CA        16.0200   19.9560   -7.7720 C.3    46  HIS46       0.1621
     67  C         15.8790   18.4440   -7.5230 C.2    46  HIS46       0.2264
     68  O         15.4420   18.0300   -6.4490 O.2    46  HIS46      -0.2867
     69  CB        14.8640   20.4920   -8.6190 C.3    46  HIS46       0.0745
     70  CG        13.5020   20.1790   -8.0790 C.ar   46  HIS46       0.0817
     71  ND1       12.8000   19.0440   -8.4280 N.ar   46  HIS46      -0.2268
     72  CD2       12.7000   20.8740   -7.2390 C.ar   46  HIS46       0.1154
     73  CE1       11.6360   19.0430   -7.8070 C.ar   46  HIS46       0.1986
     74  NE2       11.5440   20.1460   -7.0860 N.ar   46  HIS46      -0.2212
     75  N          9.1760   12.5680   -7.8700 N.3    85  GLU85      -0.1245
     76  CA         9.9740   13.2650   -8.8740 C.3    85  GLU85       0.1567
     77  C         10.9580   12.2810   -9.5020 C.2    85  GLU85       0.2260
     78  O         11.3950   11.3290   -8.8520 O.2    85  GLU85      -0.2867
     79  CB        10.7260   14.4410   -8.2300 C.3    85  GLU85       0.0388
     80  CG        11.5390   15.3460   -9.1650 C.3    85  GLU85       0.1160
     81  CD        10.7070   16.0000  -10.2490 C.2    85  GLU85       0.3649
     82  OE1       10.0920   17.0530   -9.9720 O.co2  85  GLU85      -0.2457
     83  OE2       10.6790   15.4770  -11.3820 O.co2  85  GLU85      -0.2457
     84  N          1.4010   16.6190   -9.7330 N.3   111  LEU111     -0.1245
     85  CA         2.3950   15.7200   -9.1750 C.3   111  LEU111      0.1561
     86  C          3.2700   16.4250   -8.1550 C.2   111  LEU111      0.2260
     87  O          3.8610   17.4670   -8.4470 O.2   111  LEU111     -0.2867
     88  CB         3.2710   15.1320  -10.2850 C.3   111  LEU111      0.0270
     89  CG         2.6170   14.0670  -11.1650 C.3   111  LEU111      0.0019
     90  CD1        3.5280   13.7110  -12.3230 C.3   111  LEU111      0.0001
     91  CD2        2.2980   12.8450  -10.3210 C.3   111  LEU111      0.0001
     92  N          6.5860   16.0830   -5.2550 N.3   113  ASP113     -0.1239
     93  CA         7.9240   15.5080   -5.2880 C.3   113  ASP113      0.1674
     94  C          8.1030   14.2560   -4.4310 C.2   113  ASP113      0.2266
     95  O          8.7680   13.3090   -4.8450 O.2   113  ASP113     -0.2867
     96  CB         8.9160   16.5970   -4.9050 C.3   113  ASP113      0.1410
     97  CG         8.9230   17.7250   -5.9240 C.2   113  ASP113      0.3668
     98  OD1        8.9220   17.4260   -7.1390 O.co2 113  ASP113     -0.2456
     99  OD2        8.8600   18.9040   -5.5170 O.co2 113  ASP113     -0.2456
    100  N          5.8930   19.0840   -1.6180 N.3   124  GLU124     -0.1231
    101  CA         6.4500   19.8300   -2.7370 C.3   124  GLU124      0.1699
    102  C          7.7600   20.4920   -2.3610 C.2   124  GLU124      0.2592
    103  O          7.8060   21.3380   -1.4710 O.2   124  GLU124     -0.2718
    104  CB         5.4880   20.8840   -3.2830 C.3   124  GLU124      0.0402
    105  CG         6.1750   21.7120   -4.3570 C.3   124  GLU124      0.1161
    106  CD         6.4230   20.9280   -5.6380 C.2   124  GLU124      0.3649
    107  OE1        5.8760   19.8120   -5.7750 O.co2 124  GLU124     -0.2457
    108  OE2        7.2290   21.3940   -6.4730 O.co2 124  GLU124     -0.2457
    109  N          8.8280   20.0900   -3.0400 N.am  125  ILE125     -0.1980
    110  CA        10.1440   20.6500   -2.7930 C.3   125  ILE125      0.1595
    111  C         10.3970   21.7640   -3.7980 C.2   125  ILE125      0.2287
    112  O         10.0340   21.6570   -4.9670 O.2   125  ILE125     -0.2864
    113  CB        11.2430   19.5640   -2.9300 C.3   125  ILE125      0.0276
    114  CG1       11.1150   18.5210   -1.8180 C.3   125  ILE125      0.0022
    115  CG2       12.6400   20.1830   -2.9770 C.3   125  ILE125      0.0022
    116  CD1       11.4940   19.0330   -0.4490 C.3   125  ILE125      0.0001
    117  N         16.5760   30.5130   -6.9760 N.3   129  ARG129     -0.1245
    118  CA        17.6540   31.4850   -7.0920 C.3   129  ARG129      0.1563
    119  C         17.1560   32.8490   -6.6580 C.2   129  ARG129      0.2260
    120  O         17.8730   33.8440   -6.7440 O.2   129  ARG129     -0.2867
    121  CB        18.2060   31.5450   -8.5190 C.3   129  ARG129      0.0307
    122  CG        18.8560   30.2580   -8.9950 C.3   129  ARG129      0.0489
    123  CD        18.7510   30.1050  -10.5010 C.3   129  ARG129      0.2205
    124  NE        17.6680   29.2120  -10.9000 N.pl3 129  ARG129     -0.0865
    125  CZ        17.2660   29.0490  -12.1550 C.cat 129  ARG129      0.5346
    126  NH1       17.8580   29.7220  -13.1330 N.pl3 129  ARG129      0.1354
    127  NH2       16.2730   28.2140  -12.4350 N.pl3 129  ARG129      0.1354
    128  N          9.1200   32.6690   -3.8510 N.3   135  TYR135     -0.1241
    129  CA         8.9410   31.3880   -4.5280 C.3   135  TYR135      0.1605
    130  C          7.8760   30.5570   -3.8120 C.2   135  TYR135      0.2264
    131  O          7.0850   29.8650   -4.4570 O.2   135  TYR135     -0.2867
    132  CB        10.2650   30.6250   -4.6040 C.3   135  TYR135      0.0534
    133  CG        10.2120   29.3950   -5.4830 C.ar  135  TYR135     -0.0201
    134  CD1        9.8760   29.4990   -6.8280 C.ar  135  TYR135     -0.0009
    135  CD2       10.5200   28.1380   -4.9820 C.ar  135  TYR135     -0.0009
    136  CE1        9.8340   28.3830   -7.6420 C.ar  135  TYR135      0.0417
    137  CE2       10.4810   27.0150   -5.7930 C.ar  135  TYR135      0.0417
    138  CZ        10.1380   27.1450   -7.1220 C.ar  135  TYR135      0.1957
    139  OH        10.0960   26.0370   -7.9320 O.3   135  TYR135     -0.2866
    140  N          4.4210   28.7590   -5.3510 N.3   139  LYS139     -0.1245
    141  CA         4.1140   27.3400   -5.2030 C.3   139  LYS139      0.1561
    142  C          2.7970   27.1710   -4.4580 C.2   139  LYS139      0.2260
    143  O          1.9640   26.3410   -4.8240 O.2   139  LYS139     -0.2867
    144  CB         5.2470   26.6030   -4.4810 C.3   139  LYS139      0.0271
    145  CG         6.4260   26.2600   -5.3800 C.3   139  LYS139      0.0035
    146  CD         6.0930   25.0880   -6.2860 C.3   139  LYS139      0.0206
    147  CE         7.2680   24.7190   -7.1890 C.3   139  LYS139      0.1093
    148  NZ         8.4180   24.1620   -6.4350 N.3   139  LYS139     -0.1314
    149  N         18.4780   33.6030  -15.0570 N.3   199  SER199     -0.1202
    150  CA        17.6270   32.9000  -16.0090 C.3   199  SER199      0.2020
    151  C         16.3200   32.3890  -15.4030 C.2   199  SER199      0.2618
    152  O         15.4110   32.0070  -16.1390 O.2   199  SER199     -0.2717
    153  CB        18.3900   31.7280  -16.6310 C.3   199  SER199      0.2103
    154  OG        18.7540   30.7710  -15.6500 O.3   199  SER199     -0.2182
    155  N         16.2240   32.3700  -14.0770 N.am  200  GLU200     -0.1979
    156  CA        15.0500   31.7900  -13.4220 C.3   200  GLU200      0.1602
    157  C         13.7970   32.5980  -13.7450 C.2   200  GLU200      0.2287
    158  O         13.8510   33.8230  -13.8520 O.2   200  GLU200     -0.2864
    159  CB        15.2370   31.6990  -11.9050 C.3   200  GLU200      0.0415
    160  CG        14.0940   30.9590  -11.2150 C.3   200  GLU200      0.1163
    161  CD        14.3600   30.6830   -9.7510 C.2   200  GLU200      0.3649
    162  OE1       15.4100   30.0840   -9.4380 O.co2 200  GLU200     -0.2457
    163  OE2       13.5130   31.0540   -8.9120 O.co2 200  GLU200     -0.2457
@<TRIPOS>BOND
     1    28    27    1
     2    28    29    2
     3    26    27    1
     4    27    30    1
     5    17    16    2
     6    16    15    1
     7    31    30    1
     8    31    32    1
     9     9     8    2
    10    15    14    1
    11    15    18    1
    12     8     7    1
    13    32    34   ar
    14    32    33   ar
    15    18    19    1
    16    10     7    1
    17    10    11    1
    18     7     6    1
    19    13    12    1
    20     4     3    2
    21    19    20   ar
    22    19    21   ar
    23     6     3   am
    24    12    11    1
    25    20    22   ar
    26     3     2    1
    27    21    23   ar
    28    35    36    1
    29    49    50    1
    30    49    48    1
    31     1     2    1
    32    51    50    1
    33    47    48    1
    34    47    44    1
    35    22    24   ar
    36     2     5    1
    37    42    40   am
    38    43    44    1
    39    43    37   am
    40    23    24   ar
    41    40    39    1
    42    40    41    2
    43    24    25    1
    44    39    36    1
    45    36    37    1
    46    44    45    1
    47    45    46    2
    48    37    38    2
    49   153   150    1
    50   153   154    1
    51    64    62    1
    52   152   151    2
    53   150   151    1
    54   150   149    1
    55   151   155   am
    56    62    61    1
    57    61    63    1
    58    61    58    1
    59   155   156    1
    60   158   157    2
    61   157   156    1
    62    52    53    1
    63   156   159    1
    64   126   125    1
    65    57    58    1
    66    57    54   am
    67    58    59    1
    68    56    53    1
    69   127   125    1
    70    53    54    1
    71    90    89    1
    72    59    60    2
    73   125   124    2
    74    54    55    2
    75   159   160    1
    76    83    81   ar
    77   160   161    1
    78    89    91    1
    79    89    88    1
    80   124   123    1
    81   123   122    1
    82    88    85    1
    83    81    82   ar
    84    81    80    1
    85   161   162   ar
    86   161   163   ar
    87    84    85    1
    88    77    76    1
    89    77    78    2
    90    85    86    1
    91    80    79    1
    92   122   121    1
    93    76    79    1
    94    76    75    1
    95    69    70    1
    96    69    66    1
    97   121   118    1
    98    87    86    2
    99    71    70   ar
   100    71    73   ar
   101    65    66    1
   102    70    72   ar
   103   139   138    1
   104    73    74   ar
   105    66    67    1
   106   136   138   ar
   107   136   134   ar
   108    67    68    2
   109    72    74   ar
   110   147   148    1
   111   147   146    1
   112    98    97   ar
   113   138   137   ar
   114   118   117    1
   115   118   119    1
   116   134   133   ar
   117   120   119    2
   118   108   106   ar
   119   146   145    1
   120    97    99   ar
   121    97    96    1
   122   137   135   ar
   123   107   106   ar
   124   106   105    1
   125   133   135   ar
   126   133   132    1
   127   145   144    1
   128   140   141    1
   129    93    92    1
   130    93    96    1
   131    93    94    1
   132   141   144    1
   133   141   142    1
   134   112   111    2
   135    95    94    2
   136   143   142    2
   137   132   129    1
   138   129   128    1
   139   129   130    1
   140   131   130    2
   141   105   104    1
   142   111   110    1
   143   104   101    1
   144   109   110    1
   145   109   102   am
   146   115   113    1
   147   113   110    1
   148   113   114    1
   149   101   102    1
   150   101   100    1
   151   102   103    2
   152   114   116    1
