@<TRIPOS>MOLECULE
tmp/4m4rB00.pdb
 83 84 0 0 0
SMALL
GASTEIGER

@<TRIPOS>ATOM
      1  N         21.7350   29.8760   -7.4220 N.3    11  TYR11      -0.1241
      2  CA        22.6080   30.1450   -8.5590 C.3    11  TYR11       0.1605
      3  C         23.6680   29.0400   -8.6660 C.2    11  TYR11       0.2264
      4  O         24.5090   28.8670   -7.7720 O.2    11  TYR11      -0.2867
      5  CB        23.2370   31.5180   -8.3870 C.3    11  TYR11       0.0534
      6  CG        22.2200   32.6590   -8.2620 C.ar   11  TYR11      -0.0201
      7  CD1       21.7900   33.3740   -9.3800 C.ar   11  TYR11      -0.0009
      8  CD2       21.7180   33.0340   -7.0390 C.ar   11  TYR11      -0.0009
      9  CE1       20.8740   34.4190   -9.2780 C.ar   11  TYR11       0.0417
     10  CE2       20.8170   34.0760   -6.9260 C.ar   11  TYR11       0.0417
     11  CZ        20.4000   34.7610   -8.0500 C.ar   11  TYR11       0.1957
     12  OH        19.4960   35.7930   -7.9020 O.3    11  TYR11      -0.2866
     13  N         26.3700   28.2410  -10.7750 N.3    13  ASN13      -0.1240
     14  CA        27.8330   28.3220  -11.0900 C.3    13  ASN13       0.1653
     15  C         28.8150   27.8430  -10.0060 C.2    13  ASN13       0.2266
     16  O         28.4810   27.7260   -8.8110 O.2    13  ASN13      -0.2867
     17  CB        28.2680   29.7240  -11.5840 C.3    13  ASN13       0.1155
     18  CG        27.9500   30.8200  -10.6040 C.2    13  ASN13       0.2627
     19  OD1       28.0240   30.6110   -9.4070 O.2    13  ASN13      -0.2716
     20  ND2       27.5740   31.9940  -11.1140 N.am   13  ASN13      -0.0877
     21  N         31.5140   29.5430   -9.1410 N.3    15  SER15      -0.1202
     22  CA        31.7520   30.7450   -8.3300 C.3    15  SER15       0.2020
     23  C         30.9800   30.7950   -6.9980 C.2    15  SER15       0.2619
     24  O         31.1700   31.7180   -6.2030 O.2    15  SER15      -0.2717
     25  CB        31.3560   32.0120   -9.1050 C.3    15  SER15       0.2103
     26  OG        31.8450   32.0170  -10.4350 O.3    15  SER15      -0.2182
     27  N         30.0910   29.8410   -6.7580 N.am   16  ASN16      -0.1960
     28  CA        29.1810   30.0040   -5.6460 C.3    16  ASN16       0.1804
     29  C         29.5250   29.1450   -4.4380 C.2    16  ASN16       0.2463
     30  O         29.2600   27.9180   -4.4340 O.2    16  ASN16      -0.2730
     31  CB        27.7160   29.8250   -6.0630 C.3    16  ASN16       0.1195
     32  CG        26.7530   30.0040   -4.8850 C.2    16  ASN16       0.2630
     33  OD1       26.8460   30.9870   -4.1250 O.2    16  ASN16      -0.2716
     34  ND2       25.8250   29.0520   -4.7180 N.am   16  ASN16      -0.0877
     35  N         30.0730   29.8080   -3.3960 N.am   17  PRO17      -0.2727
     36  CA        30.5950   29.2590   -2.1570 C.3    17  PRO17       0.1402
     37  C         29.7190   28.2090   -1.5380 C.2    17  PRO17       0.2269
     38  O         30.2410   27.3940   -0.7860 O.2    17  PRO17      -0.2865
     39  CB        30.5500   30.4450   -1.2110 C.3    17  PRO17       0.0296
     40  CG        30.6590   31.6390   -2.0980 C.3    17  PRO17       0.0237
     41  CD        29.9170   31.2730   -3.3290 C.3    17  PRO17       0.0939
     42  N         20.7600   29.4060  -14.1460 N.3    38  CYS38      -0.1221
     43  CA        21.9150   28.9780  -14.8840 C.3    38  CYS38       0.1794
     44  C         22.9580   30.1020  -14.9070 C.2    38  CYS38       0.2443
     45  O         22.6180   31.2640  -14.6150 O.2    38  CYS38      -0.2733
     46  CB        21.4820   28.5590  -16.2800 C.3    38  CYS38       0.0970
     47  SG        20.4440   27.0690  -16.2380 S.3    38  CYS38      -0.0800
     48  N         24.2340   29.7620  -15.2290 N.am   39  PRO39      -0.2718
     49  CA        25.2530   30.7720  -15.3910 C.3    39  PRO39       0.1535
     50  C         24.9760   31.5590  -16.6460 C.2    39  PRO39       0.2599
     51  O         24.7220   30.9420  -17.6950 O.2    39  PRO39      -0.2715
     52  CB        26.5190   29.9490  -15.5870 C.3    39  PRO39       0.0310
     53  CG        26.1870   28.5950  -15.0970 C.3    39  PRO39       0.0237
     54  CD        24.7850   28.4340  -15.5250 C.3    39  PRO39       0.0939
     55  N         25.0130   32.8940  -16.5260 N.am   40  HIS40      -0.1960
     56  CA        24.6330   33.8210  -17.6070 C.3    40  HIS40       0.1787
     57  C         25.5320   35.0260  -17.6660 C.2    40  HIS40       0.2620
     58  O         25.7300   35.7230  -16.6690 O.2    40  HIS40      -0.2715
     59  CB        23.1620   34.2200  -17.4850 C.3    40  HIS40       0.0785
     60  CG        22.7380   35.3740  -18.3730 C.ar   40  HIS40       0.0821
     61  ND1       22.6710   36.6490  -17.9210 N.ar   40  HIS40      -0.2267
     62  CD2       22.3060   35.4070  -19.7060 C.ar   40  HIS40       0.1154
     63  CE1       22.2280   37.4610  -18.9140 C.ar   40  HIS40       0.1986
     64  NE2       22.0060   36.7030  -20.0060 N.ar   40  HIS40      -0.2212
     65  N         26.0570   35.2900  -18.8600 N.am   41  TYR41      -0.1974
     66  CA        27.1170   36.2580  -19.0280 C.3    41  TYR41       0.1639
     67  C         26.7320   37.4800  -19.8770 C.2    41  TYR41       0.2290
     68  O         25.5750   37.6410  -20.2870 O.2    41  TYR41      -0.2864
     69  CB        28.3460   35.5680  -19.6250 C.3    41  TYR41       0.0560
     70  CG        28.8060   34.3240  -18.8990 C.ar   41  TYR41      -0.0198
     71  CD1       29.5240   34.4050  -17.7130 C.ar   41  TYR41      -0.0009
     72  CD2       28.5540   33.0620  -19.4170 C.ar   41  TYR41      -0.0009
     73  CE1       29.9580   33.2570  -17.0550 C.ar   41  TYR41       0.0417
     74  CE2       28.9830   31.9110  -18.7680 C.ar   41  TYR41       0.0417
     75  CZ        29.6850   32.0130  -17.5910 C.ar   41  TYR41       0.1957
     76  OH        30.1080   30.8760  -16.9440 O.3    41  TYR41      -0.2866
     77  N         19.1490   34.9830  -16.8150 N.3    87  PRO87      -0.2116
     78  CA        19.6320   33.5880  -16.9370 C.3    87  PRO87       0.1372
     79  C         18.5120   32.5300  -17.1620 C.2    87  PRO87       0.2244
     80  O         17.3310   32.7390  -16.8370 O.2    87  PRO87      -0.2868
     81  CB        20.3510   33.3280  -15.5930 C.3    87  PRO87       0.0268
     82  CG        20.2340   34.6080  -14.7890 C.3    87  PRO87       0.0207
     83  CD        19.1810   35.4760  -15.4240 C.3    87  PRO87       0.0892
@<TRIPOS>BOND
     1    68    67    2
     2    64    62   ar
     3    64    63   ar
     4    67    66    1
     5    62    60   ar
     6    69    66    1
     7    69    70    1
     8    72    70   ar
     9    72    74   ar
    10    66    65    1
    11    63    61   ar
    12    70    71   ar
    13    65    57   am
    14    74    75   ar
    15    60    61   ar
    16    60    59    1
    17    71    73   ar
    18    51    50    2
    19    57    56    1
    20    57    58    2
    21    56    59    1
    22    56    55    1
    23    75    73   ar
    24    75    76    1
    25    79    78    1
    26    79    80    2
    27    78    77    1
    28    78    81    1
    29    77    83    1
    30    50    55   am
    31    50    49    1
    32    46    47    1
    33    46    43    1
    34    81    82    1
    35    52    49    1
    36    52    53    1
    37    54    48    1
    38    54    53    1
    39    83    82    1
    40    49    48    1
    41    48    44   am
    42    44    43    1
    43    44    45    2
    44    43    42    1
    45    17    14    1
    46    17    18    1
    47    20    18   am
    48    14    13    1
    49    14    15    1
    50    18    19    2
    51    26    25    1
    52    15    16    2
    53     7     9   ar
    54     7     6   ar
    55     9    11   ar
    56    21    22    1
    57    25    22    1
    58     3     2    1
    59     3     4    2
    60     2     5    1
    61     2     1    1
    62     5     6    1
    63    22    23    1
    64     6     8   ar
    65    11    12    1
    66    11    10   ar
    67     8    10   ar
    68    23    27   am
    69    23    24    2
    70    27    28    1
    71    31    28    1
    72    31    32    1
    73    28    29    1
    74    32    34   am
    75    32    33    2
    76    29    30    2
    77    29    35   am
    78    35    41    1
    79    35    36    1
    80    41    40    1
    81    36    37    1
    82    36    39    1
    83    40    39    1
    84    37    38    2
