@<TRIPOS>MOLECULE
tmp/4m4vA00.pdb
 153 143 0 0 0
SMALL
GASTEIGER

@<TRIPOS>ATOM
      1  N         54.8160   28.6430   42.8050 N.3    38  ARG38      -0.1231
      2  CA        54.2010   29.6600   43.6510 C.3    38  ARG38       0.1694
      3  C         52.8500   29.1660   44.1640 C.2    38  ARG38       0.2591
      4  O         52.3270   28.1540   43.6860 O.2    38  ARG38      -0.2718
      5  CB        54.0100   30.9930   42.8850 C.3    38  ARG38       0.0321
      6  CG        55.3170   31.7960   42.6250 C.3    38  ARG38       0.0489
      7  CD        55.0470   33.3230   42.5180 C.3    38  ARG38       0.2205
      8  NE        54.3790   33.8080   43.7220 N.pl3  38  ARG38      -0.0865
      9  CZ        53.5030   34.8070   43.7610 C.cat  38  ARG38       0.5346
     10  NH1       53.1800   35.4740   42.6510 N.pl3  38  ARG38       0.1354
     11  NH2       52.9280   35.1290   44.9170 N.pl3  38  ARG38       0.1354
     12  N         52.2910   29.9020   45.1280 N.am   39  ILE39      -0.1980
     13  CA        50.8980   29.7200   45.5770 C.3    39  ILE39       0.1595
     14  C         50.6430   28.3390   46.2260 C.2    39  ILE39       0.2287
     15  O         49.8490   27.5330   45.7200 O.2    39  ILE39      -0.2864
     16  CB        49.8400   30.0160   44.4250 C.3    39  ILE39       0.0276
     17  CG1       50.2950   31.1370   43.4570 C.3    39  ILE39       0.0022
     18  CG2       48.4530   30.2700   45.0230 C.3    39  ILE39       0.0022
     19  CD1       50.5680   32.5180   44.0950 C.3    39  ILE39       0.0001
     20  N         51.1960   26.0940   42.2390 N.3    55  GLU55      -0.1245
     21  CA        51.1880   26.4270   40.8290 C.3    55  GLU55       0.1567
     22  C         52.5610   26.1590   40.2410 C.2    55  GLU55       0.2260
     23  O         53.5740   26.6700   40.7330 O.2    55  GLU55      -0.2867
     24  CB        50.8140   27.8900   40.6300 C.3    55  GLU55       0.0388
     25  CG        49.3520   28.1600   40.8830 C.3    55  GLU55       0.1160
     26  CD        48.9860   29.6190   40.6760 C.2    55  GLU55       0.3649
     27  OE1       49.7360   30.3510   39.9830 O.co2  55  GLU55      -0.2457
     28  OE2       47.9590   30.0420   41.2300 O.co2  55  GLU55      -0.2457
     29  N         54.6300   27.1980   37.4640 N.3    57  ARG57      -0.1245
     30  CA        54.6770   28.2920   36.5090 C.3    57  ARG57       0.1563
     31  C         55.7700   27.9820   35.4900 C.2    57  ARG57       0.2260
     32  O         56.9700   28.0660   35.7760 O.2    57  ARG57      -0.2867
     33  CB        54.8690   29.6240   37.2340 C.3    57  ARG57       0.0307
     34  CG        53.6880   29.9190   38.1680 C.3    57  ARG57       0.0489
     35  CD        53.7230   31.3080   38.7810 C.3    57  ARG57       0.2205
     36  NE        52.4540   31.5950   39.4500 N.pl3  57  ARG57      -0.0865
     37  CZ        52.0510   32.8050   39.8270 C.cat  57  ARG57       0.5346
     38  NH1       52.8230   33.8720   39.6320 N.pl3  57  ARG57       0.1354
     39  NH2       50.8680   32.9490   40.4100 N.pl3  57  ARG57       0.1354
     40  N         52.0680   35.7240   36.8240 N.3    63  ASP63      -0.1239
     41  CA        50.7530   35.2010   37.1830 C.3    63  ASP63       0.1674
     42  C         49.9640   34.6440   35.9970 C.2    63  ASP63       0.2266
     43  O         48.9470   33.9790   36.1880 O.2    63  ASP63      -0.2867
     44  CB        49.9110   36.3020   37.8330 C.3    63  ASP63       0.1410
     45  CG        50.5050   36.8240   39.1390 C.2    63  ASP63       0.3668
     46  OD1       50.0180   37.8790   39.5900 O.co2  63  ASP63      -0.2456
     47  OD2       51.4350   36.2100   39.7110 O.co2  63  ASP63      -0.2456
     48  N         45.5130   28.9610   42.1740 N.3   103  ASN103     -0.1240
     49  CA        44.7920   29.1940   43.4300 C.3   103  ASN103      0.1653
     50  C         44.3630   27.8940   44.1170 C.2   103  ASN103      0.2266
     51  O         43.1920   27.7640   44.4880 O.2   103  ASN103     -0.2867
     52  CB        43.5300   30.0620   43.1890 C.3   103  ASN103      0.1155
     53  CG        43.8370   31.5270   42.9220 C.2   103  ASN103      0.2627
     54  OD1       43.0210   32.2340   42.2900 O.2   103  ASN103     -0.2716
     55  ND2       44.9820   32.0050   43.3970 N.am  103  ASN103     -0.0877
     56  N         41.2290   28.0070   40.3740 N.3   119  SER119     -0.1217
     57  CA        40.8510   29.0060   39.3910 C.3   119  SER119      0.1889
     58  C         41.4200   28.5960   38.0450 C.2   119  SER119      0.2288
     59  O         42.4700   27.9430   37.9750 O.2   119  SER119     -0.2866
     60  CB        41.3910   30.3910   39.7770 C.3   119  SER119      0.2089
     61  OG        40.8180   30.8520   40.9930 O.3   119  SER119     -0.2183
     62  N         45.4380   39.5830   34.1510 N.3   127  GLN127     -0.1245
     63  CA        44.7270   40.5360   35.0050 C.3   127  GLN127      0.1566
     64  C         44.6990   41.9450   34.4210 C.2   127  GLN127      0.2260
     65  O         43.6350   42.5660   34.3290 O.2   127  GLN127     -0.2867
     66  CB        45.3600   40.5670   36.3970 C.3   127  GLN127      0.0367
     67  CG        44.5880   41.4040   37.4080 C.3   127  GLN127      0.0905
     68  CD        44.9870   41.1140   38.8450 C.2   127  GLN127      0.2608
     69  OE1       46.0790   40.6070   39.1170 O.2   127  GLN127     -0.2717
     70  NE2       44.0940   41.4280   39.7750 N.am  127  GLN127     -0.0878
     71  N         37.7300   34.7410   34.8380 N.3   150  LEU150     -0.1245
     72  CA        38.2420   33.7240   35.7400 C.3   150  LEU150      0.1561
     73  C         37.1400   32.7370   36.0700 C.2   150  LEU150      0.2260
     74  O         36.0360   33.1330   36.4800 O.2   150  LEU150     -0.2867
     75  CB        38.7590   34.3730   37.0170 C.3   150  LEU150      0.0270
     76  CG        40.2410   34.7100   37.1670 C.3   150  LEU150      0.0019
     77  CD1       41.0330   33.4500   37.4700 C.3   150  LEU150      0.0001
     78  CD2       40.7830   35.4390   35.9450 C.3   150  LEU150      0.0001
     79  N         37.4940   39.2550   36.9950 N.3   181  TRP181     -0.1227
     80  CA        38.4610   38.7330   37.9630 C.3   181  TRP181      0.1737
     81  C         37.7550   37.9350   39.0620 C.2   181  TRP181      0.2595
     82  O         36.6030   38.2090   39.4000 O.2   181  TRP181     -0.2718
     83  CB        39.2640   39.8740   38.5980 C.3   181  TRP181      0.0564
     84  CG        40.4250   39.3880   39.3910 C.ar  181  TRP181      0.0003
     85  CD1       40.5640   39.3970   40.7540 C.ar  181  TRP181      0.0946
     86  CD2       41.6030   38.7830   38.8670 C.ar  181  TRP181      0.0152
     87  NE1       41.7770   38.8480   41.1050 N.ar  181  TRP181     -0.2442
     88  CE2       42.4320   38.4620   39.9630 C.ar  181  TRP181      0.0810
     89  CE3       42.0450   38.4880   37.5720 C.ar  181  TRP181      0.0012
     90  CZ2       43.6770   37.8600   39.8010 C.ar  181  TRP181      0.0191
     91  CZ3       43.2820   37.8830   37.4130 C.ar  181  TRP181      0.0001
     92  CH2       44.0840   37.5820   38.5210 C.ar  181  TRP181      0.0015
     93  N         38.4530   36.9380   39.5940 N.am  182  ASP182     -0.1960
     94  CA        37.9840   36.1630   40.7340 C.3   182  ASP182      0.1840
     95  C         39.1990   35.5750   41.4330 C.2   182  ASP182      0.2621
     96  O         40.3160   35.6030   40.8930 O.2   182  ASP182     -0.2715
     97  CB        37.0490   35.0270   40.2750 C.3   182  ASP182      0.1450
     98  CG        36.3170   34.3690   41.4270 C.2   182  ASP182      0.3671
     99  OD1       36.1100   35.0480   42.4490 O.co2 182  ASP182     -0.2456
    100  OD2       35.9450   33.1740   41.3070 O.co2 182  ASP182     -0.2456
    101  N         38.9800   35.0430   42.6310 N.am  183  ALA183     -0.1977
    102  CA        39.9670   34.2080   43.3050 C.3   183  ALA183      0.1597
    103  C         39.2410   33.2440   44.2460 C.2   183  ALA183      0.2287
    104  O         38.1610   33.5590   44.7460 O.2   183  ALA183     -0.2864
    105  CB        40.9360   35.0740   44.0830 C.3   183  ALA183      0.0319
    106  N         39.9500   39.8880   48.1410 N.3   227  ALA227     -0.1231
    107  CA        40.0080   38.9440   47.0350 C.3   227  ALA227      0.1694
    108  C         40.5940   37.6170   47.5250 C.2   227  ALA227      0.2591
    109  O         40.0690   36.5470   47.2140 O.2   227  ALA227     -0.2718
    110  CB        40.8480   39.5110   45.8810 C.3   227  ALA227      0.0304
    111  N         41.6760   37.6980   48.2970 N.am  228  GLU228     -0.1979
    112  CA        42.3480   36.4970   48.7990 C.3   228  GLU228      0.1602
    113  C         42.1130   36.3210   50.2840 C.2   228  GLU228      0.2287
    114  O         42.7530   36.9770   51.1270 O.2   228  GLU228     -0.2864
    115  CB        43.8380   36.5430   48.4600 C.3   228  GLU228      0.0415
    116  CG        44.0860   36.3910   46.9680 C.3   228  GLU228      0.1163
    117  CD        45.5080   36.7240   46.5840 C.2   228  GLU228      0.3649
    118  OE1       45.9080   37.8910   46.7640 O.co2 228  GLU228     -0.2457
    119  OE2       46.2140   35.8390   46.0700 O.co2 228  GLU228     -0.2457
    120  N         43.6690   39.2770   52.8830 N.3   244  ARG244     -0.1245
    121  CA        44.6810   40.1790   52.3470 C.3   244  ARG244      0.1563
    122  C         44.0260   41.5370   52.0830 C.2   244  ARG244      0.2260
    123  O         42.9970   41.6060   51.4040 O.2   244  ARG244     -0.2867
    124  CB        45.2470   39.6110   51.0390 C.3   244  ARG244      0.0307
    125  CG        46.0230   40.6090   50.1940 C.3   244  ARG244      0.0489
    126  CD        46.6260   39.9110   49.0080 C.3   244  ARG244      0.2205
    127  NE        47.2530   40.8480   48.0730 N.pl3 244  ARG244     -0.0865
    128  CZ        48.0790   40.4780   47.0990 C.cat 244  ARG244      0.5346
    129  NH1       48.3970   39.1930   46.9530 N.pl3 244  ARG244      0.1354
    130  NH2       48.6180   41.3970   46.3020 N.pl3 244  ARG244      0.1354
    131  N         57.5800   41.2960   52.0680 N.3   301  ARG301     -0.1245
    132  CA        57.1030   39.9120   52.1810 C.3   301  ARG301      0.1563
    133  C         58.0950   39.0070   52.9090 C.2   301  ARG301      0.2260
    134  O         57.8400   37.8170   53.0770 O.2   301  ARG301     -0.2867
    135  CB        56.7890   39.3380   50.7970 C.3   301  ARG301      0.0307
    136  CG        55.5580   39.9760   50.2010 C.3   301  ARG301      0.0489
    137  CD        55.1420   39.3350   48.8980 C.3   301  ARG301      0.2205
    138  NE        53.9090   39.9580   48.4230 N.pl3 301  ARG301     -0.0865
    139  CZ        53.1740   39.5090   47.4130 C.cat 301  ARG301      0.5346
    140  NH1       53.5300   38.4050   46.7610 N.pl3 301  ARG301      0.1354
    141  NH2       52.0700   40.1620   47.0660 N.pl3 301  ARG301      0.1354
    142  N         53.5460   33.9200   50.0430 N.3   337  TYR337     -0.1241
    143  CA        52.3640   33.0980   50.3440 C.3   337  TYR337      0.1605
    144  C         52.7290   31.8900   51.1970 C.2   337  TYR337      0.2264
    145  O         53.8610   31.3930   51.1430 O.2   337  TYR337     -0.2867
    146  CB        51.6920   32.6030   49.0420 C.3   337  TYR337      0.0534
    147  CG        50.9080   33.6540   48.2730 C.ar  337  TYR337     -0.0201
    148  CD1       51.3780   34.9640   48.1420 C.ar  337  TYR337     -0.0009
    149  CD2       49.7150   33.3180   47.6380 C.ar  337  TYR337     -0.0009
    150  CE1       50.6540   35.9300   47.4170 C.ar  337  TYR337      0.0417
    151  CE2       48.9890   34.2600   46.9100 C.ar  337  TYR337      0.0417
    152  CZ        49.4570   35.5630   46.8080 C.ar  337  TYR337      0.1957
    153  OH        48.7210   36.4820   46.0940 O.3   337  TYR337     -0.2866
@<TRIPOS>BOND
     1    62    63    1
     2    65    64    2
     3    64    63    1
     4    71    72    1
     5    63    66    1
     6    31    32    2
     7    31    30    1
     8    72    73    1
     9    72    75    1
    10    78    76    1
    11    42    43    2
    12    42    41    1
    13    73    74    2
    14    66    67    1
    15    30    33    1
    16    30    29    1
    17    40    41    1
    18    79    80    1
    19    75    76    1
    20    76    77    1
    21    41    44    1
    22    33    34    1
    23    67    68    1
    24    91    89   ar
    25    91    92   ar
    26    89    86   ar
    27    44    45    1
    28    80    83    1
    29    80    81    1
    30    59    58    2
    31    58    57    1
    32    34    35    1
    33    92    90   ar
    34    83    84    1
    35    35    36    1
    36    68    69    2
    37    68    70   am
    38    86    84   ar
    39    86    88   ar
    40    81    82    2
    41    81    93   am
    42    45    46   ar
    43    45    47   ar
    44    84    85   ar
    45    57    60    1
    46    57    56    1
    47    36    37    2
    48    93    94    1
    49    38    37    1
    50    60    61    1
    51    90    88   ar
    52    37    39    1
    53    88    87   ar
    54    27    26   ar
    55    22    23    2
    56    22    21    1
    57    97    94    1
    58    97    98    1
    59    24    21    1
    60    24    25    1
    61    26    25    1
    62    26    28   ar
    63    94    95    1
    64    85    87   ar
    65    21    20    1
    66    96    95    2
    67   100    98   ar
    68    98    99   ar
    69    95   101   am
    70    48    49    1
    71    54    53    2
    72     7     6    1
    73     7     8    1
    74     6     5    1
    75   101   102    1
    76    10     9    1
    77     1     2    1
    78     5     2    1
    79    53    52    1
    80    53    55   am
    81    52    49    1
    82   102   105    1
    83   102   103    1
    84    49    50    1
    85    17    19    1
    86    17    16    1
    87     2     3    1
    88     4     3    2
    89     8     9    2
    90     9    11    1
    91    50    51    2
    92     3    12   am
    93   103   104    2
    94    16    18    1
    95    16    13    1
    96    12    13    1
    97    13    14    1
    98    15    14    2
    99   110   107    1
   100   119   117   ar
   101   153   152    1
   102   130   128    1
   103   117   118   ar
   104   117   116    1
   105   140   139    1
   106   152   151   ar
   107   152   150   ar
   108   151   149   ar
   109   129   128    1
   110   116   115    1
   111   107   108    1
   112   107   106    1
   113   141   139    1
   114   128   127    2
   115   109   108    2
   116   139   138    2
   117   150   148   ar
   118   108   111   am
   119   149   147   ar
   120   127   126    1
   121   148   147   ar
   122   147   146    1
   123   111   112    1
   124   138   137    1
   125   115   112    1
   126   112   113    1
   127   137   136    1
   128   126   125    1
   129   146   143    1
   130   142   143    1
   131   125   124    1
   132   136   135    1
   133   113   114    2
   134   143   144    1
   135   135   132    1
   136   124   121    1
   137   145   144    2
   138   123   122    2
   139   131   132    1
   140   122   121    1
   141   132   133    1
   142   121   120    1
   143   133   134    2
