@<TRIPOS>MOLECULE
tmp/4m51A01.pdb
 95 96 0 0 0
SMALL
GASTEIGER

@<TRIPOS>ATOM
      1  N         24.9500   33.4490   18.1530 N.3   260  TRP260     -0.1241
      2  CA        25.4150   34.7940   17.8860 C.3   260  TRP260      0.1605
      3  C         24.4520   35.5810   17.0000 C.2   260  TRP260      0.2264
      4  O         24.7970   36.6620   16.5280 O.2   260  TRP260     -0.2867
      5  CB        26.8440   34.7410   17.3220 C.3   260  TRP260      0.0550
      6  CG        27.7980   34.1170   18.3050 C.ar  260  TRP260      0.0003
      7  CD1       28.0150   32.7800   18.4750 C.ar  260  TRP260      0.0946
      8  CD2       28.5120   34.7660   19.3530 C.ar  260  TRP260      0.0152
      9  NE1       28.8570   32.5570   19.5210 N.ar  260  TRP260     -0.2442
     10  CE2       29.1540   33.7590   20.0920 C.ar  260  TRP260      0.0810
     11  CE3       28.6890   36.1000   19.7320 C.ar  260  TRP260      0.0012
     12  CZ2       29.9640   34.0420   21.1760 C.ar  260  TRP260      0.0191
     13  CZ3       29.4680   36.3820   20.8280 C.ar  260  TRP260      0.0001
     14  CH2       30.1070   35.3590   21.5380 C.ar  260  TRP260      0.0015
     15  N         26.8120   30.1220   24.8130 N.3   290  VAL290     -0.1231
     16  CA        25.5090   29.5650   25.1950 C.3   290  VAL290      0.1692
     17  C         24.4070   30.4070   24.5880 C.2   290  VAL290      0.2592
     18  O         24.3700   31.6270   24.7810 O.2   290  VAL290     -0.2718
     19  CB        25.3080   29.4720   26.7130 C.3   290  VAL290      0.0266
     20  CG1       23.9750   28.8320   27.0380 C.3   290  VAL290      0.0020
     21  CG2       26.4470   28.7200   27.3820 C.3   290  VAL290      0.0020
     22  N         23.4810   29.7700   23.8870 N.am  291  LEU291     -0.1966
     23  CA        22.3110   30.4330   23.3540 C.3   291  LEU291      0.1728
     24  C         21.5040   31.0790   24.4830 C.2   291  LEU291      0.2616
     25  O         21.2000   30.4170   25.4720 O.2   291  LEU291     -0.2715
     26  CB        21.4220   29.4010   22.6570 C.3   291  LEU291      0.0311
     27  CG        20.1740   29.8960   21.9680 C.3   291  LEU291      0.0022
     28  CD1       20.5020   30.8120   20.7820 C.3   291  LEU291      0.0001
     29  CD2       19.3350   28.7180   21.5100 C.3   291  LEU291      0.0001
     30  N         21.1560   32.3500   24.3140 N.am  292  ASP292     -0.1957
     31  CA        20.3510   33.0470   25.3120 C.3   292  ASP292      0.1840
     32  C         18.8680   32.8560   24.9930 C.2   292  ASP292      0.2622
     33  O         18.3610   33.3350   23.9740 O.2   292  ASP292     -0.2715
     34  CB        20.7240   34.5130   25.3830 C.3   292  ASP292      0.1450
     35  CG        20.0210   35.1940   26.5380 C.2   292  ASP292      0.3671
     36  OD1       18.7970   35.3500   26.4520 O.co2 292  ASP292     -0.2456
     37  OD2       20.6840   35.5160   27.5560 O.co2 292  ASP292     -0.2456
     38  N         18.1600   32.1570   25.8790 N.am  293  LEU293     -0.1963
     39  CA        16.7880   31.7670   25.6240 C.3   293  LEU293      0.1728
     40  C         15.8100   32.9360   25.7620 C.2   293  LEU293      0.2616
     41  O         14.7250   32.8550   25.2000 O.2   293  LEU293     -0.2715
     42  CB        16.3810   30.5860   26.5300 C.3   293  LEU293      0.0311
     43  CG        17.2310   29.3380   26.3370 C.3   293  LEU293      0.0022
     44  CD1       16.7880   28.2500   27.3180 C.3   293  LEU293      0.0001
     45  CD2       17.2150   28.8210   24.8990 C.3   293  LEU293      0.0001
     46  N         16.1760   34.0140   26.4400 N.am  294  GLU294     -0.1977
     47  CA        15.3520   35.2290   26.3880 C.3   294  GLU294      0.1602
     48  C         15.4820   35.9090   25.0450 C.2   294  GLU294      0.2287
     49  O         14.5010   36.3680   24.4680 O.2   294  GLU294     -0.2864
     50  CB        15.7040   36.2270   27.4970 C.3   294  GLU294      0.0415
     51  CG        15.3950   35.7240   28.8970 C.3   294  GLU294      0.1163
     52  CD        13.9500   35.2470   29.0420 C.2   294  GLU294      0.3649
     53  OE1       13.7610   34.0410   29.3070 O.co2 294  GLU294     -0.2457
     54  OE2       12.9840   36.0370   28.8930 O.co2 294  GLU294     -0.2457
     55  N         24.2440   24.6490   31.4990 N.3   326  VAL326     -0.1231
     56  CA        24.6930   25.8200   30.7570 C.3   326  VAL326      0.1692
     57  C         23.7110   26.9910   30.8410 C.2   326  VAL326      0.2592
     58  O         24.0590   28.1200   30.4500 O.2   326  VAL326     -0.2718
     59  CB        25.0410   25.5590   29.2800 C.3   326  VAL326      0.0266
     60  CG1       26.1420   24.5220   29.0850 C.3   326  VAL326      0.0020
     61  CG2       23.8300   25.2100   28.4100 C.3   326  VAL326      0.0020
     62  N         22.5040   26.7320   31.3250 N.am  327  HIS327     -0.1962
     63  CA        21.4960   27.7650   31.6640 C.3   327  HIS327      0.1772
     64  C         21.2640   27.7220   33.1690 C.2   327  HIS327      0.2462
     65  O         20.1600   27.4300   33.6260 O.2   327  HIS327     -0.2730
     66  CB        20.1900   27.5410   30.9070 C.3   327  HIS327      0.0785
     67  CG        20.3270   27.4080   29.4120 C.ar  327  HIS327      0.0821
     68  ND1       20.3520   28.4800   28.5520 N.ar  327  HIS327     -0.2267
     69  CD2       20.3860   26.3160   28.6290 C.ar  327  HIS327      0.1154
     70  CE1       20.4390   28.0460   27.3110 C.ar  327  HIS327      0.1986
     71  NE2       20.4770   26.7380   27.3290 N.ar  327  HIS327     -0.2212
     72  N         22.3160   27.9660   33.9690 N.am  328  PRO328     -0.2716
     73  CA        22.2520   27.6020   35.3800 C.3   328  PRO328      0.1536
     74  C         21.3330   28.4640   36.2190 C.2   328  PRO328      0.2599
     75  O         21.0090   28.0670   37.3330 O.2   328  PRO328     -0.2715
     76  CB        23.7030   27.7600   35.8430 C.3   328  PRO328      0.0310
     77  CG        24.2280   28.8530   34.9480 C.3   328  PRO328      0.0237
     78  CD        23.6270   28.5190   33.6120 C.3   328  PRO328      0.0939
     79  N         20.9490   29.6260   35.7120 N.am  329  ASN329     -0.1959
     80  CA        20.1070   30.5390   36.4750 C.3   329  ASN329      0.1819
     81  C         18.6320   30.4010   36.1750 C.2   329  ASN329      0.2621
     82  O         17.8340   31.1830   36.6810 O.2   329  ASN329     -0.2715
     83  CB        20.5700   31.9790   36.2690 C.3   329  ASN329      0.1195
     84  CG        21.9990   32.1700   36.6950 C.2   329  ASN329      0.2630
     85  OD1       22.4500   31.5980   37.6990 O.2   329  ASN329     -0.2716
     86  ND2       22.7460   32.9370   35.9310 N.am  329  ASN329     -0.0877
     87  N         18.2590   29.3900   35.3920 N.am  330  LYS330     -0.1977
     88  CA        16.8650   29.0630   35.1580 C.3   330  LYS330      0.1596
     89  C         16.4090   28.0900   36.2250 C.2   330  LYS330      0.2287
     90  O         16.9350   26.9800   36.3600 O.2   330  LYS330     -0.2864
     91  CB        16.6740   28.4940   33.7470 C.3   330  LYS330      0.0298
     92  CG        17.0180   29.4980   32.6660 C.3   330  LYS330      0.0038
     93  CD        16.5630   29.0850   31.2710 C.3   330  LYS330      0.0206
     94  CE        15.0590   29.0230   31.1020 C.3   330  LYS330      0.1093
     95  NZ        14.4080   30.3360   31.3520 N.3   330  LYS330     -0.1314
@<TRIPOS>BOND
     1     4     3    2
     2     3     2    1
     3     5     2    1
     4     5     6    1
     5     2     1    1
     6     6     7   ar
     7     6     8   ar
     8     7     9   ar
     9     8    11   ar
    10     8    10   ar
    11     9    10   ar
    12    11    13   ar
    13    10    12   ar
    14    28    27    1
    15    13    14   ar
    16    12    14   ar
    17    29    27    1
    18    27    26    1
    19    26    23    1
    20    23    22    1
    21    23    24    1
    22    22    17   am
    23    33    32    2
    24    30    24   am
    25    30    31    1
    26    49    48    2
    27    24    25    2
    28    17    18    2
    29    17    16    1
    30    15    16    1
    31    45    43    1
    32    32    31    1
    33    32    38   am
    34    48    47    1
    35    16    19    1
    36    41    40    2
    37    31    34    1
    38    34    35    1
    39    39    40    1
    40    39    38    1
    41    39    42    1
    42    40    46   am
    43    43    42    1
    44    43    44    1
    45    47    46    1
    46    47    50    1
    47    36    35   ar
    48    35    37   ar
    49    19    20    1
    50    19    21    1
    51    70    71   ar
    52    70    68   ar
    53    71    69   ar
    54    50    51    1
    55    61    59    1
    56    68    67   ar
    57    69    67   ar
    58    54    52   ar
    59    51    52    1
    60    52    53   ar
    61    60    59    1
    62    59    56    1
    63    67    66    1
    64    58    57    2
    65    56    57    1
    66    56    55    1
    67    57    62   am
    68    66    63    1
    69    94    93    1
    70    94    95    1
    71    93    92    1
    72    62    63    1
    73    63    64    1
    74    92    91    1
    75    64    65    2
    76    64    72   am
    77    78    72    1
    78    78    77    1
    79    91    88    1
    80    72    73    1
    81    77    76    1
    82    88    87    1
    83    88    89    1
    84    73    76    1
    85    73    74    1
    86    87    81   am
    87    79    74   am
    88    79    80    1
    89    86    84   am
    90    81    80    1
    91    81    82    2
    92    74    75    2
    93    89    90    2
    94    83    80    1
    95    83    84    1
    96    84    85    2
