@<TRIPOS>MOLECULE
tmp/4m52C00.pdb
 93 90 0 0 0
SMALL
GASTEIGER

@<TRIPOS>ATOM
      1  N        -69.6410   16.4910   40.9860 N.3   378  PHE378     -0.1241
      2  CA       -70.8560   16.9990   40.3510 C.3   378  PHE378      0.1605
      3  C        -70.5270   18.0740   39.3130 C.2   378  PHE378      0.2264
      4  O        -69.9190   19.0850   39.6520 O.2   378  PHE378     -0.2867
      5  CB       -71.7880   17.5840   41.4130 C.3   378  PHE378      0.0534
      6  CG       -73.1810   17.8400   40.9200 C.ar  378  PHE378     -0.0203
      7  CD1      -74.1450   16.8480   40.9890 C.ar  378  PHE378     -0.0042
      8  CD2      -73.5290   19.0700   40.3870 C.ar  378  PHE378     -0.0042
      9  CE1      -75.4320   17.0730   40.5400 C.ar  378  PHE378     -0.0003
     10  CE2      -74.8150   19.3030   39.9310 C.ar  378  PHE378     -0.0003
     11  CZ       -75.7690   18.3030   40.0090 C.ar  378  PHE378     -0.0000
     12  N        -72.8890   21.4270   34.5300 N.3   381  THR381     -0.1203
     13  CA       -73.8060   21.2240   33.4070 C.3   381  THR381      0.1994
     14  C        -75.1410   20.6570   33.8920 C.2   381  THR381      0.2618
     15  O        -76.1570   20.7570   33.2030 O.2   381  THR381     -0.2717
     16  CB       -73.2250   20.2660   32.3390 C.3   381  THR381      0.1784
     17  OG1      -72.5320   19.1850   32.9780 O.3   381  THR381     -0.2211
     18  CG2      -72.2680   21.0000   31.4150 C.3   381  THR381      0.0376
     19  N        -75.1260   20.0610   35.0810 N.am  382  ALA382     -0.1965
     20  CA       -76.3300   19.5080   35.6890 C.3   382  ALA382      0.1728
     21  C        -76.9270   20.4700   36.7220 C.2   382  ALA382      0.2616
     22  O        -77.8740   20.1210   37.4310 O.2   382  ALA382     -0.2715
     23  CB       -76.0190   18.1680   36.3310 C.3   382  ALA382      0.0334
     24  N        -76.3690   21.6770   36.8020 N.am  383  ASN383     -0.1958
     25  CA       -76.8470   22.6910   37.7380 C.3   383  ASN383      0.1819
     26  C        -77.6510   23.7710   37.0260 C.2   383  ASN383      0.2621
     27  O        -77.2330   24.3020   35.9980 O.2   383  ASN383     -0.2715
     28  CB       -75.6790   23.3240   38.4980 C.3   383  ASN383      0.1195
     29  CG       -76.1250   24.4580   39.4100 C.2   383  ASN383      0.2630
     30  OD1      -76.1160   25.6230   39.0180 O.2   383  ASN383     -0.2716
     31  ND2      -76.5190   24.1200   40.6280 N.am  383  ASN383     -0.0877
     32  N        -78.8030   24.0980   37.5960 N.am  384  ALA384     -0.1977
     33  CA       -79.7540   25.0100   36.9670 C.3   384  ALA384      0.1597
     34  C        -79.2330   26.4380   36.8400 C.2   384  ALA384      0.2287
     35  O        -79.3690   27.0610   35.7860 O.2   384  ALA384     -0.2864
     36  CB       -81.0450   25.0120   37.7440 C.3   384  ALA384      0.0319
     37  N        -76.5210   27.2930   33.9770 N.3   387  HIS387     -0.1241
     38  CA       -77.0060   27.4940   32.6170 C.3   387  HIS387      0.1621
     39  C        -77.6210   28.8780   32.4540 C.2   387  HIS387      0.2264
     40  O        -77.3390   29.5760   31.4810 O.2   387  HIS387     -0.2867
     41  CB       -78.0150   26.4080   32.2410 C.3   387  HIS387      0.0745
     42  CG       -77.3860   25.0770   31.9700 C.ar  387  HIS387      0.0817
     43  ND1      -76.8370   24.7510   30.7490 N.ar  387  HIS387     -0.2268
     44  CD2      -77.2120   23.9940   32.7620 C.ar  387  HIS387      0.1154
     45  CE1      -76.3560   23.5220   30.7990 C.ar  387  HIS387      0.1986
     46  NE2      -76.5700   23.0400   32.0100 N.ar  387  HIS387     -0.2212
     47  N        -82.8140   27.1180   45.9630 N.3   444  HIS444     -0.1241
     48  CA       -82.8720   26.8970   44.5220 C.3   444  HIS444      0.1621
     49  C        -83.2360   28.1990   43.8110 C.2   444  HIS444      0.2264
     50  O        -84.0570   28.9580   44.3210 O.2   444  HIS444     -0.2867
     51  CB       -83.9130   25.8290   44.1820 C.3   444  HIS444      0.0745
     52  CG       -83.9970   25.5190   42.7190 C.ar  444  HIS444      0.0817
     53  ND1      -83.1470   24.6320   42.0980 N.ar  444  HIS444     -0.2268
     54  CD2      -84.8200   25.9910   41.7530 C.ar  444  HIS444      0.1154
     55  CE1      -83.4470   24.5640   40.8130 C.ar  444  HIS444      0.1986
     56  NE2      -84.4580   25.3800   40.5780 N.ar  444  HIS444     -0.2212
     57  N        -76.0430   24.4910   45.2170 N.3   449  GLU449     -0.1245
     58  CA       -76.7600   23.2170   45.1630 C.3   449  GLU449      0.1567
     59  C        -75.8460   22.0530   44.7890 C.2   449  GLU449      0.2260
     60  O        -76.1010   20.9110   45.1650 O.2   449  GLU449     -0.2867
     61  CB       -77.9000   23.2910   44.1540 C.3   449  GLU449      0.0388
     62  CG       -79.1160   24.0460   44.6400 C.3   449  GLU449      0.1160
     63  CD       -80.2110   24.0930   43.5920 C.2   449  GLU449      0.3649
     64  OE1      -81.1550   23.2790   43.6840 O.co2 449  GLU449     -0.2457
     65  OE2      -80.1200   24.9390   42.6770 O.co2 449  GLU449     -0.2457
     66  N        -75.5460   18.1520   46.3600 N.3   453  GLU453     -0.1245
     67  CA       -75.5250   16.9390   45.5490 C.3   453  GLU453      0.1567
     68  C        -74.2790   16.1160   45.8590 C.2   453  GLU453      0.2260
     69  O        -74.3370   14.8910   45.9480 O.2   453  GLU453     -0.2867
     70  CB       -75.5600   17.2910   44.0630 C.3   453  GLU453      0.0388
     71  CG       -76.8420   17.9820   43.6140 C.3   453  GLU453      0.1160
     72  CD       -78.0690   17.0950   43.7510 C.2   453  GLU453      0.3649
     73  OE1      -77.9390   15.8570   43.6020 O.co2 453  GLU453     -0.2457
     74  OE2      -79.1640   17.6410   44.0120 O.co2 453  GLU453     -0.2457
     75  N        -79.6980   14.5720   41.4370 N.3   464  ASN464     -0.1225
     76  CA       -79.8160   15.3060   40.1820 C.3   464  ASN464      0.1785
     77  C        -78.7100   14.9990   39.1820 C.2   464  ASN464      0.2597
     78  O        -78.6470   15.6060   38.1180 O.2   464  ASN464     -0.2718
     79  CB       -79.8870   16.8110   40.4550 C.3   464  ASN464      0.1169
     80  CG       -81.2750   17.2570   40.8750 C.2   464  ASN464      0.2627
     81  OD1      -82.1970   17.3070   40.0560 O.2   464  ASN464     -0.2716
     82  ND2      -81.4330   17.5830   42.1540 N.am  464  ASN464     -0.0877
     83  N        -77.8410   14.0560   39.5280 N.am  465  PHE465     -0.1976
     84  CA       -76.8290   13.5660   38.5950 C.3   465  PHE465      0.1639
     85  C        -76.5810   12.0880   38.8410 C.2   465  PHE465      0.2290
     86  O        -76.1570   11.3560   37.9450 O.2   465  PHE465     -0.2864
     87  CB       -75.5260   14.3540   38.7380 C.3   465  PHE465      0.0560
     88  CG       -74.4650   13.9520   37.7560 C.ar  465  PHE465     -0.0200
     89  CD1      -73.3550   13.2260   38.1660 C.ar  465  PHE465     -0.0042
     90  CD2      -74.5790   14.2990   36.4170 C.ar  465  PHE465     -0.0042
     91  CE1      -72.3740   12.8570   37.2550 C.ar  465  PHE465     -0.0003
     92  CE2      -73.6040   13.9320   35.5030 C.ar  465  PHE465     -0.0003
     93  CZ       -72.5000   13.2110   35.9230 C.ar  465  PHE465     -0.0000
@<TRIPOS>BOND
     1    43    45   ar
     2    43    42   ar
     3    45    46   ar
     4    18    16    1
     5    40    39    2
     6    42    41    1
     7    42    44   ar
     8    46    44   ar
     9    41    38    1
    10    16    17    1
    11    16    13    1
    12    39    38    1
    13    38    37    1
    14    15    14    2
    15    13    14    1
    16    13    12    1
    17    14    19   am
    18    19    20    1
    19    92    93   ar
    20    92    90   ar
    21    20    23    1
    22    20    21    1
    23    35    34    2
    24    93    91   ar
    25    27    26    2
    26    90    88   ar
    27    21    24   am
    28    21    22    2
    29    24    25    1
    30    34    33    1
    31    33    32    1
    32    33    36    1
    33    26    32   am
    34    26    25    1
    35    91    89   ar
    36    25    28    1
    37    88    89   ar
    38    88    87    1
    39    86    85    2
    40    78    77    2
    41    28    29    1
    42    84    87    1
    43    84    85    1
    44    84    83    1
    45    30    29    2
    46    77    83   am
    47    77    76    1
    48     3     4    2
    49     3     2    1
    50    29    31   am
    51    10    11   ar
    52    10     8   ar
    53    11     9   ar
    54    81    80    2
    55    76    79    1
    56    76    75    1
    57     2     1    1
    58     2     5    1
    59     8     6   ar
    60    79    80    1
    61     9     7   ar
    62    56    55   ar
    63    56    54   ar
    64    55    53   ar
    65    80    82   am
    66     6     7   ar
    67     6     5    1
    68    54    52   ar
    69    53    52   ar
    70    65    63   ar
    71    52    51    1
    72    63    64   ar
    73    63    62    1
    74    73    72   ar
    75    71    72    1
    76    71    70    1
    77    72    74   ar
    78    49    50    2
    79    49    48    1
    80    70    67    1
    81    61    62    1
    82    61    58    1
    83    51    48    1
    84    48    47    1
    85    59    58    1
    86    59    60    2
    87    58    57    1
    88    67    68    1
    89    67    66    1
    90    68    69    2
