@<TRIPOS>MOLECULE
tmp/4m52C02.pdb
 96 90 0 0 0
SMALL
GASTEIGER

@<TRIPOS>ATOM
      1  N        -52.5050   43.4010   55.5120 N.3    14  PRO14      -0.2116
      2  CA       -53.6110   42.6830   56.1590 C.3    14  PRO14       0.1372
      3  C        -53.2260   42.0960   57.5150 C.2    14  PRO14       0.2244
      4  O        -53.9690   42.2470   58.4830 O.2    14  PRO14      -0.2868
      5  CB       -53.9220   41.5640   55.1670 C.3    14  PRO14       0.0268
      6  CG       -53.5440   42.1260   53.8500 C.3    14  PRO14       0.0207
      7  CD       -52.3630   43.0290   54.0950 C.3    14  PRO14       0.0892
      8  N        -52.2060   45.3460   60.0920 N.3    17  TYR17      -0.1241
      9  CA       -53.2510   46.2890   60.4710 C.3    17  TYR17       0.1605
     10  C        -54.4090   45.5930   61.1920 C.2    17  TYR17       0.2264
     11  O        -55.0940   46.2110   61.9990 O.2    17  TYR17      -0.2867
     12  CB       -53.7090   47.1320   59.2630 C.3    17  TYR17       0.0534
     13  CG       -54.8930   46.6230   58.4610 C.ar   17  TYR17      -0.0201
     14  CD1      -56.1910   46.7190   58.9530 C.ar   17  TYR17      -0.0009
     15  CD2      -54.7170   46.1070   57.1810 C.ar   17  TYR17      -0.0009
     16  CE1      -57.2770   46.2800   58.2070 C.ar   17  TYR17       0.0417
     17  CE2      -55.7950   45.6720   56.4270 C.ar   17  TYR17       0.0417
     18  CZ       -57.0720   45.7620   56.9450 C.ar   17  TYR17       0.1957
     19  OH       -58.1450   45.3250   56.1990 O.3    17  TYR17      -0.2866
     20  N        -51.5110   43.7970   49.3590 N.3    42  CYS42      -0.1221
     21  CA       -52.8700   43.3570   49.0610 C.3    42  CYS42       0.1808
     22  C        -53.7930   44.4920   48.6190 C.2    42  CYS42       0.2601
     23  O        -54.4740   44.3800   47.6030 O.2    42  CYS42      -0.2717
     24  CB       -53.4670   42.6520   50.2840 C.3    42  CYS42       0.0970
     25  SG       -55.1260   41.9840   50.0290 S.3    42  CYS42      -0.0800
     26  N        -53.8040   45.5870   49.3710 N.am   43  LEU43      -0.1979
     27  CA       -54.7340   46.6810   49.1030 C.3    43  LEU43       0.1596
     28  C        -54.2350   47.6580   48.0350 C.2    43  LEU43       0.2287
     29  O        -55.0400   48.2910   47.3520 O.2    43  LEU43      -0.2864
     30  CB       -55.0590   47.4330   50.3970 C.3    43  LEU43       0.0297
     31  CG       -56.1830   46.8160   51.2380 C.3    43  LEU43       0.0022
     32  CD1      -55.7540   45.4930   51.8600 C.3    43  LEU43       0.0001
     33  CD2      -56.6620   47.7870   52.3120 C.3    43  LEU43       0.0001
     34  N        -56.8600   43.5160   45.9190 N.3    48  ILE48      -0.1245
     35  CA       -57.9390   44.4670   45.6570 C.3    48  ILE48       0.1561
     36  C        -57.9650   44.9740   44.2110 C.2    48  ILE48       0.2260
     37  O        -58.9540   44.7880   43.5100 O.2    48  ILE48      -0.2867
     38  CB       -57.8850   45.6630   46.6460 C.3    48  ILE48       0.0252
     39  CG1      -58.5420   45.2850   47.9710 C.3    48  ILE48       0.0019
     40  CG2      -58.6200   46.8850   46.0930 C.3    48  ILE48       0.0019
     41  CD1      -57.9020   44.1130   48.6940 C.3    48  ILE48       0.0001
     42  N        -59.9250   51.7110   49.6090 N.3    94  ARG94      -0.1245
     43  CA       -59.7140   50.7130   50.6530 C.3    94  ARG94       0.1563
     44  C        -58.5600   51.1230   51.5640 C.2    94  ARG94       0.2260
     45  O        -58.5560   50.7980   52.7520 O.2    94  ARG94      -0.2867
     46  CB       -59.4360   49.3370   50.0510 C.3    94  ARG94       0.0307
     47  CG       -60.5830   48.7520   49.2410 C.3    94  ARG94       0.0489
     48  CD       -61.8590   48.6350   50.0570 C.3    94  ARG94       0.2205
     49  NE       -62.7820   49.7320   49.7620 N.pl3  94  ARG94      -0.0865
     50  CZ       -63.4060   50.4800   50.6700 C.cat  94  ARG94       0.5346
     51  NH1      -63.2310   50.2780   51.9710 N.pl3  94  ARG94       0.1354
     52  NH2      -64.2220   51.4440   50.2700 N.pl3  94  ARG94       0.1354
     53  N        -59.8640   53.4610   54.0000 N.3    97  GLY97      -0.1210
     54  CA       -60.5540   52.6790   55.0100 C.3    97  GLY97       0.1956
     55  C        -59.6340   52.2660   56.1430 C.2    97  GLY97       0.2611
     56  O        -59.9860   52.4060   57.3160 O.2    97  GLY97      -0.2717
     57  N        -58.4540   51.7590   55.7930 N.am   98  VAL98      -0.1979
     58  CA       -57.4630   51.3550   56.7850 C.3    98  VAL98       0.1595
     59  C        -57.1640   52.5110   57.7320 C.2    98  VAL98       0.2287
     60  O        -57.1780   52.3350   58.9470 O.2    98  VAL98      -0.2864
     61  CB       -56.1480   50.8660   56.1180 C.3    98  VAL98       0.0276
     62  CG1      -55.0650   50.5860   57.1590 C.3    98  VAL98       0.0022
     63  CG2      -56.4110   49.6180   55.2860 C.3    98  VAL98       0.0022
     64  N        -58.9810   54.9590   58.5170 N.3   100  PHE100     -0.1227
     65  CA       -60.1430   55.1950   59.3630 C.3   100  PHE100      0.1736
     66  C        -60.2110   54.1750   60.4930 C.2   100  PHE100      0.2595
     67  O        -60.6210   54.5050   61.6060 O.2   100  PHE100     -0.2718
     68  CB       -61.4300   55.1440   58.5340 C.3   100  PHE100      0.0547
     69  CG       -61.4290   56.0780   57.3540 C.ar  100  PHE100     -0.0202
     70  CD1      -62.2190   55.8160   56.2430 C.ar  100  PHE100     -0.0042
     71  CD2      -60.6370   57.2180   57.3510 C.ar  100  PHE100     -0.0042
     72  CE1      -62.2160   56.6700   55.1550 C.ar  100  PHE100     -0.0003
     73  CE2      -60.6330   58.0750   56.2650 C.ar  100  PHE100     -0.0003
     74  CZ       -61.4250   57.8020   55.1680 C.ar  100  PHE100     -0.0000
     75  N        -59.8090   52.9370   60.2120 N.am  101  LEU101     -0.1980
     76  CA       -59.8600   51.8820   61.2240 C.3   101  LEU101      0.1596
     77  C        -58.7900   52.0890   62.2870 C.2   101  LEU101      0.2287
     78  O        -58.9960   51.7440   63.4500 O.2   101  LEU101     -0.2864
     79  CB       -59.7220   50.4970   60.5840 C.3   101  LEU101      0.0297
     80  CG       -60.9410   50.0330   59.7830 C.3   101  LEU101      0.0022
     81  CD1      -60.5840   48.8650   58.8830 C.3   101  LEU101      0.0001
     82  CD2      -62.0840   49.6510   60.7180 C.3   101  LEU101      0.0001
     83  N        -53.8820   36.7600   52.0280 N.3   318  ALA318     -0.1245
     84  CA       -54.3020   37.8440   52.9050 C.3   318  ALA318      0.1562
     85  C        -55.1340   37.3600   54.0940 C.2   318  ALA318      0.2260
     86  O        -54.9030   37.7790   55.2310 O.2   318  ALA318     -0.2867
     87  CB       -55.0720   38.8900   52.1120 C.3   318  ALA318      0.0290
     88  N        -54.4790   37.8610   58.1430 N.3   322  GLU322     -0.1245
     89  CA       -55.4240   38.4050   59.1190 C.3   322  GLU322      0.1567
     90  C        -55.6260   37.4550   60.2940 C.2   322  GLU322      0.2260
     91  O        -55.5830   37.8660   61.4560 O.2   322  GLU322     -0.2867
     92  CB       -56.7880   38.6470   58.4750 C.3   322  GLU322      0.0388
     93  CG       -56.8220   39.7010   57.3860 C.3   322  GLU322      0.1160
     94  CD       -58.2210   39.8860   56.8210 C.2   322  GLU322      0.3649
     95  OE1      -58.9770   40.7260   57.3660 O.co2 322  GLU322     -0.2457
     96  OE2      -58.5600   39.1870   55.8380 O.co2 322  GLU322     -0.2457
@<TRIPOS>BOND
     1    37    36    2
     2    36    35    1
     3    35    34    1
     4    35    38    1
     5    40    38    1
     6    38    39    1
     7    29    28    2
     8    23    22    2
     9    39    41    1
    10    28    27    1
    11    22    21    1
    12    22    26   am
    13    21    20    1
    14    21    24    1
    15    27    26    1
    16    27    30    1
    17    47    46    1
    18    47    48    1
    19    42    43    1
    20    49    48    1
    21    49    50    2
    22    25    24    1
    23    46    43    1
    24    52    50    1
    25    30    31    1
    26    43    44    1
    27    50    51    1
    28    31    32    1
    29    31    33    1
    30    44    45    2
    31    83    84    1
    32    87    84    1
    33    84    85    1
    34     6     7    1
    35     6     5    1
    36    53    54    1
    37    85    86    2
    38     7     1    1
    39    54    55    1
    40    72    74   ar
    41    72    70   ar
    42     5     2    1
    43    74    73   ar
    44    63    61    1
    45     1     2    1
    46    57    55   am
    47    57    58    1
    48    96    94   ar
    49    61    58    1
    50    61    62    1
    51    55    56    2
    52     2     3    1
    53    19    18    1
    54    70    69   ar
    55    73    71   ar
    56    17    18   ar
    57    17    15   ar
    58    58    59    1
    59    94    95   ar
    60    94    93    1
    61    18    16   ar
    62    15    13   ar
    63    71    69   ar
    64    69    68    1
    65    93    92    1
    66     3     4    2
    67    59    60    2
    68    88    89    1
    69    16    14   ar
    70    13    14   ar
    71    13    12    1
    72    92    89    1
    73    64    65    1
    74    68    65    1
    75    81    80    1
    76    89    90    1
    77    12     9    1
    78    65    66    1
    79    80    79    1
    80    80    82    1
    81     8     9    1
    82    75    66   am
    83    75    76    1
    84    90    91    2
    85     9    10    1
    86    66    67    2
    87    79    76    1
    88    10    11    2
    89    76    77    1
    90    77    78    2
