@<TRIPOS>MOLECULE
tmp/4m54A01.pdb
 176 163 0 0 0
SMALL
GASTEIGER

@<TRIPOS>ATOM
      1  N        -14.7330   41.9330   -2.2640 N.3    43  LYS43      -0.1245
      2  CA       -15.5390   41.1680   -1.3210 C.3    43  LYS43       0.1561
      3  C        -15.3080   41.6250    0.1180 C.2    43  LYS43       0.2260
      4  O        -14.1800   41.6120    0.6100 O.2    43  LYS43      -0.2867
      5  CB       -15.2690   39.6690   -1.4710 C.3    43  LYS43       0.0271
      6  CG       -13.8120   39.2830   -1.3360 C.3    43  LYS43       0.0035
      7  CD       -13.5180   37.9990   -2.0770 C.3    43  LYS43       0.0206
      8  CE       -12.2580   38.1490   -2.9060 C.3    43  LYS43       0.1093
      9  NZ       -11.9490   36.9080   -3.6570 N.3    43  LYS43      -0.1314
     10  N        -15.3700   41.3790    4.1420 N.3    45  TYR45      -0.1241
     11  CA       -15.2700   40.3540    5.1710 C.3    45  TYR45       0.1605
     12  C        -16.1040   40.7460    6.3840 C.2    45  TYR45       0.2264
     13  O        -16.0350   41.8820    6.8530 O.2    45  TYR45      -0.2867
     14  CB       -13.8110   40.1590    5.5910 C.3    45  TYR45       0.0534
     15  CG       -13.0100   39.2620    4.6740 C.ar   45  TYR45      -0.0201
     16  CD1      -12.8240   39.5900    3.3370 C.ar   45  TYR45      -0.0009
     17  CD2      -12.4260   38.0940    5.1500 C.ar   45  TYR45      -0.0009
     18  CE1      -12.0910   38.7740    2.4960 C.ar   45  TYR45       0.0417
     19  CE2      -11.6870   37.2730    4.3180 C.ar   45  TYR45       0.0417
     20  CZ       -11.5240   37.6180    2.9910 C.ar   45  TYR45       0.1957
     21  OH       -10.7930   36.8070    2.1540 O.3    45  TYR45      -0.2866
     22  N         -8.3390   33.8040   11.6440 N.3    50  ILE50      -0.1245
     23  CA        -8.3610   34.0560   10.2050 C.3    50  ILE50       0.1561
     24  C         -9.4840   33.2910    9.4980 C.2    50  ILE50       0.2260
     25  O        -10.0820   33.7890    8.5410 O.2    50  ILE50      -0.2867
     26  CB        -6.9880   33.7420    9.5540 C.3    50  ILE50       0.0252
     27  CG1       -7.0170   34.0240    8.0500 C.3    50  ILE50       0.0019
     28  CG2       -6.5670   32.3040    9.8360 C.3    50  ILE50       0.0019
     29  CD1       -5.6820   33.8310    7.3660 C.3    50  ILE50       0.0001
     30  N        -14.9990   33.9300    9.8350 N.3    53  ARG53      -0.1245
     31  CA       -15.5630   35.0440    9.0820 C.3    53  ARG53       0.1563
     32  C        -16.6780   34.5860    8.1530 C.2    53  ARG53       0.2260
     33  O        -16.8630   33.3900    7.9240 O.2    53  ARG53      -0.2867
     34  CB       -14.4760   35.7390    8.2520 C.3    53  ARG53       0.0307
     35  CG       -14.0460   34.9730    6.9980 C.3    53  ARG53       0.0489
     36  CD       -13.1240   33.8060    7.3280 C.3    53  ARG53       0.2205
     37  NE       -13.0440   32.8290    6.2450 N.pl3  53  ARG53      -0.0865
     38  CZ       -12.0320   32.7380    5.3870 C.cat  53  ARG53       0.5346
     39  NH1      -11.0020   33.5690    5.4810 N.pl3  53  ARG53       0.1354
     40  NH2      -12.0490   31.8120    4.4380 N.pl3  53  ARG53       0.1354
     41  N        -17.8750   35.8000    4.2130 N.3    55  ILE55      -0.1245
     42  CA       -17.4750   36.6520    3.1000 C.3    55  ILE55       0.1561
     43  C        -18.5730   36.7770    2.0470 C.2    55  ILE55       0.2260
     44  O        -19.1000   35.7750    1.5600 O.2    55  ILE55      -0.2867
     45  CB       -16.1990   36.1170    2.4230 C.3    55  ILE55       0.0252
     46  CG1      -15.1390   35.7760    3.4740 C.3    55  ILE55       0.0019
     47  CG2      -15.6680   37.1230    1.4090 C.3    55  ILE55       0.0019
     48  CD1      -13.9490   35.0290    2.9200 C.3    55  ILE55       0.0001
     49  N        -19.4370   37.5240   -1.6350 N.3    57  MET57      -0.1245
     50  CA       -18.7390   37.5150   -2.9180 C.3    57  MET57       0.1570
     51  C        -19.6930   37.6800   -4.1000 C.2    57  MET57       0.2261
     52  O        -20.0890   36.6940   -4.7220 O.2    57  MET57      -0.2867
     53  CB       -17.9240   36.2280   -3.0680 C.3    57  MET57       0.0387
     54  CG       -16.8780   36.0330   -1.9780 C.3    57  MET57       0.0595
     55  SD       -15.9620   34.4840   -2.1170 S.3    57  MET57      -0.1393
     56  CE       -15.1990   34.6770   -3.7270 C.3    57  MET57       0.0692
     57  N        -21.9520   34.7020   -3.5790 N.3    71  LYS71      -0.1245
     58  CA       -21.7080   33.6130   -2.6490 C.3    71  LYS71       0.1561
     59  C        -21.5760   34.1900   -1.2450 C.2    71  LYS71       0.2260
     60  O        -20.7280   35.0440   -0.9880 O.2    71  LYS71      -0.2867
     61  CB       -20.4600   32.8140   -3.0280 C.3    71  LYS71       0.0271
     62  CG       -20.2910   31.5520   -2.1950 C.3    71  LYS71       0.0035
     63  CD       -19.1180   30.7050   -2.6590 C.3    71  LYS71       0.0206
     64  CE       -17.7910   31.3540   -2.3200 C.3    71  LYS71       0.1093
     65  NZ       -16.6480   30.4700   -2.6750 N.3    71  LYS71      -0.1314
     66  N        -20.6030   32.9910    2.0380 N.3    73  ILE73      -0.1245
     67  CA       -19.9570   31.8300    2.6380 C.3    73  ILE73       0.1561
     68  C        -19.3120   32.1250    3.9940 C.2    73  ILE73       0.2260
     69  O        -18.4610   33.0060    4.1220 O.2    73  ILE73      -0.2867
     70  CB       -18.9360   31.1900    1.6590 C.3    73  ILE73       0.0252
     71  CG1      -18.2840   29.9560    2.2820 C.3    73  ILE73       0.0019
     72  CG2      -17.8900   32.2080    1.2110 C.3    73  ILE73       0.0019
     73  CD1      -17.5460   29.1000    1.2830 C.3    73  ILE73       0.0001
     74  N        -17.4550   30.8080    7.7880 N.3    75  SER75      -0.1217
     75  CA       -16.3850   29.9180    8.2110 C.3    75  SER75       0.1889
     76  C        -16.1010   30.0170    9.7050 C.2    75  SER75       0.2288
     77  O        -16.1340   31.0980   10.2910 O.2    75  SER75      -0.2866
     78  CB       -15.1060   30.2000    7.4210 C.3    75  SER75       0.2089
     79  OG       -14.0320   29.4040    7.8940 O.3    75  SER75      -0.2183
     80  N        -16.0270   23.2710    8.4000 N.3    87  ARG87      -0.1231
     81  CA       -15.5720   24.6280    8.6770 C.3    87  ARG87       0.1694
     82  C        -16.3750   25.6510    7.8870 C.2    87  ARG87       0.2591
     83  O        -16.9290   26.5940    8.4530 O.2    87  ARG87      -0.2718
     84  CB       -14.0900   24.7740    8.3310 C.3    87  ARG87       0.0321
     85  CG       -13.5820   26.2040    8.3990 C.3    87  ARG87       0.0489
     86  CD       -12.2800   26.3600    7.6350 C.3    87  ARG87       0.2205
     87  NE       -12.4400   26.0230    6.2240 N.pl3  87  ARG87      -0.0865
     88  CZ       -12.7950   26.8930    5.2840 C.cat  87  ARG87       0.5346
     89  NH1      -13.0280   28.1590    5.6030 N.pl3  87  ARG87       0.1354
     90  NH2      -12.9190   26.4970    4.0240 N.pl3  87  ARG87       0.1354
     91  N        -16.4390   25.4520    6.5760 N.am   88  ALA88      -0.1980
     92  CA       -17.1320   26.3820    5.6970 C.3    88  ALA88       0.1597
     93  C        -18.5610   25.9400    5.4060 C.2    88  ALA88       0.2287
     94  O        -18.8550   24.7470    5.3160 O.2    88  ALA88      -0.2864
     95  CB       -16.3570   26.5620    4.4000 C.3    88  ALA88       0.0319
     96  N        -18.1350   25.5000   -3.8150 N.3   112  SER112     -0.1217
     97  CA       -16.9410   26.2700   -3.4870 C.3   112  SER112      0.1889
     98  C        -15.6790   25.4070   -3.5150 C.2   112  SER112      0.2288
     99  O        -14.6710   25.7860   -4.1120 O.2   112  SER112     -0.2866
    100  CB       -17.0970   26.9290   -2.1130 C.3   112  SER112      0.2089
    101  OG       -15.9740   27.7300   -1.7910 O.3   112  SER112     -0.2183
    102  N        -14.9700   24.0910   -7.2700 N.3   115  ARG115     -0.1231
    103  CA       -14.4660   25.0930   -8.2060 C.3   115  ARG115      0.1694
    104  C        -13.0210   25.4460   -7.8720 C.2   115  ARG115      0.2592
    105  O        -12.2240   25.7420   -8.7570 O.2   115  ARG115     -0.2718
    106  CB       -15.3610   26.3450   -8.2510 C.3   115  ARG115      0.0321
    107  CG       -15.4990   27.1370   -6.9440 C.3   115  ARG115      0.0489
    108  CD       -14.4050   28.1870   -6.7670 C.3   115  ARG115      0.2205
    109  NE       -14.8320   29.2990   -5.9210 N.pl3 115  ARG115     -0.0865
    110  CZ       -14.0050   30.1870   -5.3750 C.cat 115  ARG115      0.5346
    111  NH1      -12.6970   30.0900   -5.5700 N.pl3 115  ARG115      0.1354
    112  NH2      -14.4840   31.1700   -4.6260 N.pl3 115  ARG115      0.1354
    113  N        -12.6930   25.4000   -6.5850 N.am  116  THR116     -0.1953
    114  CA       -11.3380   25.6760   -6.1240 C.3   116  THR116      0.1897
    115  C        -10.3880   24.5940   -6.6180 C.2   116  THR116      0.2313
    116  O         -9.2520   24.8740   -7.0030 O.2   116  THR116     -0.2863
    117  CB       -11.2770   25.7480   -4.5900 C.3   116  THR116      0.1794
    118  OG1      -12.2220   26.7170   -4.1210 O.3   116  THR116     -0.2208
    119  CG2       -9.8840   26.1390   -4.1280 C.3   116  THR116      0.0378
    120  N        -11.2850   20.9130    1.7660 N.3   143  ILE143     -0.1245
    121  CA       -10.6980   21.4510    0.5420 C.3   143  ILE143      0.1561
    122  C         -9.6460   20.5100   -0.0450 C.2   143  ILE143      0.2260
    123  O         -9.6870   20.1860   -1.2320 O.2   143  ILE143     -0.2867
    124  CB       -10.0760   22.8450    0.7770 C.3   143  ILE143      0.0252
    125  CG1      -11.1730   23.8870    1.0030 C.3   143  ILE143      0.0019
    126  CG2       -9.2050   23.2540   -0.4010 C.3   143  ILE143      0.0019
    127  CD1      -12.0250   24.1560   -0.2220 C.3   143  ILE143      0.0001
    128  N         -3.3910   27.2700   -2.7420 N.3   228  ILE228     -0.1231
    129  CA        -4.8100   27.4460   -2.4460 C.3   228  ILE228      0.1692
    130  C         -5.0560   28.1770   -1.1250 C.2   228  ILE228      0.2593
    131  O         -5.8550   29.1110   -1.0660 O.2   228  ILE228     -0.2718
    132  CB        -5.5520   26.0910   -2.4310 C.3   228  ILE228      0.0266
    133  CG1       -5.5100   25.4440   -3.8180 C.3   228  ILE228      0.0019
    134  CG2       -6.9860   26.2630   -1.9560 C.3   228  ILE228      0.0020
    135  CD1       -6.1720   26.2680   -4.9020 C.3   228  ILE228      0.0001
    136  N         -4.3610   27.7580   -0.0730 N.am  229  SER229     -0.1938
    137  CA        -4.5520   28.3560    1.2480 C.3   229  SER229      0.2055
    138  C         -3.7230   29.6260    1.4650 C.2   229  SER229      0.2643
    139  O         -3.6770   30.1620    2.5730 O.2   229  SER229     -0.2714
    140  CB        -4.2860   27.3300    2.3530 C.3   229  SER229      0.2130
    141  OG        -3.0880   26.6140    2.1170 O.3   229  SER229     -0.2179
    142  N         -3.0640   30.0850    0.4030 N.am  230  ILE230     -0.1963
    143  CA        -2.4390   31.4110    0.3540 C.3   230  ILE230      0.1727
    144  C         -1.2460   31.6420    1.2910 C.2   230  ILE230      0.2616
    145  O         -0.1680   32.0370    0.8420 O.2   230  ILE230     -0.2715
    146  CB        -3.4830   32.5370    0.5670 C.3   230  ILE230      0.0290
    147  CG1       -4.5410   32.4990   -0.5360 C.3   230  ILE230      0.0022
    148  CG2       -2.8060   33.8970    0.6100 C.3   230  ILE230      0.0023
    149  CD1       -3.9840   32.7390   -1.9220 C.3   230  ILE230      0.0001
    150  N         -1.4380   31.4010    2.5850 N.am  231  MET231     -0.1977
    151  CA        -0.4530   31.8020    3.5900 C.3   231  MET231      0.1605
    152  C          0.6900   30.8070    3.8000 C.2   231  MET231      0.2287
    153  O          1.5730   31.0420    4.6210 O.2   231  MET231     -0.2864
    154  CB        -1.1440   32.0750    4.9300 C.3   231  MET231      0.0413
    155  CG        -2.2950   33.0670    4.8580 C.3   231  MET231      0.0598
    156  SD        -1.7920   34.6940    4.2650 S.3   231  MET231     -0.1393
    157  CE        -0.5210   35.1120    5.4540 C.3   231  MET231      0.0692
    158  N         -3.9680   31.9880   -6.0800 N.3   280  PRO280     -0.2102
    159  CA        -5.3750   32.2830   -6.3540 C.3   280  PRO280      0.1504
    160  C         -6.1470   32.6990   -5.1050 C.2   280  PRO280      0.2576
    161  O         -6.3280   31.8990   -4.1880 O.2   280  PRO280     -0.2718
    162  CB        -5.9040   30.9450   -6.8780 C.3   280  PRO280      0.0282
    163  CG        -4.9620   29.8880   -6.3020 C.3   280  PRO280      0.0208
    164  CD        -3.7890   30.5900   -5.6570 C.3   280  PRO280      0.0893
    165  N         -6.6020   33.9470   -5.0790 N.am  281  MET281     -0.1966
    166  CA        -7.3910   34.4470   -3.9600 C.3   281  MET281      0.1736
    167  C         -8.8070   33.8760   -3.9800 C.2   281  MET281      0.2617
    168  O         -9.4730   33.8060   -2.9460 O.2   281  MET281     -0.2715
    169  CB        -7.4430   35.9770   -3.9850 C.3   281  MET281      0.0427
    170  CG        -6.6940   36.6490   -2.8430 C.3   281  MET281      0.0599
    171  SD        -4.9230   36.3020   -2.8460 S.3   281  MET281     -0.1393
    172  CE        -4.3890   37.2710   -1.4370 C.3   281  MET281      0.0692
    173  N         -9.2590   33.4650   -5.1610 N.am  282  GLY282     -0.1955
    174  CA       -10.6140   32.9730   -5.3290 C.3   282  GLY282      0.1869
    175  C        -11.5370   34.0800   -5.8020 C.2   282  GLY282      0.2309
    176  O        -11.5980   35.1450   -5.1910 O.2   282  GLY282     -0.2863
@<TRIPOS>BOND
     1   105   104    2
     2   106   103    1
     3   106   107    1
     4   103   104    1
     5   103   102    1
     6   104   113   am
     7   116   115    2
     8   107   108    1
     9   162   159    1
    10   162   163    1
    11   108   109    1
    12   115   114    1
    13   113   114    1
    14   159   158    1
    15   159   160    1
    16   163   164    1
    17   114   117    1
    18   158   164    1
    19   109   110    2
    20   175   174    1
    21   175   176    2
    22   111   110    1
    23   110   112    1
    24   174   173    1
    25   173   167   am
    26   160   165   am
    27   160   161    2
    28   165   166    1
    29   135   133    1
    30    52    51    2
    31   117   119    1
    32   117   118    1
    33    99    98    2
    34    51    50    1
    35   169   166    1
    36   169   170    1
    37   167   166    1
    38   167   168    2
    39   133   132    1
    40    96    97    1
    41    56    55    1
    42     9     8    1
    43    57    58    1
    44    98    97    1
    45    97   100    1
    46    53    50    1
    47    53    54    1
    48    61    58    1
    49    61    62    1
    50    50    49    1
    51     8     7    1
    52   171   170    1
    53   171   172    1
    54   128   129    1
    55    65    64    1
    56    63    64    1
    57    63    62    1
    58    58    59    1
    59   129   132    1
    60   129   130    1
    61   132   134    1
    62     1     2    1
    63    55    54    1
    64   100   101    1
    65     7     6    1
    66   149   147    1
    67     5     6    1
    68     5     2    1
    69     2     3    1
    70    59    60    2
    71   123   122    2
    72   130   131    2
    73   130   136   am
    74   147   146    1
    75   126   124    1
    76   127   125    1
    77   136   137    1
    78   122   121    1
    79     3     4    2
    80   143   142    1
    81   143   146    1
    82   143   144    1
    83   142   138   am
    84   121   124    1
    85   121   120    1
    86   146   148    1
    87   124   125    1
    88   145   144    2
    89    72    70    1
    90   137   138    1
    91   137   140    1
    92    73    71    1
    93   144   150   am
    94    47    45    1
    95   138   139    2
    96    44    43    2
    97    70    71    1
    98    70    67    1
    99    66    67    1
   100    43    42    1
   101   141   140    1
   102    21    20    1
   103    45    42    1
   104    45    46    1
   105    18    20   ar
   106    18    16   ar
   107   150   151    1
   108    67    68    1
   109    48    46    1
   110    20    19   ar
   111    42    41    1
   112    16    15   ar
   113   151   152    1
   114   151   154    1
   115   152   153    2
   116    68    69    2
   117    90    88    1
   118    10    11    1
   119   156   155    1
   120   156   157    1
   121    19    17   ar
   122    95    92    1
   123    40    38    1
   124    15    17   ar
   125    15    14    1
   126   155   154    1
   127    11    14    1
   128    11    12    1
   129    88    89    1
   130    88    87    2
   131    94    93    2
   132    38    39    1
   133    38    37    2
   134    93    92    1
   135    92    91    1
   136    87    86    1
   137    37    36    1
   138    12    13    2
   139    91    82   am
   140    35    36    1
   141    35    34    1
   142    29    27    1
   143    78    79    1
   144    78    75    1
   145    86    85    1
   146    74    75    1
   147    82    83    2
   148    82    81    1
   149    33    32    2
   150    27    26    1
   151    32    31    1
   152    75    76    1
   153    34    31    1
   154    84    85    1
   155    84    81    1
   156    80    81    1
   157    25    24    2
   158    31    30    1
   159    24    23    1
   160    26    28    1
   161    26    23    1
   162    76    77    2
   163    23    22    1
