@<TRIPOS>MOLECULE
tmp/4m55B01.pdb
 95 93 0 0 0
SMALL
GASTEIGER

@<TRIPOS>ATOM
      1  N         -5.5260   27.3760  336.2600 N.3    61  PRO61      -0.2102
      2  CA        -6.4060   26.4110  336.9300 C.3    61  PRO61       0.1504
      3  C         -5.9960   26.0950  338.3630 C.2    61  PRO61       0.2576
      4  O         -4.8150   25.9940  338.6690 O.2    61  PRO61      -0.2718
      5  CB        -6.2920   25.1660  336.0440 C.3    61  PRO61       0.0282
      6  CG        -6.0140   25.7260  334.7000 C.3    61  PRO61       0.0208
      7  CD        -5.1450   26.9350  334.9120 C.3    61  PRO61       0.0893
      8  N         -6.9790   25.9560  339.2400 N.am   62  LEU62      -0.1966
      9  CA        -6.7090   25.6410  340.6390 C.3    62  LEU62       0.1728
     10  C         -7.5450   24.4550  341.1130 C.2    62  LEU62       0.2616
     11  O         -8.7430   24.4020  340.8660 O.2    62  LEU62      -0.2715
     12  CB        -6.9670   26.8700  341.4930 C.3    62  LEU62       0.0311
     13  CG        -6.8100   26.8000  342.9960 C.3    62  LEU62       0.0022
     14  CD1       -5.3920   26.5650  343.3330 C.3    62  LEU62       0.0001
     15  CD2       -7.2400   28.1470  343.5290 C.3    62  LEU62       0.0001
     16  N         -6.9100   23.4910  341.7650 N.am   63  TYR63      -0.1974
     17  CA        -7.6000   22.2810  342.1960 C.3    63  TYR63       0.1639
     18  C         -7.4720   22.0590  343.7080 C.2    63  TYR63       0.2290
     19  O         -6.5150   21.4410  344.1750 O.2    63  TYR63      -0.2864
     20  CB        -7.0420   21.0830  341.4350 C.3    63  TYR63       0.0560
     21  CG        -7.0740   21.2620  339.9290 C.ar   63  TYR63      -0.0198
     22  CD1       -8.2500   21.0610  339.2190 C.ar   63  TYR63      -0.0009
     23  CD2       -5.9330   21.6350  339.2140 C.ar   63  TYR63      -0.0009
     24  CE1       -8.3000   21.2240  337.8350 C.ar   63  TYR63       0.0417
     25  CE2       -5.9730   21.8020  337.8300 C.ar   63  TYR63       0.0417
     26  CZ        -7.1620   21.5940  337.1480 C.ar   63  TYR63       0.1957
     27  OH        -7.2330   21.7530  335.7810 O.3    63  TYR63      -0.2866
     28  N        -14.2730   31.6980  335.0790 N.3    93  LEU93      -0.1231
     29  CA       -14.4820   30.3880  334.4810 C.3    93  LEU93       0.1693
     30  C        -13.6910   29.3140  335.2150 C.2    93  LEU93       0.2592
     31  O        -14.1770   28.2010  335.4100 O.2    93  LEU93      -0.2718
     32  CB       -14.0960   30.4150  333.0100 C.3    93  LEU93       0.0284
     33  CG       -15.1370   31.0470  332.1050 C.3    93  LEU93       0.0019
     34  CD1      -14.6130   31.1760  330.6960 C.3    93  LEU93       0.0001
     35  CD2      -16.4170   30.2240  332.1310 C.3    93  LEU93       0.0001
     36  N        -12.4700   29.6520  335.6280 N.am   94  ASN94      -0.1960
     37  CA       -11.6460   28.7130  336.3900 C.3    94  ASN94       0.1819
     38  C        -12.2980   28.3910  337.7190 C.2    94  ASN94       0.2621
     39  O        -12.3540   27.2240  338.1160 O.2    94  ASN94      -0.2715
     40  CB       -10.2390   29.2570  336.6280 C.3    94  ASN94       0.1195
     41  CG        -9.3340   29.1350  335.4100 C.2    94  ASN94       0.2630
     42  OD1       -9.7560   28.7860  334.3030 O.2    94  ASN94      -0.2716
     43  ND2       -8.0670   29.4190  335.6220 N.am   94  ASN94      -0.0877
     44  N        -12.7940   29.4180  338.4040 N.am   95  MET95      -0.1977
     45  CA       -13.4460   29.1820  339.6830 C.3    95  MET95       0.1605
     46  C        -14.8150   28.4880  339.5070 C.2    95  MET95       0.2287
     47  O        -15.2190   27.6690  340.3350 O.2    95  MET95      -0.2864
     48  CB       -13.5850   30.4870  340.4730 C.3    95  MET95       0.0413
     49  CG       -12.2550   31.2010  340.7860 C.3    95  MET95       0.0598
     50  SD       -10.8980   30.1110  341.3360 S.3    95  MET95      -0.1393
     51  CE       -11.6230   29.5030  342.8380 C.3    95  MET95       0.0692
     52  N        -15.4780   26.3400  337.1910 N.3    97  GLY97      -0.1210
     53  CA       -15.0810   24.9690  336.9430 C.3    97  GLY97       0.1956
     54  C        -14.6890   24.2350  338.2120 C.2    97  GLY97       0.2611
     55  O        -15.0160   23.0490  338.3740 O.2    97  GLY97      -0.2717
     56  N        -14.0000   24.9330  339.1180 N.am   98  LEU98      -0.1979
     57  CA       -13.6230   24.3260  340.3840 C.3    98  LEU98       0.1596
     58  C        -14.8670   24.0340  341.1990 C.2    98  LEU98       0.2287
     59  O        -15.0410   22.9070  341.6860 O.2    98  LEU98      -0.2864
     60  CB       -12.6890   25.2410  341.1780 C.3    98  LEU98       0.0297
     61  CG       -12.4030   24.8910  342.6520 C.3    98  LEU98       0.0022
     62  CD1      -11.6550   23.5730  342.8550 C.3    98  LEU98       0.0001
     63  CD2      -11.7030   26.0370  343.3440 C.3    98  LEU98       0.0001
     64  N        -17.8720   23.5810  340.2270 N.3   100  LYS100     -0.1231
     65  CA       -18.5850   22.4590  339.6470 C.3   100  LYS100      0.1693
     66  C        -17.8930   21.1360  339.9960 C.2   100  LYS100      0.2591
     67  O        -18.5480   20.1300  340.2860 O.2   100  LYS100     -0.2718
     68  CB       -18.6770   22.6170  338.1280 C.3   100  LYS100      0.0285
     69  CG       -19.1650   21.3570  337.3960 C.3   100  LYS100      0.0035
     70  CD       -18.8870   21.4570  335.9010 C.3   100  LYS100      0.0206
     71  CE       -19.0530   20.1040  335.2110 C.3   100  LYS100      0.1093
     72  NZ       -18.6150   20.1240  333.7790 N.3   100  LYS100     -0.1314
     73  N        -16.5600   21.1410  339.9770 N.am  101  ARG101     -0.1980
     74  CA       -15.8020   19.8940  340.1190 C.3   101  ARG101      0.1597
     75  C        -15.8610   19.3250  341.5340 C.2   101  ARG101      0.2287
     76  O        -15.9190   18.1020  341.7120 O.2   101  ARG101     -0.2864
     77  CB       -14.3400   20.0870  339.7000 C.3   101  ARG101      0.0334
     78  CG       -13.6040   18.7650  339.5180 C.3   101  ARG101      0.0492
     79  CD       -12.1370   18.9680  339.2220 C.3   101  ARG101      0.2205
     80  NE       -11.4400   19.4570  340.4150 N.pl3 101  ARG101     -0.0865
     81  CZ       -10.8120   18.6900  341.3050 C.cat 101  ARG101      0.5346
     82  NH1      -10.7540   17.3750  341.1330 N.pl3 101  ARG101      0.1354
     83  NH2      -10.2250   19.2420  342.3620 N.pl3 101  ARG101      0.1354
     84  N        -23.6030   28.5560  334.5660 N.3   128  TYR128     -0.1241
     85  CA       -23.1960   27.3440  335.2600 C.3   128  TYR128      0.1605
     86  C        -24.3060   26.8320  336.1490 C.2   128  TYR128      0.2264
     87  O        -24.5100   25.6220  336.2440 O.2   128  TYR128     -0.2867
     88  CB       -21.9220   27.5770  336.0750 C.3   128  TYR128      0.0534
     89  CG       -20.6370   27.3070  335.3140 C.ar  128  TYR128     -0.0201
     90  CD1      -20.0630   28.2770  334.5050 C.ar  128  TYR128     -0.0009
     91  CD2      -19.9990   26.0720  335.4140 C.ar  128  TYR128     -0.0009
     92  CE1      -18.8830   28.0260  333.8200 C.ar  128  TYR128      0.0417
     93  CE2      -18.8310   25.8100  334.7380 C.ar  128  TYR128      0.0417
     94  CZ       -18.2760   26.7880  333.9430 C.ar  128  TYR128      0.1957
     95  OH       -17.1050   26.5180  333.2610 O.3   128  TYR128     -0.2866
@<TRIPOS>BOND
     1    34    33    1
     2    33    35    1
     3    33    32    1
     4    32    29    1
     5    95    94    1
     6    72    71    1
     7    92    94   ar
     8    92    90   ar
     9    94    93   ar
    10    42    41    2
    11    29    28    1
    12    29    30    1
    13    90    89   ar
    14    84    85    1
    15     6     7    1
    16     6     5    1
    17    93    91   ar
    18     7     1    1
    19    71    70    1
    20    30    31    2
    21    30    36   am
    22    85    88    1
    23    85    86    1
    24    89    91   ar
    25    89    88    1
    26    41    43   am
    27    41    40    1
    28    36    37    1
    29    27    26    1
    30    70    69    1
    31     5     2    1
    32    86    87    2
    33     1     2    1
    34    37    40    1
    35    37    38    1
    36     2     3    1
    37    53    52    1
    38    53    54    1
    39    26    25   ar
    40    26    24   ar
    41    69    68    1
    42    38    39    2
    43    38    44   am
    44    25    23   ar
    45    24    22   ar
    46    68    65    1
    47    54    55    2
    48    54    56   am
    49     3     4    2
    50     3     8   am
    51    44    45    1
    52    56    57    1
    53    23    21   ar
    54    22    21   ar
    55    79    78    1
    56    79    80    1
    57     8     9    1
    58    46    45    1
    59    46    47    2
    60    78    77    1
    61    65    66    1
    62    65    64    1
    63    45    48    1
    64    77    74    1
    65    21    20    1
    66    73    66   am
    67    73    74    1
    68    66    67    2
    69    74    75    1
    70    57    60    1
    71    57    58    1
    72    80    81    2
    73    48    49    1
    74     9    10    1
    75     9    12    1
    76    49    50    1
    77    11    10    2
    78    10    16   am
    79    82    81    1
    80    60    61    1
    81    58    59    2
    82    81    83    1
    83    50    51    1
    84    20    17    1
    85    12    13    1
    86    75    76    2
    87    16    17    1
    88    17    18    1
    89    61    62    1
    90    61    63    1
    91    13    14    1
    92    13    15    1
    93    18    19    2
