@<TRIPOS>MOLECULE
tmp/4m55F00.pdb
 171 163 0 0 0
SMALL
GASTEIGER

@<TRIPOS>ATOM
      1  N        -16.2330    6.2110  315.4700 N.3     1  GLY1       -0.1225
      2  CA       -16.3690    6.4040  314.0300 C.3     1  GLY1        0.1811
      3  C        -17.8030    6.3080  313.5560 C.2     1  GLY1        0.2280
      4  O        -18.0740    5.8130  312.4810 O.2     1  GLY1       -0.2866
      5  N        -20.2620    7.9740  310.1770 N.3     4  GLY4       -0.1210
      6  CA       -19.9780    7.5130  308.8320 C.3     4  GLY4        0.1956
      7  C        -21.0600    6.6560  308.2020 C.2     4  GLY4        0.2612
      8  O        -22.1920    6.6360  308.6640 O.2     4  GLY4       -0.2717
      9  N        -20.7000    5.9540  307.1320 N.am    5  PHE5       -0.1962
     10  CA       -21.6110    5.0510  306.4490 C.3     5  PHE5        0.1771
     11  C        -22.0390    3.9340  307.3850 C.2     5  PHE5        0.2619
     12  O        -23.1710    3.9100  307.8540 O.2     5  PHE5       -0.2715
     13  CB       -20.9450    4.4980  305.1910 C.3     5  PHE5        0.0574
     14  CG       -21.6570    3.3260  304.5620 C.ar    5  PHE5       -0.0200
     15  CD1      -23.0160    3.3510  304.3320 C.ar    5  PHE5       -0.0042
     16  CD2      -20.9370    2.2090  304.1510 C.ar    5  PHE5       -0.0042
     17  CE1      -23.6450    2.2660  303.7350 C.ar    5  PHE5       -0.0003
     18  CE2      -21.5580    1.1270  303.5530 C.ar    5  PHE5       -0.0003
     19  CZ       -22.9090    1.1530  303.3430 C.ar    5  PHE5       -0.0000
     20  N        -21.1280    3.0180  307.6730 N.am    6  VAL6       -0.1963
     21  CA       -21.4310    1.9180  308.5710 C.3     6  VAL6        0.1727
     22  C        -21.6520    2.4440  309.9880 C.2     6  VAL6        0.2616
     23  O        -22.3370    1.8190  310.7920 O.2     6  VAL6       -0.2715
     24  CB       -20.3000    0.8670  308.5750 C.3     6  VAL6        0.0290
     25  CG1      -20.6740   -0.3400  309.4140 C.3     6  VAL6        0.0023
     26  CG2      -19.9650    0.4300  307.1640 C.3     6  VAL6        0.0023
     27  N        -21.0720    3.5980  310.3030 N.am    7  GLY7       -0.1955
     28  CA       -21.1200    4.1180  311.6570 C.3     7  GLY7        0.1869
     29  C        -22.5080    4.5800  312.0490 C.2     7  GLY7        0.2309
     30  O        -22.9760    4.3420  313.1680 O.2     7  GLY7       -0.2863
     31  N        -18.3460    9.7600  318.8580 N.3    16  VAL16      -0.1231
     32  CA       -16.9590   10.2280  318.6900 C.3    16  VAL16       0.1692
     33  C        -16.4460   10.1810  317.2430 C.2    16  VAL16       0.2592
     34  O        -16.2260    9.1000  316.6800 O.2    16  VAL16      -0.2718
     35  CB       -15.9720    9.4140  319.5360 C.3    16  VAL16       0.0266
     36  CG1      -14.5500    9.8670  319.2340 C.3    16  VAL16       0.0020
     37  CG2      -16.2800    9.5510  321.0220 C.3    16  VAL16       0.0020
     38  N        -16.2250   11.3590  316.6650 N.am   17  ASP17      -0.1960
     39  CA       -15.9280   11.4770  315.2360 C.3    17  ASP17       0.1840
     40  C        -15.3510   12.8610  314.8980 C.2    17  ASP17       0.2622
     41  O        -15.7550   13.8650  315.4900 O.2    17  ASP17      -0.2715
     42  CB       -17.1960   11.2190  314.4200 C.3    17  ASP17       0.1450
     43  CG       -16.9050   10.8390  312.9810 C.2    17  ASP17       0.3671
     44  OD1      -16.4640   11.7130  312.2030 O.co2  17  ASP17      -0.2456
     45  OD2      -17.1470    9.6650  312.6220 O.co2  17  ASP17      -0.2456
     46  N        -14.4140   12.9260  313.9560 N.am   18  ASN18      -0.1972
     47  CA       -13.8460   14.2220  313.5840 C.3    18  ASN18       0.1688
     48  C        -14.3770   14.8070  312.2690 C.2    18  ASN18       0.2292
     49  O        -13.8850   15.8340  311.8030 O.2    18  ASN18      -0.2864
     50  CB       -12.3270   14.1170  313.5130 C.3    18  ASN18       0.1181
     51  CG       -11.8580   13.1240  312.4760 C.2    18  ASN18       0.2629
     52  OD1      -12.6530   12.4060  311.8880 O.2    18  ASN18      -0.2716
     53  ND2      -10.5560   13.0640  312.2650 N.am   18  ASN18      -0.0877
     54  N        -14.0520   13.9340  309.2670 N.3    20  PHE20      -0.1227
     55  CA       -13.0730   13.9810  308.2010 C.3    20  PHE20       0.1736
     56  C        -13.7200   13.4050  306.9560 C.2    20  PHE20       0.2596
     57  O        -13.7750   14.0470  305.9140 O.2    20  PHE20      -0.2718
     58  CB       -11.8290   13.2030  308.5990 C.3    20  PHE20       0.0547
     59  CG       -10.7320   13.2900  307.6160 C.ar   20  PHE20      -0.0202
     60  CD1      -10.1050   14.4970  307.3740 C.ar   20  PHE20      -0.0042
     61  CD2      -10.3160   12.1650  306.9260 C.ar   20  PHE20      -0.0042
     62  CE1       -9.0850   14.5850  306.4660 C.ar   20  PHE20      -0.0003
     63  CE2       -9.2950   12.2470  306.0100 C.ar   20  PHE20      -0.0003
     64  CZ        -8.6780   13.4600  305.7830 C.ar   20  PHE20      -0.0000
     65  N        -14.2440   12.1930  307.0970 N.am   21  THR21      -0.1939
     66  CA       -14.9920   11.5300  306.0400 C.3    21  THR21       0.2028
     67  C        -16.4100   11.1750  306.5060 C.2    21  THR21       0.2642
     68  O        -17.1440   10.4530  305.8110 O.2    21  THR21      -0.2714
     69  CB       -14.2660   10.2580  305.5640 C.3    21  THR21       0.1808
     70  OG1      -14.2540    9.2890  306.6130 O.3    21  THR21      -0.2208
     71  CG2      -12.8370   10.5810  305.2080 C.3    21  THR21       0.0379
     72  N        -16.7890   11.6850  307.6800 N.am   22  GLY22      -0.1954
     73  CA       -18.1450   11.5300  308.1810 C.3    22  GLY22       0.1869
     74  C        -18.8930   12.8470  308.1360 C.2    22  GLY22       0.2309
     75  O        -18.2840   13.8860  307.8780 O.2    22  GLY22      -0.2863
     76  N        -14.1170   14.5410  318.3600 N.3    34  HIS34      -0.1226
     77  CA       -12.8070   14.0860  318.8330 C.3    34  HIS34       0.1752
     78  C        -12.0330   13.2400  317.8050 C.2    34  HIS34       0.2596
     79  O        -12.5810   12.3110  317.2120 O.2    34  HIS34      -0.2718
     80  CB       -12.9750   13.2920  320.1350 C.3    34  HIS34       0.0759
     81  CG       -11.6820   12.9640  320.8200 C.ar   34  HIS34       0.0818
     82  ND1      -10.9780   13.8820  321.5700 N.ar   34  HIS34      -0.2268
     83  CD2      -10.9690   11.8130  320.8760 C.ar   34  HIS34       0.1154
     84  CE1       -9.8870   13.3150  322.0500 C.ar   34  HIS34       0.1986
     85  NE2       -9.8570   12.0580  321.6430 N.ar   34  HIS34      -0.2212
     86  N        -10.7570   13.5710  317.6110 N.am   35  ASP35      -0.1960
     87  CA        -9.8390   12.7630  316.8070 C.3    35  ASP35       0.1840
     88  C         -9.2600   11.6090  317.6420 C.2    35  ASP35       0.2621
     89  O         -8.5900   11.8560  318.6390 O.2    35  ASP35      -0.2715
     90  CB        -8.7190   13.6600  316.2660 C.3    35  ASP35       0.1450
     91  CG        -7.8710   12.9900  315.2000 C.2    35  ASP35       0.3671
     92  OD1       -7.5060   11.8050  315.3450 O.co2  35  ASP35      -0.2456
     93  OD2       -7.5520   13.6720  314.2070 O.co2  35  ASP35      -0.2456
     94  N         -9.4950   10.3610  317.2340 N.am   36  VAL36      -0.1977
     95  CA        -9.0470    9.1980  318.0120 C.3    36  VAL36       0.1596
     96  C         -7.5300    9.0880  318.1870 C.2    36  VAL36       0.2287
     97  O         -7.0480    8.2700  318.9780 O.2    36  VAL36      -0.2864
     98  CB        -9.5360    7.8670  317.4000 C.3    36  VAL36       0.0276
     99  CG1      -11.0350    7.8300  317.3570 C.3    36  VAL36       0.0022
    100  CG2       -8.9670    7.6610  316.0160 C.3    36  VAL36       0.0022
    101  N         -2.6300   10.7450  307.5530 N.3    51  LYS51      -0.1245
    102  CA        -3.7500   10.8250  308.4900 C.3    51  LYS51       0.1561
    103  C         -4.4980    9.4700  308.6180 C.2    51  LYS51       0.2260
    104  O         -4.8070    9.0130  309.7170 O.2    51  LYS51      -0.2867
    105  CB        -4.6920   11.9520  308.0650 C.3    51  LYS51       0.0271
    106  CG        -5.7530   12.2700  309.0730 C.3    51  LYS51       0.0035
    107  CD        -5.1850   12.4020  310.5020 C.3    51  LYS51       0.0206
    108  CE        -6.3090   12.4310  311.5580 C.3    51  LYS51       0.1093
    109  NZ        -7.3990   13.3790  311.1750 N.3    51  LYS51      -0.1314
    110  N         -4.4000    7.3760  311.9650 N.3    55  THR55      -0.1203
    111  CA        -5.7000    7.0660  312.5720 C.3    55  THR55       0.1994
    112  C         -5.8350    5.5890  312.9180 C.2    55  THR55       0.2617
    113  O         -6.2610    5.2320  314.0220 O.2    55  THR55      -0.2717
    114  CB        -6.8860    7.4510  311.6640 C.3    55  THR55       0.1784
    115  OG1       -7.0170    8.8780  311.6280 O.3    55  THR55      -0.2211
    116  CG2       -8.1790    6.8500  312.1960 C.3    55  THR55       0.0376
    117  N         -5.4850    4.7300  311.9700 N.am   56  ASN56      -0.1974
    118  CA        -5.6420    3.3030  312.1740 C.3    56  ASN56       0.1688
    119  C         -4.7020    2.7350  313.2270 C.2    56  ASN56       0.2292
    120  O         -5.0280    1.7310  313.8530 O.2    56  ASN56      -0.2864
    121  CB        -5.4330    2.5530  310.8710 C.3    56  ASN56       0.1181
    122  CG        -6.4750    2.8860  309.8270 C.2    56  ASN56       0.2629
    123  OD1       -7.6690    2.9140  310.1080 O.2    56  ASN56      -0.2716
    124  ND2       -6.0180    3.1290  308.5940 N.am   56  ASN56      -0.0877
    125  N        -19.4600   -3.6410  300.6970 N.3    88  THR88      -0.1218
    126  CA       -20.6650   -3.2740  301.4340 C.3    88  THR88       0.1862
    127  C        -21.2560   -1.9530  300.9520 C.2    88  THR88       0.2287
    128  O        -20.5690   -0.9290  300.9660 O.2    88  THR88      -0.2866
    129  CB       -20.3830   -3.1610  302.9370 C.3    88  THR88       0.1770
    130  OG1      -19.7770   -4.3760  303.3970 O.3    88  THR88      -0.2211
    131  CG2      -21.6750   -2.8780  303.7150 C.3    88  THR88       0.0375
    132  N        -26.1630    6.6070  302.7050 N.3    92  ARG92      -0.1245
    133  CA       -25.1040    7.2800  303.4710 C.3    92  ARG92       0.1563
    134  C        -23.7040    6.7810  303.1050 C.2    92  ARG92       0.2260
    135  O        -22.7540    6.9840  303.8570 O.2    92  ARG92      -0.2867
    136  CB       -25.3170    7.1170  304.9900 C.3    92  ARG92       0.0307
    137  CG       -26.6220    7.6870  305.5110 C.3    92  ARG92       0.0489
    138  CD       -26.6150    7.8880  307.0280 C.3    92  ARG92       0.2205
    139  NE       -27.9700    7.8190  307.5700 N.pl3  92  ARG92      -0.0865
    140  CZ       -28.4420    6.8000  308.2790 C.cat  92  ARG92       0.5346
    141  NH1      -27.6630    5.7740  308.5720 N.pl3  92  ARG92       0.1354
    142  NH2      -29.6930    6.8110  308.7090 N.pl3  92  ARG92       0.1354
    143  N        -20.2230    6.3740  300.5330 N.3    94  HIS94      -0.1241
    144  CA       -19.3920    7.1830  299.6630 C.3    94  HIS94       0.1621
    145  C        -19.7440    6.8670  298.2340 C.2    94  HIS94       0.2264
    146  O        -19.6890    5.7080  297.8240 O.2    94  HIS94      -0.2867
    147  CB       -17.9110    6.9230  299.9240 C.3    94  HIS94       0.0745
    148  CG       -17.4580    7.3820  301.2690 C.ar   94  HIS94       0.0817
    149  ND1      -17.1670    8.7000  301.5440 N.ar   94  HIS94      -0.2268
    150  CD2      -17.2670    6.7040  302.4250 C.ar   94  HIS94       0.1154
    151  CE1      -16.7990    8.8120  302.8060 C.ar   94  HIS94       0.1986
    152  NE2      -16.8510    7.6160  303.3650 N.ar   94  HIS94      -0.2212
    153  N        -16.0650    2.3720  293.4570 N.3    99  ARG99      -0.1245
    154  CA       -16.5760    1.0060  293.4820 C.3    99  ARG99       0.1563
    155  C        -17.3410    0.6910  292.2000 C.2    99  ARG99       0.2260
    156  O        -17.9690    1.5700  291.6120 O.2    99  ARG99      -0.2867
    157  CB       -17.4730    0.8050  294.7110 C.3    99  ARG99       0.0307
    158  CG       -17.6020   -0.6350  295.1760 C.3    99  ARG99       0.0489
    159  CD       -18.5120   -0.7530  296.3980 C.3    99  ARG99       0.2205
    160  NE       -17.9500   -0.1260  297.5910 N.pl3  99  ARG99      -0.0865
    161  CZ       -17.2950   -0.7850  298.5440 C.cat  99  ARG99       0.5346
    162  NH1      -17.1160   -2.0960  298.4410 N.pl3  99  ARG99       0.1354
    163  NH2      -16.8180   -0.1340  299.5990 N.pl3  99  ARG99       0.1354
    164  N        -24.7730   -5.9710  307.5520 N.3   114  LEU114     -0.1245
    165  CA       -23.4530   -5.7850  308.1480 C.3   114  LEU114      0.1561
    166  C        -23.5890   -5.3150  309.5890 C.2   114  LEU114      0.2260
    167  O        -22.8050   -5.7000  310.4580 O.2   114  LEU114     -0.2867
    168  CB       -22.6180   -4.7830  307.3580 C.3   114  LEU114      0.0270
    169  CG       -21.2510   -4.5690  308.0030 C.3   114  LEU114      0.0019
    170  CD1      -20.4740   -5.8720  307.9700 C.3   114  LEU114      0.0001
    171  CD2      -20.4800   -3.4480  307.3370 C.3   114  LEU114      0.0001
@<TRIPOS>BOND
     1   156   155    2
     2   155   154    1
     3   153   154    1
     4   154   157    1
     5   157   158    1
     6   158   159    1
     7   159   160    1
     8   160   161    2
     9   146   145    2
    10   145   144    1
    11   162   161    1
    12   161   163    1
    13   144   147    1
    14   144   143    1
    15   147   148    1
    16   125   126    1
    17   127   128    2
    18   127   126    1
    19   148   149   ar
    20   148   150   ar
    21   126   129    1
    22   149   151   ar
    23   150   152   ar
    24   132   133    1
    25   151   152   ar
    26   129   130    1
    27   129   131    1
    28   134   133    1
    29   134   135    2
    30    19    18   ar
    31    19    17   ar
    32   133   136    1
    33    18    16   ar
    34    17    15   ar
    35    16    14   ar
    36    15    14   ar
    37    14    13    1
    38   136   137    1
    39    13    10    1
    40    71    69    1
    41   137   138    1
    42    69    66    1
    43    69    70    1
    44    64    63   ar
    45    64    62   ar
    46    68    67    2
    47    57    56    2
    48    63    61   ar
    49    66    67    1
    50    66    65    1
    51    10     9    1
    52    10    11    1
    53    62    60   ar
    54    67    72   am
    55    61    59   ar
    56    56    65   am
    57    56    55    1
    58   138   139    1
    59     9     7   am
    60    26    24    1
    61   171   169    1
    62   168   169    1
    63   168   165    1
    64    60    59   ar
    65    11    20   am
    66    11    12    2
    67   164   165    1
    68   101   102    1
    69   139   140    2
    70    59    58    1
    71    20    21    1
    72    72    73    1
    73    75    74    2
    74   170   169    1
    75   105   102    1
    76   105   106    1
    77    74    73    1
    78   165   166    1
    79    55    58    1
    80    55    54    1
    81     7     8    2
    82     7     6    1
    83   140   141    1
    84   140   142    1
    85   102   103    1
    86    21    24    1
    87    21    22    1
    88    24    25    1
    89   124   122   am
    90   103   104    2
    91     6     5    1
    92   106   107    1
    93   166   167    2
    94   122   123    2
    95   122   121    1
    96    22    27   am
    97    22    23    2
    98    27    28    1
    99   107   108    1
   100   121   118    1
   101   109   108    1
   102   115   114    1
   103    28    29    1
   104   114   116    1
   105   114   111    1
   106    49    48    2
   107    52    51    2
   108   110   111    1
   109   117   118    1
   110   117   112   am
   111    29    30    2
   112   118   119    1
   113    44    43   ar
   114    53    51   am
   115    48    47    1
   116    51    50    1
   117     4     3    2
   118   111   112    1
   119    45    43   ar
   120   112   113    2
   121    43    42    1
   122   119   120    2
   123    50    47    1
   124     3     2    1
   125    47    46    1
   126    46    40   am
   127     2     1    1
   128    93    91   ar
   129    42    39    1
   130    40    39    1
   131    40    41    2
   132    91    92   ar
   133    91    90    1
   134    39    38    1
   135   100    98    1
   136    90    87    1
   137    38    33   am
   138    34    33    2
   139    87    86    1
   140    87    88    1
   141    79    78    2
   142    94    88   am
   143    94    95    1
   144    33    32    1
   145    99    98    1
   146    98    95    1
   147    86    78   am
   148    88    89    2
   149    78    77    1
   150    95    96    1
   151    96    97    2
   152    76    77    1
   153    32    31    1
   154    32    35    1
   155    77    80    1
   156    36    35    1
   157    35    37    1
   158    80    81    1
   159    81    83   ar
   160    81    82   ar
   161    83    85   ar
   162    82    84   ar
   163    85    84   ar
