@<TRIPOS>MOLECULE
tmp/4m56B00.pdb
 159 151 0 0 0
SMALL
GASTEIGER

@<TRIPOS>ATOM
      1  N         18.2310   16.4980   55.0850 N.3    57  ASP57      -0.1239
      2  CA        19.5910   15.9370   55.2460 C.3    57  ASP57       0.1674
      3  C         20.4560   16.7590   56.2120 C.2    57  ASP57       0.2266
      4  O         21.6330   17.0090   55.9460 O.2    57  ASP57      -0.2867
      5  CB        20.2660   15.8650   53.8840 C.3    57  ASP57       0.1410
      6  CG        21.5490   15.0710   53.9040 C.2    57  ASP57       0.3668
      7  OD1       21.7750   14.2610   54.8440 O.co2  57  ASP57      -0.2456
      8  OD2       22.3330   15.2700   52.9410 O.co2  57  ASP57      -0.2456
      9  N         22.3870   19.8430   54.8370 N.3    60  TYR60      -0.1241
     10  CA        22.9390   19.7240   53.4900 C.3    60  TYR60       0.1605
     11  C         21.8570   19.8880   52.3970 C.2    60  TYR60       0.2264
     12  O         22.1300   19.6810   51.2150 O.2    60  TYR60      -0.2867
     13  CB        23.7450   18.4200   53.3520 C.3    60  TYR60       0.0534
     14  CG        25.0740   18.4700   54.0990 C.ar   60  TYR60      -0.0201
     15  CD1       26.1970   19.0470   53.5230 C.ar   60  TYR60      -0.0009
     16  CD2       25.2010   17.9600   55.3950 C.ar   60  TYR60      -0.0009
     17  CE1       27.3960   19.1000   54.1880 C.ar   60  TYR60       0.0417
     18  CE2       26.4130   18.0170   56.0700 C.ar   60  TYR60       0.0417
     19  CZ        27.5070   18.5910   55.4540 C.ar   60  TYR60       0.1957
     20  OH        28.7130   18.6570   56.1150 O.3    60  TYR60      -0.2866
     21  N         23.5410   20.9100   44.9770 N.3   100  HIS100     -0.1241
     22  CA        22.0840   20.9200   45.0990 C.3   100  HIS100      0.1621
     23  C         21.6480   21.9430   46.1250 C.2   100  HIS100      0.2264
     24  O         22.4380   22.4070   46.9410 O.2   100  HIS100     -0.2867
     25  CB        21.5650   19.5510   45.5180 C.3   100  HIS100      0.0745
     26  CG        22.3370   18.9500   46.6360 C.ar  100  HIS100      0.0817
     27  ND1       23.3620   18.0600   46.4190 N.ar  100  HIS100     -0.2268
     28  CD2       22.2810   19.1480   47.9720 C.ar  100  HIS100      0.1154
     29  CE1       23.8960   17.7160   47.5770 C.ar  100  HIS100      0.1986
     30  NE2       23.2590   18.3610   48.5360 N.ar  100  HIS100     -0.2212
     31  N         21.9570    8.3750   45.6240 N.3   141  ILE141     -0.1231
     32  CA        22.8670    7.8540   46.6170 C.3   141  ILE141      0.1692
     33  C         22.0330    7.4350   47.8380 C.2   141  ILE141      0.2592
     34  O         22.3720    6.4850   48.5230 O.2   141  ILE141     -0.2718
     35  CB        23.9930    8.8640   46.9980 C.3   141  ILE141      0.0266
     36  CG1       25.0890    8.9450   45.9360 C.3   141  ILE141      0.0019
     37  CG2       24.7360    8.3900   48.2460 C.3   141  ILE141      0.0020
     38  CD1       24.6620    9.4260   44.5690 C.3   141  ILE141      0.0001
     39  N         20.9140    8.1110   48.0760 N.am  142  PHE142     -0.1976
     40  CA        19.9720    7.7320   49.1380 C.3   142  PHE142      0.1639
     41  C         18.7950    6.8390   48.7000 C.2   142  PHE142      0.2290
     42  O         17.7020    6.9550   49.2370 O.2   142  PHE142     -0.2864
     43  CB        19.4430    9.0080   49.8180 C.3   142  PHE142      0.0560
     44  CG        20.5190    9.8530   50.4560 C.ar  142  PHE142     -0.0200
     45  CD1       21.6110    9.2730   51.0510 C.ar  142  PHE142     -0.0042
     46  CD2       20.4070   11.2380   50.4840 C.ar  142  PHE142     -0.0042
     47  CE1       22.5770   10.0500   51.6480 C.ar  142  PHE142     -0.0003
     48  CE2       21.3860   12.0190   51.0780 C.ar  142  PHE142     -0.0003
     49  CZ        22.4720   11.4220   51.6610 C.ar  142  PHE142     -0.0000
     50  N         20.8970   13.0120   45.4280 N.3   161  PHE161     -0.1241
     51  CA        20.5910   12.6690   46.8050 C.3   161  PHE161      0.1605
     52  C         19.1010   12.5970   47.0880 C.2   161  PHE161      0.2264
     53  O         18.3760   11.9420   46.3280 O.2   161  PHE161     -0.2867
     54  CB        21.4030   13.5880   47.7070 C.3   161  PHE161      0.0534
     55  CG        22.8680   13.4900   47.4120 C.ar  161  PHE161     -0.0203
     56  CD1       23.6120   12.4050   47.8880 C.ar  161  PHE161     -0.0042
     57  CD2       23.4810   14.4010   46.5640 C.ar  161  PHE161     -0.0042
     58  CE1       24.9380   12.2720   47.5510 C.ar  161  PHE161     -0.0003
     59  CE2       24.8240   14.2700   46.2250 C.ar  161  PHE161     -0.0003
     60  CZ        25.5510   13.2060   46.7200 C.ar  161  PHE161     -0.0000
     61  N         16.4390   17.5060   47.5760 N.3   165  GLN165     -0.1245
     62  CA        17.7310   18.0880   47.2400 C.3   165  GLN165      0.1566
     63  C         17.8900   18.1140   45.7390 C.2   165  GLN165      0.2260
     64  O         18.7080   17.3680   45.1900 O.2   165  GLN165     -0.2867
     65  CB        18.8490   17.2530   47.8650 C.3   165  GLN165      0.0367
     66  CG        19.0070   17.4390   49.3590 C.3   165  GLN165      0.0905
     67  CD        19.8980   16.3650   50.0020 C.2   165  GLN165      0.2608
     68  OE1       19.5940   15.1710   49.9530 O.2   165  GLN165     -0.2717
     69  NE2       20.9820   16.8040   50.6420 N.am  165  GLN165     -0.0878
     70  N         30.9660   20.4770   49.5810 N.3   197  ASP197     -0.1225
     71  CA        30.1780   19.2560   49.6030 C.3   197  ASP197      0.1805
     72  C         29.9650   18.6740   48.1850 C.2   197  ASP197      0.2597
     73  O         29.5890   19.3810   47.2550 O.2   197  ASP197     -0.2718
     74  CB        28.8300   19.5500   50.2580 C.3   197  ASP197      0.1424
     75  CG        27.9770   18.3080   50.4810 C.2   197  ASP197      0.3668
     76  OD1       28.4080   17.3720   51.2190 O.co2 197  ASP197     -0.2456
     77  OD2       26.8390   18.2800   49.9510 O.co2 197  ASP197     -0.2456
     78  N         30.1920   17.3580   48.1030 N.am  198  VAL198     -0.1980
     79  CA        30.2080   16.5340   46.8930 C.3   198  VAL198      0.1595
     80  C         30.5430   17.3050   45.6120 C.2   198  VAL198      0.2287
     81  O         29.7850   17.2890   44.6280 O.2   198  VAL198     -0.2864
     82  CB        28.9250   15.7230   46.7670 C.3   198  VAL198      0.0276
     83  CG1       28.9070   14.6240   47.8090 C.3   198  VAL198      0.0022
     84  CG2       27.7090   16.6230   46.9360 C.3   198  VAL198      0.0022
     85  N         35.1620   17.9480   49.0000 N.3   250  GLU250     -0.1245
     86  CA        34.7070   16.5910   49.2120 C.3   250  GLU250      0.1567
     87  C         34.5880   16.0060   47.8160 C.2   250  GLU250      0.2260
     88  O         33.5650   16.1400   47.1610 O.2   250  GLU250     -0.2867
     89  CB        33.3530   16.5090   49.9150 C.3   250  GLU250      0.0388
     90  CG        32.9120   15.0540   50.1610 C.3   250  GLU250      0.1160
     91  CD        31.5150   14.8910   50.7360 C.2   250  GLU250      0.3649
     92  OE1       30.6570   15.7940   50.5940 O.co2 250  GLU250     -0.2457
     93  OE2       31.2800   13.8130   51.3440 O.co2 250  GLU250     -0.2457
     94  N         33.9030   13.2070   45.9810 N.3   252  ASN252     -0.1240
     95  CA        33.2730   11.8990   45.6730 C.3   252  ASN252      0.1653
     96  C         33.7240   11.3940   44.3120 C.2   252  ASN252      0.2266
     97  O         33.8680   12.1580   43.3940 O.2   252  ASN252     -0.2867
     98  CB        31.7220   11.9640   45.7400 C.3   252  ASN252      0.1155
     99  CG        31.1430   13.1560   44.9880 C.2   252  ASN252      0.2627
    100  OD1       31.5980   14.2730   45.1140 O.2   252  ASN252     -0.2716
    101  ND2       30.1440   12.9120   44.2040 N.am  252  ASN252     -0.0877
    102  N         37.4080    9.0550   49.1210 N.3   276  PHE276     -0.1241
    103  CA        36.6660    7.9820   49.7830 C.3   276  PHE276      0.1605
    104  C         37.3530    6.6400   49.6550 C.2   276  PHE276      0.2264
    105  O         36.9090    5.6570   50.2370 O.2   276  PHE276     -0.2867
    106  CB        35.2390    7.8610   49.2090 C.3   276  PHE276      0.0534
    107  CG        34.3440    8.9790   49.6160 C.ar  276  PHE276     -0.0203
    108  CD1       34.4460   10.2150   48.9970 C.ar  276  PHE276     -0.0042
    109  CD2       33.4330    8.8190   50.6270 C.ar  276  PHE276     -0.0042
    110  CE1       33.6240   11.2730   49.3670 C.ar  276  PHE276     -0.0003
    111  CE2       32.6050    9.8750   51.0240 C.ar  276  PHE276     -0.0003
    112  CZ        32.7010   11.1050   50.3890 C.ar  276  PHE276     -0.0000
    113  N         27.3360    0.4880   50.2980 N.3   291  LYS291     -0.1245
    114  CA        28.1200    0.6060   51.5300 C.3   291  LYS291      0.1561
    115  C         27.7250   -0.3580   52.6500 C.2   291  LYS291      0.2260
    116  O         28.5430   -0.6620   53.5250 O.2   291  LYS291     -0.2867
    117  CB        28.0300    2.0400   52.0430 C.3   291  LYS291      0.0271
    118  CG        26.6420    2.4500   52.4820 C.3   291  LYS291      0.0035
    119  CD        26.5480    3.9390   52.7410 C.3   291  LYS291      0.0206
    120  CE        27.1580    4.3260   54.0720 C.3   291  LYS291      0.1093
    121  NZ        26.7860    5.7030   54.4740 N.3   291  LYS291     -0.1314
    122  N         31.2270   13.4060   59.7280 N.3   326  HIS326     -0.1226
    123  CA        29.7890   13.2480   59.9540 C.3   326  HIS326      0.1752
    124  C         29.1250   12.2120   59.0540 C.2   326  HIS326      0.2596
    125  O         27.9640   11.8910   59.2490 O.2   326  HIS326     -0.2718
    126  CB        29.1110   14.6050   59.8140 C.3   326  HIS326      0.0759
    127  CG        29.0720   15.1140   58.4180 C.ar  326  HIS326      0.0818
    128  ND1       30.1930   15.5410   57.7370 N.ar  326  HIS326     -0.2268
    129  CD2       28.0310   15.2940   57.5770 C.ar  326  HIS326      0.1154
    130  CE1       29.8460   15.9220   56.5220 C.ar  326  HIS326      0.1986
    131  NE2       28.5370   15.7930   56.4000 N.ar  326  HIS326     -0.2212
    132  N         29.8710   11.6790   58.0890 N.am  327  ASP327     -0.1974
    133  CA        29.3730   10.6440   57.1820 C.3   327  ASP327      0.1709
    134  C         29.9690    9.2630   57.4510 C.2   327  ASP327      0.2293
    135  O         29.6590    8.2960   56.7420 O.2   327  ASP327     -0.2864
    136  CB        29.6780   11.0300   55.7280 C.3   327  ASP327      0.1436
    137  CG        28.9710   12.2940   55.2960 C.2   327  ASP327      0.3671
    138  OD1       27.7760   12.5090   55.6690 O.co2 327  ASP327     -0.2456
    139  OD2       29.6040   13.0450   54.5180 O.co2 327  ASP327     -0.2456
    140  N         19.1140    8.3900   55.0370 N.3   384  GLU384     -0.1245
    141  CA        19.8210    7.3410   54.3380 C.3   384  GLU384      0.1567
    142  C         19.4830    5.9280   54.8690 C.2   384  GLU384      0.2260
    143  O         19.3620    5.0140   54.0600 O.2   384  GLU384     -0.2867
    144  CB        21.3360    7.5760   54.3900 C.3   384  GLU384      0.0388
    145  CG        22.1410    6.5410   53.6060 C.3   384  GLU384      0.1160
    146  CD        23.6360    6.6390   53.8590 C.2   384  GLU384      0.3649
    147  OE1       24.0670    6.4660   55.0330 O.co2 384  GLU384     -0.2457
    148  OE2       24.3890    6.8360   52.8440 O.co2 384  GLU384     -0.2457
    149  N         25.7760    6.5970   59.5590 N.3   413  ARG413     -0.1245
    150  CA        26.2930    7.9490   59.7720 C.3   413  ARG413      0.1563
    151  C         25.9750    8.5080   61.1770 C.2   413  ARG413      0.2260
    152  O         26.7150    9.3320   61.7430 O.2   413  ARG413     -0.2867
    153  CB        25.7680    8.9180   58.7080 C.3   413  ARG413      0.0307
    154  CG        26.1230    8.5230   57.2770 C.3   413  ARG413      0.0489
    155  CD        25.9740    9.6470   56.2490 C.3   413  ARG413      0.2205
    156  NE        24.5790   10.0690   56.0460 N.pl3 413  ARG413     -0.0865
    157  CZ        24.1980   11.0880   55.2710 C.cat 413  ARG413      0.5346
    158  NH1       22.9250   11.4060   55.1940 N.pl3 413  ARG413      0.1354
    159  NH2       25.0870   11.8090   54.5870 N.pl3 413  ARG413      0.1354
@<TRIPOS>BOND
     1    97    96    2
     2   101    99   am
     3    96    95    1
     4    38    36    1
     5    81    80    2
     6    21    22    1
     7    99   100    2
     8    99    98    1
     9    22    25    1
    10    22    23    1
    11    64    63    2
    12    50    51    1
    13    25    26    1
    14    80    79    1
    15    31    32    1
    16    95    98    1
    17    95    94    1
    18    63    62    1
    19    36    35    1
    20    23    24    2
    21    59    57   ar
    22    59    60   ar
    23    53    52    2
    24    27    26   ar
    25    27    29   ar
    26    57    55   ar
    27    32    35    1
    28    32    33    1
    29    26    28   ar
    30    60    58   ar
    31    82    79    1
    32    82    84    1
    33    82    83    1
    34    51    52    1
    35    51    54    1
    36    79    78    1
    37    35    37    1
    38    88    87    2
    39    62    61    1
    40    62    65    1
    41    73    72    2
    42    55    54    1
    43    55    56   ar
    44    58    56   ar
    45    29    30   ar
    46    87    86    1
    47    33    39   am
    48    33    34    2
    49    65    66    1
    50    28    30   ar
    51    39    40    1
    52    78    72   am
    53    72    71    1
    54    41    40    1
    55    41    42    2
    56   108   110   ar
    57   108   107   ar
    58    85    86    1
    59   102   103    1
    60    40    43    1
    61   106   107    1
    62   106   103    1
    63    86    89    1
    64    66    67    1
    65   110   112   ar
    66    70    71    1
    67    71    74    1
    68   107   109   ar
    69   104   103    1
    70   104   105    2
    71    43    44    1
    72    89    90    1
    73    77    75   ar
    74    68    67    2
    75    67    69   am
    76    90    91    1
    77    74    75    1
    78   113   114    1
    79   112   111   ar
    80    44    46   ar
    81    44    45   ar
    82    75    76   ar
    83    46    48   ar
    84    92    91   ar
    85   109   111   ar
    86    91    93   ar
    87    45    47   ar
    88    48    49   ar
    89    12    11    2
    90   114   117    1
    91   114   115    1
    92    47    49   ar
    93   117   118    1
    94    11    10    1
    95   118   119    1
    96   115   116    2
    97   119   120    1
    98   148   146   ar
    99     8     6   ar
   100    13    10    1
   101    13    14    1
   102    10     9    1
   103    15    14   ar
   104    15    17   ar
   105   145   146    1
   106   145   144    1
   107   146   147   ar
   108     5     6    1
   109     5     2    1
   110     6     7   ar
   111   143   142    2
   112   120   121    1
   113    14    16   ar
   114    17    19   ar
   115   141   144    1
   116   141   142    1
   117   141   140    1
   118   139   137   ar
   119   159   157    1
   120     1     2    1
   121   158   157    1
   122     2     3    1
   123   157   156    2
   124   137   138   ar
   125   137   136    1
   126    16    18   ar
   127    19    18   ar
   128    19    20    1
   129   136   133    1
   130     4     3    2
   131   156   155    1
   132   155   154    1
   133   131   130   ar
   134   131   129   ar
   135   130   128   ar
   136   135   134    2
   137   133   134    1
   138   133   132    1
   139   154   153    1
   140   129   127   ar
   141   128   127   ar
   142   132   124   am
   143   127   126    1
   144   153   150    1
   145   124   125    2
   146   124   123    1
   147   149   150    1
   148   122   123    1
   149   150   151    1
   150   126   123    1
   151   151   152    2
