@<TRIPOS>MOLECULE
tmp/4m5aA01.pdb
 121 116 0 0 0
SMALL
GASTEIGER

@<TRIPOS>ATOM
      1  N         27.7650    9.1330    0.7010 N.3    69  VAL69      -0.1231
      2  CA        26.4390    9.4420    1.2570 C.3    69  VAL69       0.1692
      3  C         25.3700    8.4320    0.8120 C.2    69  VAL69       0.2592
      4  O         24.1880    8.7750    0.7250 O.2    69  VAL69      -0.2718
      5  CB        25.9730   10.8880    0.9350 C.3    69  VAL69       0.0266
      6  CG1       25.1260   11.4330    2.0800 C.3    69  VAL69       0.0020
      7  CG2       27.1570   11.8220    0.6940 C.3    69  VAL69       0.0020
      8  N         25.7870    7.1990    0.5300 N.am   70  TYR70      -0.1962
      9  CA        24.8560    6.1340    0.1570 C.3    70  TYR70       0.1771
     10  C         24.2930    5.5210    1.4280 C.2    70  TYR70       0.2619
     11  O         25.0400    5.1270    2.3230 O.2    70  TYR70      -0.2715
     12  CB        25.5520    5.0300   -0.6470 C.3    70  TYR70       0.0574
     13  CG        25.9010    5.3470   -2.0960 C.ar   70  TYR70      -0.0198
     14  CD1       26.3590    4.3390   -2.9350 C.ar   70  TYR70      -0.0009
     15  CD2       25.7890    6.6380   -2.6260 C.ar   70  TYR70      -0.0009
     16  CE1       26.6890    4.5920   -4.2570 C.ar   70  TYR70       0.0417
     17  CE2       26.1180    6.9000   -3.9510 C.ar   70  TYR70       0.0417
     18  CZ        26.5650    5.8720   -4.7610 C.ar   70  TYR70       0.1957
     19  OH        26.8950    6.1220   -6.0770 O.3    70  TYR70      -0.2866
     20  N         22.9700    5.4380    1.5040 N.am   71  ILE71      -0.1963
     21  CA        22.3290    4.6770    2.5640 C.3    71  ILE71       0.1727
     22  C         22.5970    3.1940    2.3080 C.2    71  ILE71       0.2616
     23  O         22.4050    2.7070    1.1900 O.2    71  ILE71      -0.2715
     24  CB        20.8180    4.9700    2.6380 C.3    71  ILE71       0.0290
     25  CG1       20.6060    6.4020    3.1410 C.3    71  ILE71       0.0022
     26  CG2       20.1210    3.9950    3.5790 C.3    71  ILE71       0.0023
     27  CD1       19.2000    6.9380    2.9730 C.3    71  ILE71       0.0001
     28  N         23.0790    2.5090    3.3430 N.am   72  MET72      -0.1977
     29  CA        23.3810    1.0740    3.3040 C.3    72  MET72       0.1605
     30  C         22.2350    0.2270    3.8450 C.2    72  MET72       0.2287
     31  O         21.9690   -0.8650    3.3460 O.2    72  MET72      -0.2864
     32  CB        24.6130    0.7710    4.1650 C.3    72  MET72       0.0413
     33  CG        25.9090    1.4290    3.7160 C.3    72  MET72       0.0598
     34  SD        26.5600    0.7260    2.1930 S.3    72  MET72      -0.1393
     35  CE        25.7740    1.7500    0.9540 C.3    72  MET72       0.0692
     36  N         20.3610   -3.1180    1.9010 N.3    83  PHE83      -0.1241
     37  CA        20.2090   -3.2760    0.4560 C.3    83  PHE83       0.1605
     38  C         20.9160   -4.5320   -0.0260 C.2    83  PHE83       0.2264
     39  O         21.8960   -4.9710    0.5730 O.2    83  PHE83      -0.2867
     40  CB        20.7500   -2.0580   -0.2960 C.3    83  PHE83       0.0534
     41  CG        19.8470   -0.8590   -0.2290 C.ar   83  PHE83      -0.0203
     42  CD1       18.5560   -0.9290   -0.7320 C.ar   83  PHE83      -0.0042
     43  CD2       20.2800    0.3360    0.3370 C.ar   83  PHE83      -0.0042
     44  CE1       17.7150    0.1650   -0.6710 C.ar   83  PHE83      -0.0003
     45  CE2       19.4410    1.4380    0.3980 C.ar   83  PHE83      -0.0003
     46  CZ        18.1550    1.3500   -0.1130 C.ar   83  PHE83      -0.0000
     47  N         23.3040   -5.6100   -2.0550 N.3    85  GLU85      -0.1245
     48  CA        24.4800   -5.1900   -2.8010 C.3    85  GLU85       0.1567
     49  C         25.6890   -5.3620   -1.8980 C.2    85  GLU85       0.2260
     50  O         25.5650   -5.3250   -0.6740 O.2    85  GLU85      -0.2867
     51  CB        24.3470   -3.7320   -3.2400 C.3    85  GLU85       0.0388
     52  CG        24.0930   -2.7610   -2.0990 C.3    85  GLU85       0.1160
     53  CD        23.4900   -1.4530   -2.5720 C.2    85  GLU85       0.3649
     54  OE1       23.4490   -1.2240   -3.7990 O.co2  85  GLU85      -0.2457
     55  OE2       23.0580   -0.6520   -1.7160 O.co2  85  GLU85      -0.2457
     56  N         20.1960   -0.4570   -3.7820 N.3   109  GLY109     -0.1210
     57  CA        19.8020    0.9060   -3.4840 C.3   109  GLY109      0.1956
     58  C         19.8240    1.8640   -4.6550 C.2   109  GLY109      0.2612
     59  O         19.5610    3.0510   -4.4770 O.2   109  GLY109     -0.2717
     60  N         20.1290    1.4020   -5.8620 N.am  110  ASN110     -0.1960
     61  CA        20.1340    2.3620   -6.9570 C.3   110  ASN110      0.1819
     62  C         18.7290    2.7350   -7.4010 C.2   110  ASN110      0.2621
     63  O         17.7810    1.9490   -7.2980 O.2   110  ASN110     -0.2715
     64  CB        20.9960    1.9350   -8.1280 C.3   110  ASN110      0.1195
     65  CG        20.4230    0.7720   -8.8720 C.2   110  ASN110      0.2630
     66  OD1       19.6820    0.9360   -9.8470 O.2   110  ASN110     -0.2716
     67  ND2       20.7620   -0.4210   -8.4240 N.am  110  ASN110     -0.0877
     68  N         18.6150    3.9630   -7.8790 N.am  111  TYR111     -0.1974
     69  CA        17.3210    4.5580   -8.1400 C.3   111  TYR111      0.1639
     70  C         16.4600    3.7380   -9.0750 C.2   111  TYR111      0.2290
     71  O         15.2600    3.6160   -8.8580 O.2   111  TYR111     -0.2864
     72  CB        17.4940    5.9510   -8.7260 C.3   111  TYR111      0.0560
     73  CG        17.6560    7.0520   -7.7070 C.ar  111  TYR111     -0.0198
     74  CD1       16.9360    7.0480   -6.5110 C.ar  111  TYR111     -0.0009
     75  CD2       18.4860    8.1310   -7.9640 C.ar  111  TYR111     -0.0009
     76  CE1       17.0640    8.0760   -5.5960 C.ar  111  TYR111      0.0417
     77  CE2       18.6190    9.1630   -7.0540 C.ar  111  TYR111      0.0417
     78  CZ        17.9050    9.1320   -5.8720 C.ar  111  TYR111      0.1957
     79  OH        18.0310   10.1520   -4.9600 O.3   111  TYR111     -0.2866
     80  N         16.0220    8.7870    0.8050 N.3   155  ILE155     -0.1245
     81  CA        17.2700    9.1470    0.1160 C.3   155  ILE155      0.1561
     82  C         17.2650   10.6160   -0.3180 C.2   155  ILE155      0.2260
     83  O         18.2580   11.3290   -0.1350 O.2   155  ILE155     -0.2867
     84  CB        17.5310    8.2190   -1.0930 C.3   155  ILE155      0.0252
     85  CG1       17.8750    6.8090   -0.6010 C.3   155  ILE155      0.0019
     86  CG2       18.6550    8.7570   -1.9800 C.3   155  ILE155      0.0019
     87  CD1       17.5670    5.7310   -1.6130 C.3   155  ILE155      0.0001
     88  N         20.1750   12.3460    2.0130 N.3   159  ALA159     -0.1231
     89  CA        21.4050   12.3430    1.2180 C.3   159  ALA159      0.1694
     90  C         21.4120   13.3810    0.0950 C.2   159  ALA159      0.2591
     91  O         22.3840   14.1250   -0.0430 O.2   159  ALA159     -0.2718
     92  CB        21.6720   10.9530    0.6610 C.3   159  ALA159      0.0304
     93  N         20.3380   13.4780   -0.6880 N.am  160  GLU160     -0.1979
     94  CA        20.3660   14.4090   -1.8280 C.3   160  GLU160      0.1602
     95  C         20.3380   15.8600   -1.3580 C.2   160  GLU160      0.2287
     96  O         20.9790   16.7290   -1.9540 O.2   160  GLU160     -0.2864
     97  CB        19.2230   14.1450   -2.8200 C.3   160  GLU160      0.0415
     98  CG        19.1980   12.7330   -3.3770 C.3   160  GLU160      0.1163
     99  CD        20.3050   12.4350   -4.3730 C.2   160  GLU160      0.3649
    100  OE1       21.2940   13.1980   -4.4620 O.co2 160  GLU160     -0.2457
    101  OE2       20.1780   11.4160   -5.0780 O.co2 160  GLU160     -0.2457
    102  N         23.7400   16.9160   -0.3480 N.3   163  ARG163     -0.1245
    103  CA        24.6150   17.1990   -1.4870 C.3   163  ARG163      0.1563
    104  C         24.3460   18.5030   -2.2030 C.2   163  ARG163      0.2260
    105  O         25.2730   19.0780   -2.7720 O.2   163  ARG163     -0.2867
    106  CB        24.5080   16.0960   -2.5210 C.3   163  ARG163      0.0307
    107  CG        25.0610   14.7780   -2.0510 C.3   163  ARG163      0.0489
    108  CD        24.5070   13.7180   -2.9530 C.3   163  ARG163      0.2205
    109  NE        25.0080   12.3940   -2.6310 N.pl3 163  ARG163     -0.0865
    110  CZ        24.2830   11.2940   -2.7400 C.cat 163  ARG163      0.5346
    111  NH1       23.0200   11.3930   -3.1330 N.pl3 163  ARG163      0.1354
    112  NH2       24.8150   10.1160   -2.4420 N.pl3 163  ARG163      0.1354
    113  N         20.2540   15.2310   -8.8350 N.3   189  GLU189     -0.1245
    114  CA        20.4690   13.8980   -8.2590 C.3   189  GLU189      0.1567
    115  C         21.2270   13.0150   -9.2260 C.2   189  GLU189      0.2260
    116  O         22.1850   12.3350   -8.8620 O.2   189  GLU189     -0.2867
    117  CB        19.1350   13.2240   -7.9260 C.3   189  GLU189      0.0388
    118  CG        18.3510   13.9270   -6.8320 C.3   189  GLU189      0.1160
    119  CD        16.9480   13.3800   -6.6570 C.2   189  GLU189      0.3649
    120  OE1       16.5210   12.5390   -7.4740 O.co2 189  GLU189     -0.2457
    121  OE2       16.2700   13.8090   -5.6990 O.co2 189  GLU189     -0.2457
@<TRIPOS>BOND
     1    66    65    2
     2   115   116    2
     3   115   114    1
     4    70    71    2
     5    70    69    1
     6    65    67   am
     7    65    64    1
     8   113   114    1
     9    72    69    1
    10    72    73    1
    11   114   117    1
    12    69    68    1
    13    64    61    1
    14    75    73   ar
    15    75    77   ar
    16   117   118    1
    17    68    62   am
    18    73    74   ar
    19   120   119   ar
    20    62    63    2
    21    62    61    1
    22    77    78   ar
    23    61    60    1
    24   118   119    1
    25   119   121   ar
    26    74    76   ar
    27    19    18    1
    28    78    76   ar
    29    78    79    1
    30    60    58   am
    31   101    99   ar
    32    18    16   ar
    33    18    17   ar
    34    58    59    2
    35    58    57    1
    36   100    99   ar
    37    99    98    1
    38    16    14   ar
    39    17    15   ar
    40    54    53   ar
    41    56    57    1
    42    98    97    1
    43    51    48    1
    44    51    52    1
    45   111   110    1
    46   108   109    1
    47   108   107    1
    48    14    13   ar
    49    97    94    1
    50    48    47    1
    51    48    49    1
    52   105   104    2
    53   110   109    2
    54   110   112    1
    55    15    13   ar
    56    53    52    1
    57    53    55   ar
    58   106   107    1
    59   106   103    1
    60   104   103    1
    61    13    12    1
    62    86    84    1
    63    96    95    2
    64    49    50    2
    65    94    95    1
    66    94    93    1
    67    87    85    1
    68   103   102    1
    69    84    85    1
    70    84    81    1
    71    42    44   ar
    72    42    41   ar
    73    93    90   am
    74    44    46   ar
    75    12     9    1
    76    82    83    2
    77    82    81    1
    78    40    41    1
    79    40    37    1
    80    41    43   ar
    81    46    45   ar
    82    91    90    2
    83    38    37    1
    84    38    39    2
    85    90    89    1
    86    81    80    1
    87     9     8    1
    88     9    10    1
    89    43    45   ar
    90    37    36    1
    91     8     3   am
    92    92    89    1
    93     7     5    1
    94     1     2    1
    95     4     3    2
    96     3     2    1
    97     5     2    1
    98     5     6    1
    99    35    34    1
   100    23    22    2
   101    89    88    1
   102    10    20   am
   103    10    11    2
   104    20    21    1
   105    34    33    1
   106    22    21    1
   107    22    28   am
   108    21    24    1
   109    24    25    1
   110    24    26    1
   111    27    25    1
   112    29    28    1
   113    29    30    1
   114    29    32    1
   115    31    30    2
   116    33    32    1
