@<TRIPOS>MOLECULE
tmp/4m5bA02.pdb
 68 61 0 0 0
SMALL
GASTEIGER

@<TRIPOS>ATOM
      1  N        106.2000   96.5490   13.9950 N.3    28  ALA28      -0.1245
      2  CA       106.6090   95.7450   12.8410 C.3    28  ALA28       0.1562
      3  C        107.1310   94.3790   13.2560 C.2    28  ALA28       0.2260
      4  O        106.8060   93.3540   12.6420 O.2    28  ALA28      -0.2867
      5  CB       107.6710   96.4810   12.0330 C.3    28  ALA28       0.0290
      6  N        104.1590   92.2180   14.6990 N.3    31  VAL31      -0.1231
      7  CA       103.2830   91.7640   13.6230 C.3    31  VAL31       0.1692
      8  C        103.9440   90.6900   12.7650 C.2    31  VAL31       0.2592
      9  O        103.3100   89.6960   12.4030 O.2    31  VAL31      -0.2718
     10  CB       102.8080   92.9590   12.7550 C.3    31  VAL31       0.0266
     11  CG1      102.2410   92.4820   11.4260 C.3    31  VAL31       0.0020
     12  CG2      101.7810   93.7810   13.5290 C.3    31  VAL31       0.0020
     13  N        105.2240   90.8770   12.4590 N.am   32  ASN32      -0.1974
     14  CA       105.9720   89.8980   11.6730 C.3    32  ASN32       0.1688
     15  C        106.0190   88.5200   12.3340 C.2    32  ASN32       0.2292
     16  O        106.0500   87.4920   11.6570 O.2    32  ASN32      -0.2864
     17  CB       107.3900   90.4060   11.3990 C.3    32  ASN32       0.1181
     18  CG       108.2020   89.4420   10.5560 C.2    32  ASN32       0.2629
     19  OD1      108.0190   89.3530    9.3410 O.2    32  ASN32      -0.2716
     20  ND2      109.1110   88.7170   11.1970 N.am   32  ASN32      -0.0877
     21  N         96.8230   89.9050    6.4770 N.3    40  VAL40      -0.1245
     22  CA        97.1290   91.2300    5.9220 C.3    40  VAL40       0.1561
     23  C         95.9080   91.9960    5.3830 C.2    40  VAL40       0.2260
     24  O         95.7900   93.1890    5.6340 O.2    40  VAL40      -0.2867
     25  CB        98.2620   91.1830    4.8630 C.3    40  VAL40       0.0252
     26  CG1       98.5050   92.5840    4.2550 C.3    40  VAL40       0.0019
     27  CG2       99.5380   90.6480    5.4830 C.3    40  VAL40       0.0019
     28  N         94.2620   93.9820    8.0980 N.3    43  MET43      -0.1230
     29  CA        94.9840   95.2090    8.4570 C.3    43  MET43       0.1702
     30  C         94.7170   96.3140    7.4350 C.2    43  MET43       0.2592
     31  O         94.5950   97.4900    7.7880 O.2    43  MET43      -0.2718
     32  CB        96.4920   94.9610    8.5380 C.3    43  MET43       0.0401
     33  CG        96.9420   94.1450    9.7420 C.3    43  MET43       0.0596
     34  SD        98.7260   93.8880    9.7740 S.3    43  MET43      -0.1393
     35  CE        99.3330   95.5240   10.1450 C.3    43  MET43       0.0692
     36  N         94.6400   95.9280    6.1650 N.am   44  ALA44      -0.1980
     37  CA        94.4350   96.8960    5.0820 C.3    44  ALA44       0.1597
     38  C         93.0180   97.4600    5.1040 C.2    44  ALA44       0.2287
     39  O         92.8120   98.6530    4.9070 O.2    44  ALA44      -0.2864
     40  CB        94.7320   96.2420    3.7230 C.3    44  ALA44       0.0319
     41  N         92.7690   99.8050    7.9500 N.3    47  SER47      -0.1217
     42  CA        93.4220  101.0630    7.6030 C.3    47  SER47       0.1889
     43  C         92.5040  101.9240    6.7200 C.2    47  SER47       0.2288
     44  O         92.3710  103.1350    6.9290 O.2    47  SER47      -0.2866
     45  CB        94.7510  100.7730    6.8960 C.3    47  SER47       0.2089
     46  OG        95.4870  101.9560    6.6780 O.3    47  SER47      -0.2183
     47  N        100.0600  100.1700   13.1010 N.3    85  ILE85      -0.1231
     48  CA       100.5160  100.1780   11.7190 C.3    85  ILE85       0.1692
     49  C         99.4060  100.6070   10.7560 C.2    85  ILE85       0.2592
     50  O         99.6060  101.4930    9.9270 O.2    85  ILE85      -0.2718
     51  CB       101.1080   98.8230   11.3260 C.3    85  ILE85       0.0266
     52  CG1      102.4180   98.6140   12.0930 C.3    85  ILE85       0.0019
     53  CG2      101.3190   98.7590    9.8010 C.3    85  ILE85       0.0020
     54  CD1      102.9960   97.2190   11.9610 C.3    85  ILE85       0.0001
     55  N         98.2370   99.9880   10.8780 N.am   86  SER86      -0.1952
     56  CA        97.0830  100.3540   10.0570 C.3    86  SER86       0.1924
     57  C         96.7330  101.8420   10.1970 C.2    86  SER86       0.2314
     58  O         96.4810  102.5350    9.2080 O.2    86  SER86      -0.2863
     59  CB        95.8720   99.4910   10.4380 C.3    86  SER86       0.2116
     60  OG        96.0690   98.1490   10.0350 O.3    86  SER86      -0.2180
     61  N         99.4380  104.1000    8.5900 N.3    89  LEU89      -0.1245
     62  CA        99.2930  104.0850    7.1300 C.3    89  LEU89       0.1561
     63  C         98.2100  105.0760    6.6980 C.2    89  LEU89       0.2260
     64  O         98.4090  105.8600    5.7600 O.2    89  LEU89      -0.2867
     65  CB        98.9450  102.6790    6.6370 C.3    89  LEU89       0.0270
     66  CG        98.7680  102.5760    5.1190 C.3    89  LEU89       0.0019
     67  CD1      100.0070  103.0980    4.3800 C.3    89  LEU89       0.0001
     68  CD2       98.4380  101.1380    4.6970 C.3    89  LEU89       0.0001
@<TRIPOS>BOND
     1    40    37    1
     2    26    25    1
     3    67    66    1
     4    68    66    1
     5    25    27    1
     6    25    22    1
     7    39    38    2
     8    37    38    1
     9    37    36    1
    10    66    65    1
    11    23    24    2
    12    23    22    1
    13    64    63    2
    14    22    21    1
    15    36    30   am
    16    65    62    1
    17    46    45    1
    18    63    62    1
    19    43    44    2
    20    43    42    1
    21    45    42    1
    22    62    61    1
    23    30    31    2
    24    30    29    1
    25    42    41    1
    26    28    29    1
    27    29    32    1
    28    32    33    1
    29    58    57    2
    30    19    18    2
    31    33    34    1
    32    34    35    1
    33    53    51    1
    34    50    49    2
    35    60    59    1
    36    56    57    1
    37    56    59    1
    38    56    55    1
    39    18    20   am
    40    18    17    1
    41    49    55   am
    42    49    48    1
    43    51    48    1
    44    51    52    1
    45    17    14    1
    46    11    10    1
    47    16    15    2
    48    14    15    1
    49    14    13    1
    50    48    47    1
    51    54    52    1
    52     5     2    1
    53     9     8    2
    54    13     8   am
    55     4     3    2
    56    10    12    1
    57    10     7    1
    58     8     7    1
    59     2     3    1
    60     2     1    1
    61     7     6    1
