@<TRIPOS>MOLECULE
tmp/4m5bA15.pdb
 74 68 0 0 0
SMALL
GASTEIGER

@<TRIPOS>ATOM
      1  N         92.9310   92.0750    6.4350 N.3    42  ALA42      -0.1245
      2  CA        92.2570   92.6970    7.5820 C.3    42  ALA42       0.1562
      3  C         92.9300   93.9760    8.0530 C.2    42  ALA42       0.2260
      4  O         92.2480   94.9530    8.4030 O.2    42  ALA42      -0.2867
      5  CB        92.1370   91.7020    8.7510 C.3    42  ALA42       0.0290
      6  N         92.0400   96.5850    5.3120 N.3    45  ILE45      -0.1231
      7  CA        90.6450   96.9980    5.4310 C.3    45  ILE45       0.1692
      8  C         90.4650   97.9230    6.6420 C.2    45  ILE45       0.2592
      9  O         89.7710   98.9440    6.5650 O.2    45  ILE45      -0.2718
     10  CB        89.7250   95.7650    5.5470 C.3    45  ILE45       0.0266
     11  CG1       89.6510   95.0450    4.1910 C.3    45  ILE45       0.0019
     12  CG2       88.3340   96.1720    6.0030 C.3    45  ILE45       0.0020
     13  CD1       88.9610   93.6930    4.2570 C.3    45  ILE45       0.0001
     14  N         91.1030   97.5690    7.7530 N.am   46  GLY46      -0.1957
     15  CA        91.0720   98.4030    8.9440 C.3    46  GLY46       0.1869
     16  C         91.6630   99.7790    8.6850 C.2    46  GLY46       0.2309
     17  O         91.1400  100.8040    9.1360 O.2    46  GLY46      -0.2863
     18  N         89.2850  101.7680    6.5570 N.3    49  PHE49      -0.1241
     19  CA        88.1170  102.1550    7.3340 C.3    49  PHE49       0.1605
     20  C         88.4260  103.3610    8.2180 C.2    49  PHE49       0.2264
     21  O         87.6580  104.3250    8.2700 O.2    49  PHE49      -0.2867
     22  CB        87.6470  100.9770    8.1890 C.3    49  PHE49       0.0534
     23  CG        86.4050  101.2610    8.9800 C.ar   49  PHE49      -0.0203
     24  CD1       85.1760  101.3800    8.3450 C.ar   49  PHE49      -0.0042
     25  CD2       86.4630  101.4070   10.3560 C.ar   49  PHE49      -0.0042
     26  CE1       84.0280  101.6370    9.0720 C.ar   49  PHE49      -0.0003
     27  CE2       85.3210  101.6650   11.0890 C.ar   49  PHE49      -0.0003
     28  CZ        84.1020  101.7780   10.4500 C.ar   49  PHE49      -0.0000
     29  N         88.5890  100.1410   17.8580 N.3    73  LEU73      -0.1231
     30  CA        88.0380   99.1120   16.9870 C.3    73  LEU73       0.1693
     31  C         89.1650   98.2890   16.3820 C.2    73  LEU73       0.2591
     32  O         89.1300   97.0620   16.4180 O.2    73  LEU73      -0.2718
     33  CB        87.1830   99.7280   15.8760 C.3    73  LEU73       0.0284
     34  CG        86.6730   98.7190   14.8360 C.3    73  LEU73       0.0019
     35  CD1       85.8180   97.6320   15.4900 C.3    73  LEU73       0.0001
     36  CD2       85.8980   99.4300   13.7330 C.3    73  LEU73       0.0001
     37  N         90.1600   98.9680   15.8190 N.am   74  LEU74      -0.1980
     38  CA        91.3110   98.2790   15.2450 C.3    74  LEU74       0.1596
     39  C         92.1430   97.5520   16.2980 C.2    74  LEU74       0.2287
     40  O         92.6000   96.4370   16.0680 O.2    74  LEU74      -0.2864
     41  CB        92.1900   99.2550   14.4460 C.3    74  LEU74       0.0297
     42  CG        91.5700   99.8010   13.1570 C.3    74  LEU74       0.0022
     43  CD1       92.6530  100.3790   12.2420 C.3    74  LEU74       0.0001
     44  CD2       90.7840   98.7390   12.4530 C.3    74  LEU74       0.0001
     45  N         90.3620   94.3210   17.4140 N.3    77  THR77      -0.1203
     46  CA        90.2020   93.3140   16.3600 C.3    77  THR77       0.1994
     47  C         91.5360   92.8250   15.8010 C.2    77  THR77       0.2617
     48  O         91.7110   91.6370   15.5340 O.2    77  THR77      -0.2717
     49  CB        89.3200   93.8300   15.2020 C.3    77  THR77       0.1784
     50  OG1       89.8760   95.0430   14.6670 O.3    77  THR77      -0.2211
     51  CG2       87.9180   94.1100   15.7030 C.3    77  THR77       0.0376
     52  N         92.4790   93.7450   15.6260 N.am   78  LEU78      -0.1979
     53  CA        93.7750   93.4090   15.0420 C.3    78  LEU78       0.1596
     54  C         94.8730   93.2440   16.1050 C.2    78  LEU78       0.2287
     55  O         95.9550   92.7250   15.8130 O.2    78  LEU78      -0.2864
     56  CB        94.1970   94.5070   14.0600 C.3    78  LEU78       0.0297
     57  CG        93.2310   94.8780   12.9320 C.3    78  LEU78       0.0022
     58  CD1       93.7030   96.1430   12.2100 C.3    78  LEU78       0.0001
     59  CD2       93.0940   93.7030   11.9640 C.3    78  LEU78       0.0001
     60  N         80.4020   98.0310   15.1890 N.3   205  VAL205     -0.1245
     61  CA        81.1970   97.1300   14.3590 C.3   205  VAL205      0.1561
     62  C         81.5980   95.8710   15.1340 C.2   205  VAL205      0.2260
     63  O         81.5560   94.7790   14.5980 O.2   205  VAL205     -0.2867
     64  CB        82.4260   97.8190   13.7470 C.3   205  VAL205      0.0252
     65  CG1       83.2550   96.8140   12.9490 C.3   205  VAL205      0.0019
     66  CG2       81.9820   98.9710   12.8410 C.3   205  VAL205      0.0019
     67  N         80.6470   92.0900   14.0350 N.3   209  LEU209     -0.1245
     68  CA        81.7290   91.1200   13.8850 C.3   209  LEU209      0.1561
     69  C         81.4870   89.8760   14.7410 C.2   209  LEU209      0.2260
     70  O         81.6420   88.7350   14.2760 O.2   209  LEU209     -0.2867
     71  CB        83.0600   91.7680   14.2560 C.3   209  LEU209      0.0270
     72  CG        83.5700   92.7650   13.2120 C.3   209  LEU209      0.0019
     73  CD1       84.8830   93.3570   13.6620 C.3   209  LEU209      0.0001
     74  CD2       83.7040   92.0610   11.8620 C.3   209  LEU209      0.0001
@<TRIPOS>BOND
     1    11    13    1
     2    11    10    1
     3     6     7    1
     4     7    10    1
     5     7     8    1
     6    10    12    1
     7     1     2    1
     8    18    19    1
     9     9     8    2
    10     8    14   am
    11    19    22    1
    12    19    20    1
    13     2     3    1
    14     2     5    1
    15    14    15    1
    16     3     4    2
    17    22    23    1
    18    20    21    2
    19    24    23   ar
    20    24    26   ar
    21    16    15    1
    22    16    17    2
    23    23    25   ar
    24    26    28   ar
    25    25    27   ar
    26    28    27   ar
    27    74    72    1
    28    59    57    1
    29    58    57    1
    30    43    42    1
    31    44    42    1
    32    66    64    1
    33    57    56    1
    34    65    64    1
    35    42    41    1
    36    72    73    1
    37    72    71    1
    38    36    34    1
    39    64    61    1
    40    68    67    1
    41    68    71    1
    42    68    69    1
    43    56    53    1
    44    70    69    2
    45    61    62    1
    46    61    60    1
    47    41    38    1
    48    63    62    2
    49    50    49    1
    50    34    35    1
    51    34    33    1
    52    53    52    1
    53    53    54    1
    54    49    51    1
    55    49    46    1
    56    38    37    1
    57    38    39    1
    58    48    47    2
    59    52    47   am
    60    47    46    1
    61    55    54    2
    62    37    31   am
    63    33    30    1
    64    40    39    2
    65    46    45    1
    66    31    32    2
    67    31    30    1
    68    30    29    1
