@<TRIPOS>MOLECULE
tmp/4m5cA02.pdb
 84 80 0 0 0
SMALL
GASTEIGER

@<TRIPOS>ATOM
      1  N        110.9810  122.5000   16.0250 N.3    11  GLN11      -0.1231
      2  CA       111.5550  121.7590   17.1260 C.3    11  GLN11       0.1698
      3  C        110.5270  120.8300   17.7650 C.2    11  GLN11       0.2592
      4  O        110.8420  119.6780   18.0550 O.2    11  GLN11      -0.2718
      5  CB       112.1680  122.6950   18.1660 C.3    11  GLN11       0.0381
      6  CG       113.6150  123.0470   17.8890 C.3    11  GLN11       0.0905
      7  CD       114.2040  123.9410   18.9590 C.2    11  GLN11       0.2608
      8  OE1      113.7820  125.0890   19.1220 O.2    11  GLN11      -0.2717
      9  NE2      115.1760  123.4150   19.7080 N.am   11  GLN11      -0.0878
     10  N        109.3070  121.3200   17.9820 N.am   12  THR12      -0.1953
     11  CA       108.2570  120.4500   18.4930 C.3    12  THR12       0.1897
     12  C        108.0060  119.2670   17.5310 C.2    12  THR12       0.2313
     13  O        107.9130  118.1210   17.9640 O.2    12  THR12      -0.2863
     14  CB       106.9510  121.1960   18.7450 C.3    12  THR12       0.1794
     15  OG1      107.2080  122.3560   19.5480 O.3    12  THR12      -0.2208
     16  CG2      105.9680  120.2830   19.4670 C.3    12  THR12       0.0378
     17  N        110.8450  116.5630   17.8940 N.3    15  VAL15      -0.1231
     18  CA       110.7120  115.7690   19.1170 C.3    15  VAL15       0.1692
     19  C        109.6310  114.6880   18.9860 C.2    15  VAL15       0.2591
     20  O        109.8300  113.5270   19.3440 O.2    15  VAL15      -0.2718
     21  CB       110.3730  116.6820   20.3010 C.3    15  VAL15       0.0266
     22  CG1      109.9700  115.8770   21.5200 C.3    15  VAL15       0.0020
     23  CG2      111.5650  117.5640   20.6190 C.3    15  VAL15       0.0020
     24  N        108.4730  115.0970   18.4690 N.am   16  MET16      -0.1979
     25  CA       107.3480  114.1860   18.2980 C.3    16  MET16       0.1605
     26  C        107.6930  113.0650   17.3230 C.2    16  MET16       0.2287
     27  O        107.3310  111.9130   17.5490 O.2    16  MET16      -0.2864
     28  CB       106.1110  114.9250   17.7960 C.3    16  MET16       0.0413
     29  CG       105.6130  116.0240   18.7290 C.3    16  MET16       0.0598
     30  SD       105.6410  115.5580   20.4780 S.3    16  MET16      -0.1393
     31  CE       104.3970  114.2720   20.5320 C.3    16  MET16       0.0692
     32  N         97.7620  120.2040   24.5020 N.3   156  ILE156     -0.1231
     33  CA        98.9370  120.5380   25.2920 C.3   156  ILE156      0.1692
     34  C        100.1220  120.8840   24.3920 C.2   156  ILE156      0.2591
     35  O        100.8710  121.8110   24.6870 O.2   156  ILE156     -0.2718
     36  CB        99.3070  119.4020   26.2720 C.3   156  ILE156      0.0266
     37  CG1       98.3130  119.3660   27.4380 C.3   156  ILE156      0.0019
     38  CG2      100.7060  119.5890   26.8240 C.3   156  ILE156      0.0020
     39  CD1       98.4330  118.1020   28.2820 C.3   156  ILE156      0.0001
     40  N        100.2930  120.1300   23.3070 N.am  157  GLU157     -0.1979
     41  CA       101.2920  120.4520   22.2860 C.3   157  GLU157      0.1602
     42  C        101.0790  121.8540   21.6810 C.2   157  GLU157      0.2287
     43  O        102.0240  122.6190   21.5260 O.2   157  GLU157     -0.2864
     44  CB       101.2670  119.3940   21.1790 C.3   157  GLU157      0.0415
     45  CG       101.7100  118.0100   21.6430 C.3   157  GLU157      0.1163
     46  CD       101.1870  116.8920   20.7390 C.2   157  GLU157      0.3649
     47  OE1      100.6180  117.1890   19.6550 O.co2 157  GLU157     -0.2457
     48  OE2      101.3240  115.7170   21.1270 O.co2 157  GLU157     -0.2457
     49  N        101.4480  124.8200   24.4360 N.3   160  LEU160     -0.1231
     50  CA       102.8180  125.0990   24.8430 C.3   160  LEU160      0.1693
     51  C        103.5310  126.0340   23.8630 C.2   160  LEU160      0.2591
     52  O        104.5030  126.6810   24.2290 O.2   160  LEU160     -0.2718
     53  CB       103.6120  123.7960   25.0020 C.3   160  LEU160      0.0284
     54  CG       103.3360  122.9480   26.2580 C.3   160  LEU160      0.0019
     55  CD1      104.1850  121.6870   26.2690 C.3   160  LEU160      0.0001
     56  CD2      103.5970  123.7410   27.5150 C.3   160  LEU160      0.0001
     57  N        103.0540  126.1000   22.6220 N.am  161  GLN161     -0.1979
     58  CA       103.7240  126.9040   21.5880 C.3   161  GLN161      0.1601
     59  C        103.9180  128.3950   21.9420 C.2   161  GLN161      0.2287
     60  O        105.0280  128.9110   21.8120 O.2   161  GLN161     -0.2864
     61  CB       103.0510  126.7530   20.2130 C.3   161  GLN161      0.0394
     62  CG       103.0510  125.3150   19.6690 C.3   161  GLN161      0.0908
     63  CD       104.4370  124.7410   19.5420 C.2   161  GLN161      0.2608
     64  OE1      105.2410  125.1920   18.7100 O.2   161  GLN161     -0.2717
     65  NE2      104.7380  123.7400   20.3750 N.am  161  GLN161     -0.0878
     66  N        106.5750  128.7100   24.6800 N.3   164  LEU164     -0.1231
     67  CA       107.9390  128.2790   24.4350 C.3   164  LEU164      0.1693
     68  C        108.5600  128.9330   23.2010 C.2   164  LEU164      0.2592
     69  O        109.7790  128.9580   23.0540 O.2   164  LEU164     -0.2718
     70  CB       107.9860  126.7560   24.2900 C.3   164  LEU164      0.0284
     71  CG       107.5450  125.9260   25.4950 C.3   164  LEU164      0.0019
     72  CD1      107.5080  124.4320   25.1410 C.3   164  LEU164      0.0001
     73  CD2      108.4740  126.1590   26.6660 C.3   164  LEU164      0.0001
     74  N        107.7260  129.4340   22.3000 N.am  165  PHE165     -0.1976
     75  CA       108.2280  129.9740   21.0440 C.3   165  PHE165      0.1639
     76  C        107.5690  131.3100   20.7460 C.2   165  PHE165      0.2290
     77  O        106.4390  131.3790   20.2630 O.2   165  PHE165     -0.2864
     78  CB       108.0400  128.9650   19.9160 C.3   165  PHE165      0.0560
     79  CG       108.5770  127.6100   20.2510 C.ar  165  PHE165     -0.0200
     80  CD1      109.9400  127.3670   20.2120 C.ar  165  PHE165     -0.0042
     81  CD2      107.7250  126.5930   20.6740 C.ar  165  PHE165     -0.0042
     82  CE1      110.4490  126.1170   20.5550 C.ar  165  PHE165     -0.0003
     83  CE2      108.2260  125.3500   21.0300 C.ar  165  PHE165     -0.0003
     84  CZ       109.5850  125.1050   20.9660 C.ar  165  PHE165     -0.0000
@<TRIPOS>BOND
     1     1     2    1
     2     2     3    1
     3     2     5    1
     4    26    27    2
     5    26    25    1
     6    12    13    2
     7    12    11    1
     8     3    10   am
     9     3     4    2
    10    28    25    1
    11    28    29    1
    12     6     5    1
    13     6     7    1
    14    17    18    1
    15    10    11    1
    16    25    24    1
    17    24    19   am
    18    11    14    1
    19    64    63    2
    20    29    30    1
    21    14    16    1
    22    14    15    1
    23     7     8    2
    24     7     9   am
    25    19    18    1
    26    19    20    2
    27    18    21    1
    28    63    62    1
    29    63    65   am
    30    47    46   ar
    31    62    61    1
    32    78    79    1
    33    78    75    1
    34    80    79   ar
    35    80    82   ar
    36    61    58    1
    37    79    81   ar
    38    77    76    2
    39    21    23    1
    40    21    22    1
    41    30    31    1
    42    82    84   ar
    43    81    83   ar
    44    46    48   ar
    45    46    45    1
    46    76    75    1
    47    84    83   ar
    48    75    74    1
    49    44    45    1
    50    44    41    1
    51    43    42    2
    52    58    59    1
    53    58    57    1
    54    42    41    1
    55    60    59    2
    56    41    40    1
    57    74    68   am
    58    57    51   am
    59    69    68    2
    60    68    67    1
    61    40    34   am
    62    51    52    2
    63    51    50    1
    64    70    67    1
    65    70    71    1
    66    34    35    2
    67    34    33    1
    68    67    66    1
    69    49    50    1
    70    32    33    1
    71    50    53    1
    72    53    54    1
    73    72    71    1
    74    33    36    1
    75    71    73    1
    76    54    55    1
    77    54    56    1
    78    36    38    1
    79    36    37    1
    80    37    39    1
