@<TRIPOS>MOLECULE
tmp/4m5jA01.pdb
 137 132 0 0 0
SMALL
GASTEIGER

@<TRIPOS>ATOM
      1  N         59.7150    5.3660   35.2360 N.3     9  GLY9       -0.1225
      2  CA        59.5280    5.9640   33.9110 C.3     9  GLY9        0.1811
      3  C         60.7580    5.7140   33.0580 C.2     9  GLY9        0.2280
      4  O         61.8890    5.6980   33.5550 O.2     9  GLY9       -0.2866
      5  N         52.6990    6.8230   27.7130 N.3    43  THR43      -0.1204
      6  CA        52.1730    8.1240   28.1050 C.3    43  THR43       0.1979
      7  C         52.8550    9.2710   27.3650 C.2    43  THR43       0.2460
      8  O         54.0690    9.2520   27.1610 O.2    43  THR43      -0.2732
      9  CB        52.3260    8.3290   29.6100 C.3    43  THR43       0.1783
     10  OG1       53.7200    8.4080   29.9660 O.3    43  THR43      -0.2211
     11  CG2       51.6820    7.1720   30.3790 C.3    43  THR43       0.0376
     12  N         52.0750   10.2890   26.9660 N.am   44  PRO44      -0.2718
     13  CA        52.7550   11.3990   26.2910 C.3    44  PRO44       0.1520
     14  C         53.5510   12.2120   27.3000 C.2    44  PRO44       0.2440
     15  O         53.1880   12.3060   28.4960 O.2    44  PRO44      -0.2731
     16  CB        51.6010   12.2110   25.6740 C.3    44  PRO44       0.0310
     17  CG        50.4110   11.9050   26.5400 C.3    44  PRO44       0.0237
     18  CD        50.6180   10.5040   27.1020 C.3    44  PRO44       0.0939
     19  N         54.6640   12.8170   26.8340 N.am   45  PRO45      -0.2716
     20  CA        55.5340   13.4910   27.8010 C.3    45  PRO45       0.1536
     21  C         54.9530   14.7800   28.3720 C.2    45  PRO45       0.2598
     22  O         54.4640   15.6340   27.6240 O.2    45  PRO45      -0.2715
     23  CB        56.7850   13.8290   26.9700 C.3    45  PRO45       0.0310
     24  CG        56.3080   13.8430   25.5690 C.3    45  PRO45       0.0237
     25  CD        55.2730   12.7550   25.5030 C.3    45  PRO45       0.0939
     26  N         55.0310   14.8960   29.6970 N.am   46  LEU46      -0.1964
     27  CA        54.8210   16.1690   30.4090 C.3    46  LEU46       0.1728
     28  C         56.1390   16.9260   30.5120 C.2    46  LEU46       0.2616
     29  O         57.1990   16.3220   30.6810 O.2    46  LEU46      -0.2715
     30  CB        54.3020   15.8930   31.8090 C.3    46  LEU46       0.0311
     31  CG        52.7870   15.9610   31.9870 C.3    46  LEU46       0.0022
     32  CD1       52.0990   15.1830   30.8950 C.3    46  LEU46       0.0001
     33  CD2       52.3680   15.4310   33.3630 C.3    46  LEU46       0.0001
     34  N         56.0830   18.2540   30.4340 N.am   47  GLY47      -0.1955
     35  CA        57.3040   19.0390   30.3050 C.3    47  GLY47       0.1869
     36  C         57.6090   19.2550   28.8300 C.2    47  GLY47       0.2309
     37  O         56.6740   19.4730   28.0410 O.2    47  GLY47      -0.2863
     38  N         60.2030   14.8930   22.7600 N.3    51  GLN51      -0.1245
     39  CA        60.8880   13.6930   23.2380 C.3    51  GLN51       0.1566
     40  C         59.9380   12.5140   23.0920 C.2    51  GLN51       0.2260
     41  O         58.7270   12.7040   22.9620 O.2    51  GLN51      -0.2867
     42  CB        61.3570   13.8680   24.6980 C.3    51  GLN51       0.0367
     43  CG        60.2320   14.0000   25.7230 C.3    51  GLN51       0.0905
     44  CD        60.7430   14.1350   27.1510 C.2    51  GLN51       0.2608
     45  OE1       61.5770   13.3460   27.6030 O.2    51  GLN51      -0.2717
     46  NE2       60.1960   15.0990   27.8900 N.am   51  GLN51      -0.0878
     47  N         56.7210    8.0660   27.1010 N.3    54  TYR54      -0.1241
     48  CA        57.2620    7.2990   28.2200 C.3    54  TYR54       0.1605
     49  C         56.5790    5.9600   28.4070 C.2    54  TYR54       0.2264
     50  O         55.4020    5.8010   28.0960 O.2    54  TYR54      -0.2867
     51  CB        57.0930    8.1030   29.5260 C.3    54  TYR54       0.0534
     52  CG        58.1690    9.1620   29.6880 C.ar   54  TYR54      -0.0201
     53  CD1       58.1110   10.3470   28.9670 C.ar   54  TYR54      -0.0009
     54  CD2       59.2530    8.9440   30.5170 C.ar   54  TYR54      -0.0009
     55  CE1       59.1080   11.3080   29.0960 C.ar   54  TYR54       0.0417
     56  CE2       60.2590    9.9050   30.6450 C.ar   54  TYR54       0.0417
     57  CZ        60.1880   11.0570   29.9210 C.ar   54  TYR54       0.1957
     58  OH        61.1800   12.0130   30.0720 O.3    54  TYR54      -0.2866
     59  N         55.3920    4.2200   31.6310 N.3    56  ASN56      -0.1240
     60  CA        55.2450    4.4700   33.0770 C.3    56  ASN56       0.1653
     61  C         54.5670    3.3020   33.7860 C.2    56  ASN56       0.2266
     62  O         53.7120    2.6010   33.2160 O.2    56  ASN56      -0.2867
     63  CB        54.4520    5.7480   33.3570 C.3    56  ASN56       0.1155
     64  CG        55.2720    7.0180   33.1230 C.2    56  ASN56       0.2627
     65  OD1       54.9290    7.8430   32.2650 O.2    56  ASN56      -0.2716
     66  ND2       56.3570    7.1780   33.8940 N.am   56  ASN56      -0.0877
     67  N         64.0020   18.2210   32.7350 N.3    88  TRP88      -0.1241
     68  CA        62.9100   17.3330   32.3460 C.3    88  TRP88       0.1605
     69  C         63.0710   16.6780   30.9680 C.2    88  TRP88       0.2264
     70  O         62.0720   16.4200   30.2770 O.2    88  TRP88      -0.2867
     71  CB        61.5670   18.0710   32.4100 C.3    88  TRP88       0.0550
     72  CG        61.1640   18.4870   33.8060 C.ar   88  TRP88       0.0003
     73  CD1       61.4010   17.8010   34.9700 C.ar   88  TRP88       0.0946
     74  CD2       60.4400   19.6650   34.1690 C.ar   88  TRP88       0.0152
     75  NE1       60.8580   18.4860   36.0350 N.ar   88  TRP88      -0.2442
     76  CE2       60.2890   19.6450   35.5750 C.ar   88  TRP88       0.0810
     77  CE3       59.9380   20.7520   33.4480 C.ar   88  TRP88       0.0012
     78  CZ2       59.6210   20.6520   36.2670 C.ar   88  TRP88       0.0191
     79  CZ3       59.2860   21.7600   34.1430 C.ar   88  TRP88       0.0001
     80  CH2       59.1300   21.6970   35.5380 C.ar   88  TRP88       0.0015
     81  N         65.1320   10.2150   29.4340 N.3    91  ARG91      -0.1245
     82  CA        66.0070    9.4430   30.3220 C.3    91  ARG91       0.1563
     83  C         65.7570    7.9620   30.1930 C.2    91  ARG91       0.2260
     84  O         64.6540    7.5200   29.8560 O.2    91  ARG91      -0.2867
     85  CB        65.8310    9.8560   31.7840 C.3    91  ARG91       0.0307
     86  CG        64.5980    9.3560   32.4380 C.3    91  ARG91       0.0489
     87  CD        63.3710   10.1370   32.0660 C.3    91  ARG91       0.2205
     88  NE        63.5980   11.5790   32.1850 N.pl3  91  ARG91      -0.0865
     89  CZ        63.1010   12.3330   33.1540 C.cat  91  ARG91       0.5346
     90  NH1       62.3270   11.7750   34.0830 N.pl3  91  ARG91       0.1354
     91  NH2       63.3650   13.6400   33.1830 N.pl3  91  ARG91       0.1354
     92  N         63.9490    6.4710   35.3600 N.3    94  ASP94      -0.1239
     93  CA        63.6970    7.4040   36.4610 C.3    94  ASP94       0.1674
     94  C         62.9320    6.5960   37.4880 C.2    94  ASP94       0.2266
     95  O         61.9750    5.9230   37.1360 O.2    94  ASP94      -0.2867
     96  CB        62.8500    8.5560   35.9240 C.3    94  ASP94       0.1410
     97  CG        62.5600    9.6490   36.9660 C.2    94  ASP94       0.3668
     98  OD1       63.4740   10.0680   37.7260 O.co2  94  ASP94      -0.2456
     99  OD2       61.3850   10.1130   36.9820 O.co2  94  ASP94      -0.2456
    100  N         54.6220   17.3330   43.4000 N.3   116  ASP116     -0.1239
    101  CA        53.7710   17.4120   42.2060 C.3   116  ASP116      0.1674
    102  C         53.0140   16.1440   41.8280 C.2   116  ASP116      0.2266
    103  O         52.3300   16.1420   40.8060 O.2   116  ASP116     -0.2867
    104  CB        54.5710   17.9570   40.9830 C.3   116  ASP116      0.1410
    105  CG        53.6760   18.5540   39.8760 C.2   116  ASP116      0.3668
    106  OD1       52.8220   19.4150   40.1830 O.co2 116  ASP116     -0.2456
    107  OD2       53.8260   18.1680   38.6860 O.co2 116  ASP116     -0.2456
    108  N         49.3430   16.0550   40.5340 N.3   119  ASN119     -0.1225
    109  CA        49.0520   16.6730   39.2490 C.3   119  ASN119      0.1785
    110  C         49.5480   15.8400   38.0650 C.2   119  ASN119      0.2597
    111  O         49.5520   16.3120   36.9280 O.2   119  ASN119     -0.2718
    112  CB        49.6740   18.0730   39.2170 C.3   119  ASN119      0.1169
    113  CG        49.1340   18.9530   40.3150 C.2   119  ASN119      0.2627
    114  OD1       47.9110   19.1030   40.4570 O.2   119  ASN119     -0.2716
    115  ND2       50.0290   19.5180   41.1320 N.am  119  ASN119     -0.0877
    116  N         49.9720   14.6140   38.3320 N.am  120  ARG120     -0.1979
    117  CA        50.5820   13.7720   37.2850 C.3   120  ARG120      0.1597
    118  C         49.8030   12.5250   37.0420 C.2   120  ARG120      0.2287
    119  O         49.9060   11.5640   37.8040 O.2   120  ARG120     -0.2864
    120  CB        52.0280   13.4080   37.6620 C.3   120  ARG120      0.0334
    121  CG        52.9470   14.6480   37.6580 C.3   120  ARG120      0.0492
    122  CD        54.3350   14.3260   38.1250 C.3   120  ARG120      0.2205
    123  NE        55.1540   15.5480   38.2130 N.pl3 120  ARG120     -0.0865
    124  CZ        56.4630   15.5510   38.4520 C.cat 120  ARG120      0.5346
    125  NH1       57.1150   14.4030   38.6060 N.pl3 120  ARG120      0.1354
    126  NH2       57.1210   16.7010   38.5230 N.pl3 120  ARG120      0.1354
    127  N         50.2030   10.2420   34.9370 N.3   122  PHE122     -0.1241
    128  CA        51.0500    9.0720   34.6680 C.3   122  PHE122      0.1605
    129  C         51.5730    8.4070   35.9330 C.2   122  PHE122      0.2264
    130  O         52.0650    7.2750   35.8960 O.2   122  PHE122     -0.2867
    131  CB        52.2000    9.4130   33.7050 C.3   122  PHE122      0.0534
    132  CG        53.2300   10.3540   34.2740 C.ar  122  PHE122     -0.0203
    133  CD1       54.2410    9.8830   35.1070 C.ar  122  PHE122     -0.0042
    134  CD2       53.2210   11.7050   33.9130 C.ar  122  PHE122     -0.0042
    135  CE1       55.2220   10.7430   35.5970 C.ar  122  PHE122     -0.0003
    136  CE2       54.1830   12.5800   34.4140 C.ar  122  PHE122     -0.0003
    137  CZ        55.1850   12.0950   35.2540 C.ar  122  PHE122     -0.0000
@<TRIPOS>BOND
     1    38    39    1
     2    41    40    2
     3    40    39    1
     4    39    42    1
     5    42    43    1
     6    25    24    1
     7    25    19    1
     8    24    23    1
     9    16    13    1
    10    16    17    1
    11    43    44    1
    12    13    12    1
    13    13    14    1
    14    17    18    1
    15    19    14   am
    16    19    20    1
    17    12    18    1
    18    12     7   am
    19    23    20    1
    20    47    48    1
    21    44    45    2
    22    44    46   am
    23     8     7    2
    24    14    15    2
    25     7     6    1
    26    22    21    2
    27     5     6    1
    28    20    21    1
    29    37    36    2
    30    50    49    2
    31     6     9    1
    32    48    49    1
    33    48    51    1
    34    21    26   am
    35    36    35    1
    36    53    55   ar
    37    53    52   ar
    38    55    57   ar
    39    81    82    1
    40    51    52    1
    41     9    10    1
    42     9    11    1
    43    52    54   ar
    44    26    27    1
    45    84    83    2
    46    57    58    1
    47    57    56   ar
    48    83    82    1
    49    70    69    2
    50    35    34    1
    51    82    85    1
    52    27    28    1
    53    27    30    1
    54    34    28   am
    55    28    29    2
    56    54    56   ar
    57    32    31    1
    58    69    68    1
    59    59    60    1
    60    85    86    1
    61    30    31    1
    62    31    33    1
    63    87    88    1
    64    87    86    1
    65    88    89    2
    66    65    64    2
    67    68    71    1
    68    68    67    1
    69    71    72    1
    70     3     4    2
    71     3     2    1
    72    60    63    1
    73    60    61    1
    74    64    63    1
    75    64    66   am
    76    89    91    1
    77    89    90    1
    78    62    61    2
    79    77    79   ar
    80    77    74   ar
    81   131   132    1
    82   131   128    1
    83    72    74   ar
    84    72    73   ar
    85     2     1    1
    86   134   132   ar
    87   134   136   ar
    88    79    80   ar
    89    74    76   ar
    90   132   133   ar
    91   136   137   ar
    92   128   127    1
    93   128   129    1
    94    73    75   ar
    95   133   135   ar
    96   137   135   ar
    97    92    93    1
    98    80    78   ar
    99    76    75   ar
   100    76    78   ar
   101   130   129    2
   102    96    93    1
   103    96    97    1
   104    93    94    1
   105   111   110    2
   106    97    99   ar
   107    97    98   ar
   108   118   117    1
   109   118   119    2
   110    95    94    2
   111   117   120    1
   112   117   116    1
   113   121   120    1
   114   121   122    1
   115   110   116   am
   116   110   109    1
   117   122   123    1
   118   123   124    2
   119   124   126    1
   120   124   125    1
   121   107   105   ar
   122   112   109    1
   123   112   113    1
   124   109   108    1
   125   105   106   ar
   126   105   104    1
   127   113   114    2
   128   113   115   am
   129   103   102    2
   130   104   101    1
   131   102   101    1
   132   101   100    1
