@<TRIPOS>MOLECULE
tmp/4m5lA01.pdb
 137 132 0 0 0
SMALL
GASTEIGER

@<TRIPOS>ATOM
      1  N         57.1320    1.0430   35.2830 N.3     9  GLY9       -0.1225
      2  CA        57.0550    1.6270   33.9570 C.3     9  GLY9        0.1811
      3  C         58.3090    1.2870   33.1620 C.2     9  GLY9        0.2280
      4  O         59.4030    1.2010   33.7270 O.2     9  GLY9       -0.2866
      5  N         50.4960    2.5620   27.5090 N.3    43  THR43      -0.1204
      6  CA        49.9810    3.8840   27.8320 C.3    43  THR43       0.1979
      7  C         50.7490    4.9890   27.1000 C.2    43  THR43       0.2460
      8  O         51.9740    4.9250   26.9640 O.2    43  THR43      -0.2732
      9  CB        50.0490    4.1230   29.3610 C.3    43  THR43       0.1783
     10  OG1       51.4200    4.0900   29.7890 O.3    43  THR43      -0.2211
     11  CG2       49.2500    3.0530   30.1200 C.3    43  THR43       0.0376
     12  N         50.0300    6.0110   26.6170 N.am   44  PRO44      -0.2718
     13  CA        50.7180    7.1290   25.9670 C.3    44  PRO44       0.1520
     14  C         51.5160    7.9230   26.9990 C.2    44  PRO44       0.2440
     15  O         51.0680    8.0780   28.1350 O.2    44  PRO44      -0.2731
     16  CB        49.5680    7.9710   25.3990 C.3    44  PRO44       0.0310
     17  CG        48.3950    7.6360   26.2680 C.3    44  PRO44       0.0237
     18  CD        48.5670    6.1920   26.6350 C.3    44  PRO44       0.0939
     19  N         52.6910    8.4340   26.6090 N.am   45  PRO45      -0.2716
     20  CA        53.5350    9.1340   27.5830 C.3    45  PRO45       0.1536
     21  C         52.9360   10.4640   28.0360 C.2    45  PRO45       0.2598
     22  O         52.4790   11.2670   27.2170 O.2    45  PRO45      -0.2715
     23  CB        54.8420    9.3660   26.8120 C.3    45  PRO45       0.0310
     24  CG        54.4260    9.3790   25.3730 C.3    45  PRO45       0.0237
     25  CD        53.3140    8.3780   25.2730 C.3    45  PRO45       0.0939
     26  N         52.9610   10.6900   29.3470 N.am   46  LEU46      -0.1964
     27  CA        52.5370   11.9540   29.9290 C.3    46  LEU46       0.1728
     28  C         53.7740   12.7230   30.3800 C.2    46  LEU46       0.2616
     29  O         54.7700   12.1310   30.7820 O.2    46  LEU46      -0.2715
     30  CB        51.5570   11.7220   31.0790 C.3    46  LEU46       0.0311
     31  CG        50.2980   10.9540   30.6570 C.3    46  LEU46       0.0022
     32  CD1       49.2580   10.9420   31.7700 C.3    46  LEU46       0.0001
     33  CD2       49.7140   11.5210   29.3640 C.3    46  LEU46       0.0001
     34  N         53.7150   14.0460   30.2910 N.am   47  GLY47      -0.1955
     35  CA        54.9110   14.8610   30.3970 C.3    47  GLY47       0.1869
     36  C         55.4180   15.0990   28.9860 C.2    47  GLY47       0.2309
     37  O         54.6270   15.4280   28.1060 O.2    47  GLY47      -0.2863
     38  N         58.5500   10.3590   22.9810 N.3    51  GLN51      -0.1245
     39  CA        59.1710    9.1240   23.4500 C.3    51  GLN51       0.1566
     40  C         58.1870    7.9860   23.2040 C.2    51  GLN51       0.2260
     41  O         57.0080    8.2370   22.9580 O.2    51  GLN51      -0.2867
     42  CB        59.5500    9.2250   24.9370 C.3    51  GLN51       0.0367
     43  CG        58.3870    9.5340   25.8750 C.3    51  GLN51       0.0905
     44  CD        58.8200    9.6540   27.3270 C.2    51  GLN51       0.2608
     45  OE1       59.6240    8.8700   27.8120 O.2    51  GLN51      -0.2717
     46  NE2       58.2700   10.6330   28.0300 N.am   51  GLN51      -0.0878
     47  N         54.6050    3.6850   27.0530 N.3    54  TYR54      -0.1241
     48  CA        55.0220    2.9130   28.2140 C.3    54  TYR54       0.1605
     49  C         54.2780    1.5930   28.3390 C.2    54  TYR54       0.2264
     50  O         53.1080    1.4830   27.9540 O.2    54  TYR54      -0.2867
     51  CB        54.7840    3.7130   29.5040 C.3    54  TYR54       0.0534
     52  CG        55.8900    4.6990   29.7830 C.ar   54  TYR54      -0.0201
     53  CD1       55.8950    5.9520   29.1940 C.ar   54  TYR54      -0.0009
     54  CD2       56.9600    4.3530   30.5960 C.ar   54  TYR54      -0.0009
     55  CE1       56.9320    6.8560   29.4260 C.ar   54  TYR54       0.0417
     56  CE2       58.0020    5.2470   30.8370 C.ar   54  TYR54       0.0417
     57  CZ        57.9840    6.4900   30.2420 C.ar   54  TYR54       0.1957
     58  OH        59.0200    7.3740   30.4700 O.3    54  TYR54      -0.2866
     59  N         52.9610   -0.0500   31.5580 N.3    56  ASN56      -0.1240
     60  CA        52.7410    0.2130   32.9800 C.3    56  ASN56       0.1653
     61  C         52.0600   -0.9660   33.6590 C.2    56  ASN56       0.2266
     62  O         51.2040   -1.6450   33.0620 O.2    56  ASN56      -0.2867
     63  CB        51.8830    1.4570   33.1880 C.3    56  ASN56       0.1155
     64  CG        52.6800    2.7350   33.0540 C.2    56  ASN56       0.2627
     65  OD1       52.4260    3.5410   32.1620 O.2    56  ASN56      -0.2716
     66  ND2       53.6540    2.9320   33.9430 N.am   56  ASN56      -0.0877
     67  N         61.9210   13.7100   33.0330 N.3    90  TRP90      -0.1241
     68  CA        60.8740   12.7580   32.6590 C.3    90  TRP90       0.1605
     69  C         61.0980   12.1120   31.2960 C.2    90  TRP90       0.2264
     70  O         60.1480   11.8170   30.5600 O.2    90  TRP90      -0.2867
     71  CB        59.4950   13.4100   32.7240 C.3    90  TRP90       0.0550
     72  CG        59.0240   13.7620   34.1230 C.ar   90  TRP90       0.0003
     73  CD1       59.0380   12.9540   35.2270 C.ar   90  TRP90       0.0946
     74  CD2       58.4080   14.9850   34.5330 C.ar   90  TRP90       0.0152
     75  NE1       58.4830   13.6050   36.3010 N.ar   90  TRP90      -0.2442
     76  CE2       58.0920   14.8540   35.9040 C.ar   90  TRP90       0.0810
     77  CE3       58.1030   16.1790   33.8780 C.ar   90  TRP90       0.0012
     78  CZ2       57.4870   15.8730   36.6310 C.ar   90  TRP90       0.0191
     79  CZ3       57.5080   17.1920   34.6040 C.ar   90  TRP90       0.0001
     80  CH2       57.2030   17.0300   35.9670 C.ar   90  TRP90       0.0015
     81  N         63.0230    5.5990   29.7840 N.3    93  ARG93      -0.1245
     82  CA        63.8830    4.7690   30.6120 C.3    93  ARG93       0.1563
     83  C         63.5620    3.2890   30.4680 C.2    93  ARG93       0.2260
     84  O         62.4350    2.8970   30.1450 O.2    93  ARG93      -0.2867
     85  CB        63.8690    5.2390   32.0830 C.3    93  ARG93       0.0307
     86  CG        62.6820    4.8190   32.9280 C.3    93  ARG93       0.0489
     87  CD        61.4980    5.7760   32.8890 C.3    93  ARG93       0.2205
     88  NE        61.8230    7.2070   32.8210 N.pl3  93  ARG93      -0.0865
     89  CZ        61.9020    8.0470   33.8580 C.cat  93  ARG93       0.5346
     90  NH1       61.7150    7.6240   35.1040 N.pl3  93  ARG93       0.1354
     91  NH2       62.1770    9.3320   33.6410 N.pl3  93  ARG93       0.1354
     92  N         61.4040    1.9470   35.5510 N.3    96  ASP96      -0.1239
     93  CA        61.0820    2.8780   36.6220 C.3    96  ASP96       0.1674
     94  C         60.2580    2.1060   37.6480 C.2    96  ASP96       0.2266
     95  O         59.2060    1.5460   37.3050 O.2    96  ASP96      -0.2867
     96  CB        60.2670    4.0580   36.0720 C.3    96  ASP96       0.1410
     97  CG        60.1070    5.1920   37.0720 C.2    96  ASP96       0.3668
     98  OD1       61.1070    5.5440   37.7340 O.co2  96  ASP96      -0.2456
     99  OD2       58.9870    5.7600   37.1580 O.co2  96  ASP96      -0.2456
    100  N         52.4170   12.2890   43.3540 N.3   118  ASP118     -0.1239
    101  CA        51.4820   12.6280   42.2820 C.3   118  ASP118      0.1674
    102  C         50.5860   11.4680   41.8620 C.2   118  ASP118      0.2266
    103  O         49.8360   11.5930   40.8940 O.2   118  ASP118     -0.2867
    104  CB        52.2420   13.1480   41.0570 C.3   118  ASP118      0.1410
    105  CG        51.3620   13.9380   40.1080 C.2   118  ASP118      0.3668
    106  OD1       50.5430   14.7500   40.5910 O.co2 118  ASP118     -0.2456
    107  OD2       51.4980   13.7460   38.8760 O.co2 118  ASP118     -0.2456
    108  N         46.8920   11.6430   40.7350 N.3   121  ASN121     -0.1225
    109  CA        46.6140   12.3380   39.4840 C.3   121  ASN121      0.1785
    110  C         47.0430   11.5580   38.2400 C.2   121  ASN121      0.2597
    111  O         47.0560   12.1280   37.1450 O.2   121  ASN121     -0.2718
    112  CB        47.2830   13.7110   39.4950 C.3   121  ASN121      0.1169
    113  CG        46.8690   14.5350   40.6850 C.2   121  ASN121      0.2627
    114  OD1       45.6760   14.7420   40.9230 O.2   121  ASN121     -0.2716
    115  ND2       47.8460   14.9920   41.4600 N.am  121  ASN121     -0.0877
    116  N         47.3960   10.2810   38.4020 N.am  122  ARG122     -0.1979
    117  CA        47.9600    9.4970   37.3070 C.3   122  ARG122      0.1597
    118  C         47.1860    8.2010   37.0720 C.2   122  ARG122      0.2287
    119  O         47.3040    7.2470   37.8380 O.2   122  ARG122     -0.2864
    120  CB        49.4220    9.1720   37.5910 C.3   122  ARG122      0.0334
    121  CG        50.3000   10.4100   37.6550 C.3   122  ARG122      0.0492
    122  CD        51.7340   10.0590   37.9680 C.3   122  ARG122      0.2205
    123  NE        52.5870   11.2440   38.0600 N.pl3 122  ARG122     -0.0865
    124  CZ        53.9140   11.2040   38.1230 C.cat 122  ARG122      0.5346
    125  NH1       54.5480   10.0430   38.0930 N.pl3 122  ARG122      0.1354
    126  NH2       54.6140   12.3280   38.2270 N.pl3 122  ARG122      0.1354
    127  N         47.6840    5.9390   34.9070 N.3   124  PHE124     -0.1241
    128  CA        48.5770    4.8120   34.6470 C.3   124  PHE124      0.1605
    129  C         49.1310    4.1730   35.9240 C.2   124  PHE124      0.2264
    130  O         49.6870    3.0760   35.8630 O.2   124  PHE124     -0.2867
    131  CB        49.6940    5.1690   33.6460 C.3   124  PHE124      0.0534
    132  CG        50.6390    6.2370   34.1210 C.ar  124  PHE124     -0.0203
    133  CD1       51.6520    5.9410   35.0220 C.ar  124  PHE124     -0.0042
    134  CD2       50.5470    7.5290   33.6210 C.ar  124  PHE124     -0.0042
    135  CE1       52.5350    6.9200   35.4470 C.ar  124  PHE124     -0.0003
    136  CE2       51.4290    8.5100   34.0360 C.ar  124  PHE124     -0.0003
    137  CZ        52.4290    8.2020   34.9420 C.ar  124  PHE124     -0.0000
@<TRIPOS>BOND
     1    41    40    2
     2    38    39    1
     3    40    39    1
     4    39    42    1
     5    42    43    1
     6    25    24    1
     7    25    19    1
     8    24    23    1
     9    16    13    1
    10    16    17    1
    11    43    44    1
    12    13    12    1
    13    13    14    1
    14    17    18    1
    15    19    14   am
    16    19    20    1
    17    12    18    1
    18    12     7   am
    19    23    20    1
    20     8     7    2
    21    14    15    2
    22    47    48    1
    23     7     6    1
    24    22    21    2
    25    44    45    2
    26    44    46   am
    27     5     6    1
    28    20    21    1
    29     6     9    1
    30    50    49    2
    31    21    26   am
    32    37    36    2
    33    48    49    1
    34    48    51    1
    35    36    35    1
    36    53    55   ar
    37    53    52   ar
    38    26    27    1
    39     9    10    1
    40     9    11    1
    41    33    31    1
    42    55    57   ar
    43    51    52    1
    44    52    54   ar
    45    81    82    1
    46    27    28    1
    47    27    30    1
    48    84    83    2
    49    57    58    1
    50    57    56   ar
    51    34    28   am
    52    34    35    1
    53    28    29    2
    54    83    82    1
    55    70    69    2
    56    54    56   ar
    57    82    85    1
    58    31    30    1
    59    31    32    1
    60    69    68    1
    61    59    60    1
    62    85    86    1
    63    65    64    2
    64    68    71    1
    65    68    67    1
    66    71    72    1
    67    88    87    1
    68    88    89    2
    69    87    86    1
    70    60    63    1
    71    60    61    1
    72    64    63    1
    73    64    66   am
    74    62    61    2
    75     3     4    2
    76     3     2    1
    77   134   136   ar
    78   134   132   ar
    79    91    89    1
    80   131   132    1
    81   131   128    1
    82    89    90    1
    83    77    74   ar
    84    77    79   ar
    85     2     1    1
    86   136   137   ar
    87   132   133   ar
    88    72    74   ar
    89    72    73   ar
    90    74    76   ar
    91    79    80   ar
    92   128   127    1
    93   128   129    1
    94   137   135   ar
    95   133   135   ar
    96    73    75   ar
    97    92    93    1
    98   130   129    2
    99    76    75   ar
   100    76    78   ar
   101    80    78   ar
   102    96    93    1
   103    96    97    1
   104    93    94    1
   105   118   117    1
   106   118   119    2
   107    97    99   ar
   108    97    98   ar
   109   111   110    2
   110    95    94    2
   111   117   120    1
   112   117   116    1
   113   120   121    1
   114   121   122    1
   115   122   123    1
   116   123   124    2
   117   125   124    1
   118   124   126    1
   119   110   116   am
   120   110   109    1
   121   107   105   ar
   122   109   112    1
   123   109   108    1
   124   112   113    1
   125   105   106   ar
   126   105   104    1
   127   113   114    2
   128   113   115   am
   129   103   102    2
   130   104   101    1
   131   102   101    1
   132   101   100    1
