@<TRIPOS>MOLECULE
tmp/4m5mA00.pdb
 126 120 0 0 0
SMALL
GASTEIGER

@<TRIPOS>ATOM
      1  N         74.3860    0.5720   72.8920 N.3     8  ILE8       -0.1231
      2  CA        75.4250    0.1730   71.9520 C.3     8  ILE8        0.1692
      3  C         75.1790    0.8620   70.6160 C.2     8  ILE8        0.2592
      4  O         74.0540    0.8800   70.1280 O.2     8  ILE8       -0.2718
      5  CB        75.4140   -1.3580   71.7270 C.3     8  ILE8        0.0266
      6  CG1       75.5260   -2.1290   73.0470 C.3     8  ILE8        0.0019
      7  CG2       76.5420   -1.7690   70.8040 C.3     8  ILE8        0.0020
      8  CD1       75.2920   -3.6240   72.9020 C.3     8  ILE8        0.0001
      9  N         76.2390    1.3890   70.0120 N.am    9  GLY9       -0.1957
     10  CA        76.1640    2.0030   68.6950 C.3     9  GLY9        0.1869
     11  C         77.4050    1.6980   67.8660 C.2     9  GLY9        0.2309
     12  O         78.4940    1.5470   68.4170 O.2     9  GLY9       -0.2863
     13  N         69.6580    3.2700   62.3900 N.3    43  THR43      -0.1204
     14  CA        69.2690    4.5940   62.8590 C.3    43  THR43       0.1979
     15  C         70.0330    5.6950   62.1290 C.2    43  THR43       0.2459
     16  O         71.2390    5.6080   61.9520 O.2    43  THR43      -0.2732
     17  CB        69.4790    4.7210   64.3880 C.3    43  THR43       0.1783
     18  OG1       70.8730    4.7240   64.6900 O.3    43  THR43      -0.2211
     19  CG2       68.8660    3.5540   65.1010 C.3    43  THR43       0.0376
     20  N         69.3260    6.7400   61.6860 N.am   44  PRO44      -0.2728
     21  CA        70.0180    7.8730   61.0610 C.3    44  PRO44       0.1401
     22  C         70.9440    8.5630   62.0610 C.2    44  PRO44       0.2269
     23  O         70.6790    8.5470   63.2640 O.2    44  PRO44      -0.2865
     24  CB        68.8760    8.8070   60.6490 C.3    44  PRO44       0.0296
     25  CG        67.7240    8.4130   61.5040 C.3    44  PRO44       0.0237
     26  CD        67.8730    6.9500   61.7870 C.3    44  PRO44       0.0939
     27  N         72.7880   11.0580   64.5110 N.3    46  LEU46      -0.1245
     28  CA        72.6890   12.2460   65.3520 C.3    46  LEU46       0.1561
     29  C         73.9720   13.0720   65.2230 C.2    46  LEU46       0.2260
     30  O         75.0670   12.5240   65.0740 O.2    46  LEU46      -0.2867
     31  CB        72.4540   11.8090   66.8060 C.3    46  LEU46       0.0270
     32  CG        72.5030   12.8520   67.9270 C.3    46  LEU46       0.0019
     33  CD1       71.5690   12.4200   69.0340 C.3    46  LEU46       0.0001
     34  CD2       73.9140   12.9980   68.4870 C.3    46  LEU46       0.0001
     35  N         77.7730   10.9680   57.5700 N.3    51  GLN51      -0.1245
     36  CA        78.3830    9.7290   58.0540 C.3    51  GLN51       0.1566
     37  C         77.3480    8.6220   57.8440 C.2    51  GLN51       0.2260
     38  O         76.1620    8.9150   57.6690 O.2    51  GLN51      -0.2867
     39  CB        78.7960    9.8440   59.5320 C.3    51  GLN51       0.0367
     40  CG        77.6390   10.0400   60.4910 C.3    51  GLN51       0.0905
     41  CD        78.0930   10.1350   61.9340 C.2    51  GLN51       0.2608
     42  OE1       78.8520    9.2970   62.4160 O.2    51  GLN51      -0.2717
     43  NE2       77.6100   11.1470   62.6450 N.am   51  GLN51      -0.0878
     44  N         73.7610    4.2720   61.7460 N.3    54  TYR54      -0.1241
     45  CA        74.2280    3.4680   62.8720 C.3    54  TYR54       0.1605
     46  C         73.3980    2.2080   63.0570 C.2    54  TYR54       0.2264
     47  O         72.2110    2.1800   62.7350 O.2    54  TYR54      -0.2867
     48  CB        74.1500    4.2930   64.1730 C.3    54  TYR54       0.0534
     49  CG        75.2830    5.2610   64.3560 C.ar   54  TYR54      -0.0201
     50  CD1       75.3290    6.4480   63.6410 C.ar   54  TYR54      -0.0009
     51  CD2       76.3210    4.9750   65.2280 C.ar   54  TYR54      -0.0009
     52  CE1       76.3850    7.3310   63.8000 C.ar   54  TYR54       0.0417
     53  CE2       77.3790    5.8520   65.3970 C.ar   54  TYR54       0.0417
     54  CZ        77.4110    7.0160   64.6660 C.ar   54  TYR54       0.1957
     55  OH        78.4690    7.8780   64.8290 O.3    54  TYR54      -0.2866
     56  N         72.0480    0.6400   66.3160 N.3    56  ASN56      -0.1240
     57  CA        71.8690    0.9570   67.7330 C.3    56  ASN56       0.1653
     58  C         71.0980   -0.1550   68.4330 C.2    56  ASN56       0.2266
     59  O         70.1930   -0.7780   67.8500 O.2    56  ASN56      -0.2867
     60  CB        71.1710    2.3120   67.9480 C.3    56  ASN56       0.1155
     61  CG        72.1430    3.4820   67.9210 C.2    56  ASN56       0.2627
     62  OD1       72.1190    4.3140   67.0110 O.2    56  ASN56      -0.2716
     63  ND2       73.0080    3.5460   68.9160 N.am   56  ASN56      -0.0877
     64  N         80.4710   13.9880   67.7350 N.3    90  TRP90      -0.1241
     65  CA        79.4590   13.0270   67.2950 C.3    90  TRP90       0.1605
     66  C         79.7570   12.3850   65.9450 C.2    90  TRP90       0.2264
     67  O         78.8450   11.9440   65.2390 O.2    90  TRP90      -0.2867
     68  CB        78.0470   13.6360   67.3230 C.3    90  TRP90       0.0550
     69  CG        77.5800   13.9910   68.7060 C.ar   90  TRP90       0.0003
     70  CD1       77.2750   13.1260   69.7170 C.ar   90  TRP90       0.0946
     71  CD2       77.3690   15.3070   69.2300 C.ar   90  TRP90       0.0152
     72  NE1       76.8880   13.8190   70.8380 N.ar   90  TRP90      -0.2442
     73  CE2       76.9320   15.1610   70.5640 C.ar   90  TRP90       0.0810
     74  CE3       77.5090   16.5960   68.7030 C.ar   90  TRP90       0.0012
     75  CZ2       76.6460   16.2510   71.3800 C.ar   90  TRP90       0.0191
     76  CZ3       77.2230   17.6810   69.5160 C.ar   90  TRP90       0.0001
     77  CH2       76.7900   17.5010   70.8390 C.ar   90  TRP90       0.0015
     78  N         82.2250    6.0730   64.3390 N.3    93  ARG93      -0.1245
     79  CA        82.9470    5.2570   65.3030 C.3    93  ARG93       0.1563
     80  C         82.6810    3.7670   65.1020 C.2    93  ARG93       0.2260
     81  O         81.5690    3.3590   64.7400 O.2    93  ARG93      -0.2867
     82  CB        82.5030    5.6280   66.7130 C.3    93  ARG93       0.0307
     83  CG        81.0050    5.4260   66.9090 C.3    93  ARG93       0.0489
     84  CD        80.4680    6.2930   67.9860 C.3    93  ARG93       0.2205
     85  NE        80.5540    7.7060   67.6580 N.pl3  93  ARG93      -0.0865
     86  CZ        80.7000    8.6460   68.5820 C.cat  93  ARG93       0.5346
     87  NH1       80.8050    8.3020   69.8620 N.pl3  93  ARG93       0.1354
     88  NH2       80.7640    9.9170   68.2280 N.pl3  93  ARG93       0.1354
     89  N         80.4190    2.4070   70.2290 N.3    96  ASP96      -0.1239
     90  CA        80.0790    3.3080   71.3280 C.3    96  ASP96       0.1674
     91  C         79.3170    2.4970   72.3720 C.2    96  ASP96       0.2266
     92  O         78.3290    1.8420   72.0470 O.2    96  ASP96      -0.2867
     93  CB        79.1920    4.4570   70.8170 C.3    96  ASP96       0.1410
     94  CG        79.0850    5.6170   71.8020 C.2    96  ASP96       0.3668
     95  OD1       80.1360    6.1260   72.2460 O.co2  96  ASP96      -0.2456
     96  OD2       77.9420    6.0250   72.1290 O.co2  96  ASP96      -0.2456
     97  N         66.2440   10.6670   72.9510 N.3   122  ARG122     -0.1245
     98  CA        66.7450    9.8510   71.8470 C.3   122  ARG122      0.1563
     99  C         65.9680    8.5470   71.6930 C.2   122  ARG122      0.2260
    100  O         66.0890    7.6440   72.5190 O.2   122  ARG122     -0.2867
    101  CB        68.2310    9.5440   72.0420 C.3   122  ARG122      0.0307
    102  CG        69.1280   10.7680   72.0180 C.3   122  ARG122      0.0489
    103  CD        70.5590   10.3650   72.3040 C.3   122  ARG122      0.2205
    104  NE        71.4180   11.5330   72.4570 N.pl3 122  ARG122     -0.0865
    105  CZ        72.7440   11.4870   72.5570 C.cat 122  ARG122      0.5346
    106  NH1       73.3920   10.3290   72.5030 N.pl3 122  ARG122      0.1354
    107  NH2       73.4220   12.6140   72.7030 N.pl3 122  ARG122      0.1354
    108  N         66.5900    6.2550   69.6660 N.3   124  PHE124     -0.1227
    109  CA        67.5220    5.1440   69.4610 C.3   124  PHE124      0.1736
    110  C         68.1380    4.5880   70.7500 C.2   124  PHE124      0.2595
    111  O         68.7760    3.5350   70.7270 O.2   124  PHE124     -0.2718
    112  CB        68.5830    5.4520   68.3930 C.3   124  PHE124      0.0547
    113  CG        69.5920    6.5070   68.7770 C.ar  124  PHE124     -0.0202
    114  CD1       70.6900    6.1950   69.5620 C.ar  124  PHE124     -0.0042
    115  CD2       69.4830    7.7970   68.2730 C.ar  124  PHE124     -0.0042
    116  CE1       71.6390    7.1630   69.8780 C.ar  124  PHE124     -0.0003
    117  CE2       70.4260    8.7670   68.5830 C.ar  124  PHE124     -0.0003
    118  CZ        71.5060    8.4480   69.3770 C.ar  124  PHE124     -0.0000
    119  N         67.9350    5.2990   71.8610 N.am  125  MET125     -0.1979
    120  CA        68.2330    4.7620   73.1820 C.3   125  MET125      0.1605
    121  C         66.9660    4.2170   73.8530 C.2   125  MET125      0.2287
    122  O         66.9780    3.1180   74.4020 O.2   125  MET125     -0.2864
    123  CB        68.8900    5.8310   74.0630 C.3   125  MET125      0.0413
    124  CG        70.3120    6.1640   73.6510 C.3   125  MET125      0.0598
    125  SD        71.0640    7.2860   74.8390 S.3   125  MET125     -0.1393
    126  CE        72.7870    6.9190   74.6070 C.3   125  MET125      0.0692
@<TRIPOS>BOND
     1    35    36    1
     2    38    37    2
     3    37    36    1
     4    36    39    1
     5    39    40    1
     6    40    41    1
     7    24    21    1
     8    24    25    1
     9    21    20    1
    10    21    22    1
    11    25    26    1
    12    20    26    1
    13    20    15   am
    14    44    45    1
    15    41    42    2
    16    41    43   am
    17    16    15    2
    18    22    23    2
    19    15    14    1
    20    13    14    1
    21    47    46    2
    22    14    17    1
    23    45    46    1
    24    45    48    1
    25    50    52   ar
    26    50    49   ar
    27    52    54   ar
    28    48    49    1
    29    78    79    1
    30    49    51   ar
    31    17    18    1
    32    17    19    1
    33    27    28    1
    34    54    55    1
    35    54    53   ar
    36    81    80    2
    37    30    29    2
    38    80    79    1
    39    29    28    1
    40    51    53   ar
    41    67    66    2
    42    79    82    1
    43    28    31    1
    44    66    65    1
    45    56    57    1
    46    82    83    1
    47    31    32    1
    48    83    84    1
    49    62    61    2
    50    65    68    1
    51    65    64    1
    52    68    69    1
    53    85    84    1
    54    85    86    2
    55    57    60    1
    56    57    58    1
    57    59    58    2
    58    11    12    2
    59    11    10    1
    60    61    60    1
    61    61    63   am
    62    32    34    1
    63    32    33    1
    64    88    86    1
    65   115   117   ar
    66   115   113   ar
    67   112   113    1
    68   112   109    1
    69    86    87    1
    70   117   118   ar
    71    10     9    1
    72    74    71   ar
    73    74    76   ar
    74    69    71   ar
    75    69    70   ar
    76   113   114   ar
    77    71    73   ar
    78   118   116   ar
    79   109   108    1
    80   109   110    1
    81    76    77   ar
    82   114   116   ar
    83    70    72   ar
    84     9     3   am
    85     4     3    2
    86    89    90    1
    87    73    72   ar
    88    73    75   ar
    89     3     2    1
    90   111   110    2
    91   110   119   am
    92     7     5    1
    93    93    90    1
    94    93    94    1
    95    77    75   ar
    96    90    91    1
    97    99    98    1
    98    99   100    2
    99     5     2    1
   100     5     6    1
   101    94    96   ar
   102    94    95   ar
   103    98   101    1
   104    98    97    1
   105   119   120    1
   106     2     1    1
   107   102   101    1
   108   102   103    1
   109    92    91    2
   110   103   104    1
   111   104   105    2
   112   106   105    1
   113   105   107    1
   114     8     6    1
   115   120   121    1
   116   120   123    1
   117   124   123    1
   118   124   125    1
   119   121   122    2
   120   126   125    1
