@<TRIPOS>MOLECULE
tmp/4m5nA01.pdb
 112 107 0 0 0
SMALL
GASTEIGER

@<TRIPOS>ATOM
      1  N         36.7270  -16.4390   -7.7740 N.3    10  GLY10      -0.1225
      2  CA        37.8490  -15.5180   -7.7340 C.3    10  GLY10       0.1811
      3  C         37.4410  -14.1820   -8.3400 C.2    10  GLY10       0.2280
      4  O         36.7400  -14.1420   -9.3590 O.2    10  GLY10      -0.2866
      5  N         43.8480  -12.8130   -1.1950 N.3    44  THR44      -0.1204
      6  CA        45.0490  -13.5430   -1.5610 C.3    44  THR44       0.1979
      7  C         45.8880  -12.7350   -2.5340 C.2    44  THR44       0.2459
      8  O         45.3510  -12.0840   -3.4240 O.2    44  THR44      -0.2732
      9  CB        44.6970  -14.8970   -2.1990 C.3    44  THR44       0.1783
     10  OG1       44.0580  -14.6680   -3.4540 O.3    44  THR44      -0.2211
     11  CG2       43.7440  -15.6820   -1.2980 C.3    44  THR44       0.0376
     12  N         47.2150  -12.7810   -2.3750 N.am   45  PRO45      -0.2728
     13  CA        48.0440  -12.0870   -3.3630 C.3    45  PRO45       0.1401
     14  C         47.9280  -12.8210   -4.7020 C.2    45  PRO45       0.2269
     15  O         47.6580  -14.0270   -4.7220 O.2    45  PRO45      -0.2865
     16  CB        49.4580  -12.2080   -2.7840 C.3    45  PRO45       0.0296
     17  CG        49.4170  -13.4530   -1.9690 C.3    45  PRO45       0.0237
     18  CD        48.0150  -13.5540   -1.4090 C.3    45  PRO45       0.0939
     19  N         48.3450  -14.9510   -7.9300 N.3    47  LEU47      -0.1245
     20  CA        49.1700  -15.9430   -8.6170 C.3    47  LEU47       0.1561
     21  C         49.1610  -15.5700  -10.0970 C.2    47  LEU47       0.2260
     22  O         48.1350  -15.7150  -10.7720 O.2    47  LEU47      -0.2867
     23  CB        48.5820  -17.3410   -8.4280 C.3    47  LEU47       0.0270
     24  CG        49.2920  -18.5020   -9.1260 C.3    47  LEU47       0.0019
     25  CD1       50.6780  -18.6880   -8.5480 C.3    47  LEU47       0.0001
     26  CD2       48.4790  -19.7950   -9.0030 C.3    47  LEU47       0.0001
     27  N         43.2540  -10.7710   -4.7870 N.3    55  TYR55      -0.1241
     28  CA        42.0080  -11.4520   -5.0790 C.3    55  TYR55       0.1605
     29  C         41.1540  -11.6800   -3.8490 C.2    55  TYR55       0.2264
     30  O         41.6630  -11.8500   -2.7410 O.2    55  TYR55      -0.2867
     31  CB        42.2970  -12.8250   -5.7110 C.3    55  TYR55       0.0534
     32  CG        42.6150  -12.7360   -7.1700 C.ar   55  TYR55      -0.0201
     33  CD1       43.8800  -12.3380   -7.6030 C.ar   55  TYR55      -0.0009
     34  CD2       41.6520  -13.0250   -8.1200 C.ar   55  TYR55      -0.0009
     35  CE1       44.1650  -12.2320   -8.9510 C.ar   55  TYR55       0.0417
     36  CE2       41.9330  -12.9290   -9.4670 C.ar   55  TYR55       0.0417
     37  CZ        43.1750  -12.5300   -9.8700 C.ar   55  TYR55       0.1957
     38  OH        43.4280  -12.4420  -11.2040 O.3    55  TYR55      -0.2866
     39  N         38.9840  -14.6960   -2.8690 N.3    57  ASN57      -0.1240
     40  CA        38.6920  -16.0700   -3.2650 C.3    57  ASN57       0.1653
     41  C         37.7290  -16.6910   -2.2620 C.2    57  ASN57       0.2266
     42  O         37.7910  -16.3940   -1.0690 O.2    57  ASN57      -0.2867
     43  CB        39.9790  -16.9090   -3.3490 C.3    57  ASN57       0.1155
     44  CG        40.8230  -16.5620   -4.5520 C.2    57  ASN57       0.2627
     45  OD1       41.9420  -16.0560   -4.4200 O.2    57  ASN57      -0.2716
     46  ND2       40.2960  -16.8450   -5.7430 N.am   57  ASN57      -0.0877
     47  N         45.2930  -16.7900  -18.7390 N.3    90  ARG90      -0.1231
     48  CA        44.3800  -17.0940  -17.6260 C.3    90  ARG90       0.1694
     49  C         44.8140  -16.6890  -16.2090 C.2    90  ARG90       0.2592
     50  O         44.1570  -17.0520  -15.2130 O.2    90  ARG90      -0.2718
     51  CB        44.0070  -18.5810  -17.6600 C.3    90  ARG90       0.0321
     52  CG        45.1840  -19.5280  -17.6130 C.3    90  ARG90       0.0489
     53  CD        44.8880  -20.7750  -18.4290 C.3    90  ARG90       0.2205
     54  NE        45.5820  -21.9420  -17.9000 N.pl3  90  ARG90      -0.0865
     55  CZ        46.8670  -22.2160  -18.1130 C.cat  90  ARG90       0.5346
     56  NH1       47.6160  -21.4020  -18.8470 N.pl3  90  ARG90       0.1354
     57  NH2       47.4080  -23.3070  -17.5860 N.pl3  90  ARG90       0.1354
     58  N         45.8910  -15.9170  -16.1310 N.am   91  TRP91      -0.1976
     59  CA        46.4830  -15.5430  -14.8580 C.3    91  TRP91       0.1640
     60  C         46.2950  -14.0550  -14.5880 C.2    91  TRP91       0.2290
     61  O         46.6540  -13.5630  -13.5190 O.2    91  TRP91      -0.2864
     62  CB        47.9760  -15.8910  -14.8690 C.3    91  TRP91       0.0576
     63  CG        48.2370  -17.3420  -15.1780 C.ar   91  TRP91       0.0006
     64  CD1       48.6890  -17.8750  -16.3620 C.ar   91  TRP91       0.0946
     65  CD2       48.0610  -18.4430  -14.2840 C.ar   91  TRP91       0.0152
     66  NE1       48.7970  -19.2450  -16.2470 N.ar   91  TRP91      -0.2442
     67  CE2       48.4140  -19.6160  -14.9830 C.ar   91  TRP91       0.0810
     68  CE3       47.6320  -18.5510  -12.9570 C.ar   91  TRP91       0.0012
     69  CZ2       48.3620  -20.8800  -14.3920 C.ar   91  TRP91       0.0191
     70  CZ3       47.5770  -19.8040  -12.3790 C.ar   91  TRP91       0.0001
     71  CH2       47.9410  -20.9490  -13.0930 C.ar   91  TRP91       0.0015
     72  N         40.3910  -10.2940  -13.3660 N.3    94  ARG94      -0.1245
     73  CA        39.0260  -10.4590  -13.8680 C.3    94  ARG94       0.1563
     74  C         38.0230  -10.0220  -12.8170 C.2    94  ARG94       0.2260
     75  O         38.3230  -10.0200  -11.6210 O.2    94  ARG94      -0.2867
     76  CB        38.7590  -11.9160  -14.2920 C.3    94  ARG94       0.0307
     77  CG        38.6950  -12.9280  -13.1340 C.3    94  ARG94       0.0489
     78  CD        40.0930  -13.3980  -12.7310 C.3    94  ARG94       0.2205
     79  NE        40.8560  -13.7440  -13.9220 N.pl3  94  ARG94      -0.0865
     80  CZ        40.9650  -14.9780  -14.4050 C.cat  94  ARG94       0.5346
     81  NH1       40.3900  -15.9990  -13.7790 N.pl3  94  ARG94       0.1354
     82  NH2       41.6680  -15.1890  -15.5070 N.pl3  94  ARG94       0.1354
     83  N         35.5770  -15.0600  -11.6500 N.3    97  ASP97      -0.1239
     84  CA        35.8870  -16.3690  -12.2080 C.3    97  ASP97       0.1674
     85  C         35.1010  -17.3850  -11.4070 C.2    97  ASP97       0.2266
     86  O         35.1940  -17.4190  -10.1790 O.2    97  ASP97      -0.2867
     87  CB        37.3850  -16.6560  -12.0960 C.3    97  ASP97       0.1410
     88  CG        37.8000  -17.9610  -12.7910 C.2    97  ASP97       0.3668
     89  OD1       37.3820  -18.2250  -13.9420 O.co2  97  ASP97      -0.2456
     90  OD2       38.5790  -18.7290  -12.1840 O.co2  97  ASP97      -0.2456
     91  N         46.8370  -25.0770   -5.6560 N.3   123  ARG123     -0.1245
     92  CA        46.4270  -23.7150   -5.3240 C.3   123  ARG123      0.1563
     93  C         45.8300  -23.5960   -3.9350 C.2   123  ARG123      0.2260
     94  O         44.6870  -24.0140   -3.7000 O.2   123  ARG123     -0.2867
     95  CB        45.4090  -23.2010   -6.3450 C.3   123  ARG123      0.0307
     96  CG        45.9260  -23.2140   -7.7630 C.3   123  ARG123      0.0489
     97  CD        44.9240  -22.6030   -8.7080 C.3   123  ARG123      0.2205
     98  NE        45.3940  -22.6950  -10.0880 N.pl3 123  ARG123     -0.0865
     99  CZ        44.6700  -22.3360  -11.1420 C.cat 123  ARG123      0.5346
    100  NH1       43.4380  -21.8600  -10.9690 N.pl3 123  ARG123      0.1354
    101  NH2       45.1760  -22.4590  -12.3560 N.pl3 123  ARG123      0.1354
    102  N         44.6500  -21.0630   -2.5930 N.3   125  PHE125     -0.1241
    103  CA        43.4600  -20.2120   -2.5850 C.3   125  PHE125      0.1605
    104  C         42.2040  -20.9250   -3.0840 C.2   125  PHE125      0.2264
    105  O         41.1000  -20.3800   -2.9990 O.2   125  PHE125     -0.2867
    106  CB        43.6950  -18.8890   -3.3270 C.3   125  PHE125      0.0534
    107  CG        44.0710  -19.0460   -4.7750 C.ar  125  PHE125     -0.0203
    108  CD1       43.0970  -19.2170   -5.7510 C.ar  125  PHE125     -0.0042
    109  CD2       45.3930  -18.9680   -5.1630 C.ar  125  PHE125     -0.0042
    110  CE1       43.4420  -19.3430   -7.0840 C.ar  125  PHE125     -0.0003
    111  CE2       45.7490  -19.0920   -6.5020 C.ar  125  PHE125     -0.0003
    112  CZ        44.7720  -19.2760   -7.4600 C.ar  125  PHE125     -0.0000
@<TRIPOS>BOND
     1    56    55    1
     2    47    48    1
     3    53    54    1
     4    53    52    1
     5    55    54    2
     6    55    57    1
     7    51    48    1
     8    51    52    1
     9    48    49    1
    10    64    66   ar
    11    64    63   ar
    12    66    67   ar
    13    49    58   am
    14    49    50    2
    15    58    59    1
    16    82    80    1
    17    63    62    1
    18    63    65   ar
    19    67    69   ar
    20    67    65   ar
    21    62    59    1
    22    59    60    1
    23    60    61    2
    24    80    79    2
    25    80    81    1
    26    69    71   ar
    27    76    73    1
    28    76    77    1
    29    65    68   ar
    30    89    88   ar
    31    79    78    1
    32    73    72    1
    33    73    74    1
    34    77    78    1
    35    71    70   ar
    36    68    70   ar
    37    74    75    2
    38    88    90   ar
    39    88    87    1
    40   101    99    1
    41    84    87    1
    42    84    83    1
    43    84    85    1
    44    85    86    2
    45    38    37    1
    46    99   100    1
    47    99    98    2
    48    22    21    2
    49    21    20    1
    50    98    97    1
    51    37    36   ar
    52    37    35   ar
    53    36    34   ar
    54     4     3    2
    55    24    26    1
    56    24    25    1
    57    24    23    1
    58    35    33   ar
    59    97    96    1
    60    20    23    1
    61    20    19    1
    62     3     2    1
    63    34    32   ar
    64     1     2    1
    65    96    95    1
    66    33    32   ar
    67   112   110   ar
    68   112   111   ar
    69    32    31    1
    70   110   108   ar
    71   111   109   ar
    72    95    92    1
    73   108   107   ar
    74    46    44   am
    75    31    28    1
    76    91    92    1
    77    92    93    1
    78   109   107   ar
    79    28    27    1
    80    28    29    1
    81   107   106    1
    82    15    14    2
    83    14    13    1
    84    44    45    2
    85    44    43    1
    86    93    94    2
    87    29    30    2
    88    10     9    1
    89     8     7    2
    90    13    16    1
    91    13    12    1
    92    43    40    1
    93   106   103    1
    94    40    39    1
    95    40    41    1
    96   104   105    2
    97   104   103    1
    98    16    17    1
    99   102   103    1
   100     7    12   am
   101     7     6    1
   102    12    18    1
   103    41    42    2
   104     9     6    1
   105     9    11    1
   106    17    18    1
   107     6     5    1
