@<TRIPOS>MOLECULE
tmp/4m5oA00.pdb
 113 104 0 0 0
SMALL
GASTEIGER

@<TRIPOS>ATOM
      1  N         18.3560   25.9460  -17.4600 N.3    39  LYS39      -0.1245
      2  CA        17.2120   25.1700  -16.9840 C.3    39  LYS39       0.1561
      3  C         17.6200   23.7290  -16.7170 C.2    39  LYS39       0.2260
      4  O         17.1670   23.1150  -15.7550 O.2    39  LYS39      -0.2867
      5  CB        16.0690   25.2070  -17.9910 C.3    39  LYS39       0.0271
      6  CG        14.6920   25.3040  -17.3610 C.3    39  LYS39       0.0035
      7  CD        13.6250   25.3980  -18.4420 C.3    39  LYS39       0.0206
      8  CE        13.2320   26.8480  -18.7460 C.3    39  LYS39       0.1093
      9  NZ        12.1190   26.9580  -19.7520 N.3    39  LYS39      -0.1314
     10  N         19.3260   23.6030  -13.5010 N.3    42  ALA42      -0.1231
     11  CA        18.3620   23.7880  -12.4330 C.3    42  ALA42       0.1694
     12  C         17.5780   22.4940  -12.1770 C.2    42  ALA42       0.2591
     13  O         17.3570   22.1030  -11.0290 O.2    42  ALA42      -0.2718
     14  CB        17.4180   24.9310  -12.7830 C.3    42  ALA42       0.0304
     15  N         17.2030   21.8110  -13.2530 N.am   43  ILE43      -0.1980
     16  CA        16.4900   20.5440  -13.1580 C.3    43  ILE43       0.1595
     17  C         17.3540   19.4340  -12.5440 C.2    43  ILE43       0.2287
     18  O         16.8730   18.6590  -11.6980 O.2    43  ILE43      -0.2864
     19  CB        15.9420   20.1300  -14.5420 C.3    43  ILE43       0.0276
     20  CG1       14.7930   21.0760  -14.9090 C.3    43  ILE43       0.0022
     21  CG2       15.4200   18.6910  -14.5150 C.3    43  ILE43       0.0022
     22  CD1       14.3630   21.0400  -16.3690 C.3    43  ILE43       0.0001
     23  N         17.5290   20.3230   -8.7660 N.3    46  HIS46      -0.1241
     24  CA        16.2810   20.0100   -8.0780 C.3    46  HIS46       0.1621
     25  C         16.1420   18.5030   -7.8550 C.2    46  HIS46       0.2264
     26  O         15.7940   18.0670   -6.7610 O.2    46  HIS46      -0.2867
     27  CB        15.0890   20.5570   -8.8770 C.3    46  HIS46       0.0745
     28  CG        13.7320   20.1470   -8.3640 C.ar   46  HIS46       0.0817
     29  ND1       13.0960   18.9920   -8.7790 N.ar   46  HIS46      -0.2268
     30  CD2       12.8800   20.7480   -7.4920 C.ar   46  HIS46       0.1154
     31  CE1       11.9080   18.9100   -8.2010 C.ar   46  HIS46       0.1986
     32  NE2       11.7570   19.9560   -7.4050 N.ar   46  HIS46      -0.2212
     33  N          9.2680   12.5460   -8.0590 N.3    85  GLU85      -0.1245
     34  CA         9.9210   13.3030   -9.1150 C.3    85  GLU85       0.1567
     35  C         10.9280   12.3880   -9.8180 C.2    85  GLU85       0.2260
     36  O         11.5200   11.4870   -9.2080 O.2    85  GLU85      -0.2867
     37  CB        10.5720   14.5780   -8.5470 C.3    85  GLU85       0.0388
     38  CG        11.4570   15.3040   -9.5510 C.3    85  GLU85       0.1160
     39  CD        10.5590   15.9630  -10.5900 C.2    85  GLU85       0.3649
     40  OE1       10.4160   15.3880  -11.6860 O.co2  85  GLU85      -0.2457
     41  OE2        9.9250   16.9970  -10.2930 O.co2  85  GLU85      -0.2457
     42  N          1.6080   16.4810   -9.7620 N.3   111  LEU111     -0.1245
     43  CA         2.6170   15.5770   -9.2810 C.3   111  LEU111      0.1561
     44  C          3.4970   16.3160   -8.2640 C.2   111  LEU111      0.2260
     45  O          4.1520   17.3030   -8.6000 O.2   111  LEU111     -0.2867
     46  CB         3.4430   15.0750  -10.4590 C.3   111  LEU111      0.0270
     47  CG         2.8620   13.8940  -11.2430 C.3   111  LEU111      0.0019
     48  CD1        3.8180   13.4970  -12.3680 C.3   111  LEU111      0.0001
     49  CD2        2.5410   12.6960  -10.3410 C.3   111  LEU111      0.0001
     50  N          6.7670   15.9490   -5.3520 N.3   113  ASP113     -0.1239
     51  CA         8.1070   15.3970   -5.4960 C.3   113  ASP113      0.1674
     52  C          8.4030   14.1690   -4.6400 C.2   113  ASP113      0.2266
     53  O          9.1350   13.2760   -5.0660 O.2   113  ASP113     -0.2867
     54  CB         9.1240   16.4730   -5.1530 C.3   113  ASP113      0.1410
     55  CG         9.1510   17.5750   -6.1740 C.2   113  ASP113      0.3668
     56  OD1        9.1110   17.2500   -7.3760 O.co2 113  ASP113     -0.2456
     57  OD2        9.1800   18.7520   -5.7670 O.co2 113  ASP113     -0.2456
     58  N          6.4320   18.9810   -1.8080 N.3   124  GLU124     -0.1231
     59  CA         6.8970   19.7060   -2.9740 C.3   124  GLU124      0.1699
     60  C          8.2230   20.3450   -2.5980 C.2   124  GLU124      0.2592
     61  O          8.2900   21.1290   -1.6420 O.2   124  GLU124     -0.2718
     62  CB         5.9040   20.7870   -3.3960 C.3   124  GLU124      0.0402
     63  CG         6.4140   21.6800   -4.5220 C.3   124  GLU124      0.1161
     64  CD         6.7430   20.8740   -5.7660 C.2   124  GLU124      0.3649
     65  OE1        5.9490   19.9540   -6.0630 O.co2 124  GLU124     -0.2457
     66  OE2        7.7250   21.1940   -6.4810 O.co2 124  GLU124     -0.2457
     67  N          9.2700   19.9590   -3.3110 N.am  125  ILE125     -0.1980
     68  CA        10.6170   20.4980   -3.1310 C.3   125  ILE125      0.1595
     69  C         10.8450   21.6790   -4.0670 C.2   125  ILE125      0.2287
     70  O         10.4870   21.6300   -5.2440 O.2   125  ILE125     -0.2864
     71  CB        11.6940   19.4350   -3.4130 C.3   125  ILE125      0.0276
     72  CG1       11.6700   18.3150   -2.3550 C.3   125  ILE125      0.0022
     73  CG2       13.0750   20.0710   -3.4010 C.3   125  ILE125      0.0022
     74  CD1       12.0150   18.7890   -0.9420 C.3   125  ILE125      0.0001
     75  N         13.8610   24.6230   -5.2560 N.3   127  VAL127     -0.1245
     76  CA        15.2270   25.1170   -5.1720 C.3   127  VAL127      0.1561
     77  C         15.3290   26.4050   -5.9470 C.2   127  VAL127      0.2260
     78  O         15.0050   26.4410   -7.1290 O.2   127  VAL127     -0.2867
     79  CB        16.2550   24.1230   -5.7160 C.3   127  VAL127      0.0252
     80  CG1       17.6550   24.6950   -5.5550 C.3   127  VAL127      0.0019
     81  CG2       16.1200   22.7730   -5.0100 C.3   127  VAL127      0.0019
     82  N         17.2800   30.3910   -6.8310 N.3   129  ARG129     -0.1245
     83  CA        18.3830   31.3550   -6.8500 C.3   129  ARG129      0.1563
     84  C         17.9030   32.7390   -6.4040 C.2   129  ARG129      0.2260
     85  O         18.6770   33.6980   -6.3470 O.2   129  ARG129     -0.2867
     86  CB        18.9840   31.4510   -8.2540 C.3   129  ARG129      0.0307
     87  CG        19.6980   30.1910   -8.7200 C.3   129  ARG129      0.0489
     88  CD        18.7750   29.2910   -9.5330 C.3   129  ARG129      0.2205
     89  NE        18.7420   29.6700  -10.9420 N.pl3 129  ARG129     -0.0865
     90  CZ        17.9030   29.1550  -11.8380 C.cat 129  ARG129      0.5346
     91  NH1       17.0060   28.2510  -11.4680 N.pl3 129  ARG129      0.1354
     92  NH2       17.9550   29.5540  -13.1060 N.pl3 129  ARG129      0.1354
     93  N          9.7720   32.6120   -3.7810 N.3   135  TYR135     -0.1241
     94  CA         9.6270   31.3490   -4.4830 C.3   135  TYR135      0.1605
     95  C          8.5790   30.4920   -3.7800 C.2   135  TYR135      0.2264
     96  O          7.7660   29.8390   -4.4390 O.2   135  TYR135     -0.2867
     97  CB        10.9590   30.6050   -4.5720 C.3   135  TYR135      0.0534
     98  CG        10.9130   29.4130   -5.5030 C.ar  135  TYR135     -0.0201
     99  CD1       11.0750   29.5730   -6.8700 C.ar  135  TYR135     -0.0009
    100  CD2       10.7150   28.1300   -5.0170 C.ar  135  TYR135     -0.0009
    101  CE1       11.0300   28.4920   -7.7290 C.ar  135  TYR135      0.0417
    102  CE2       10.6710   27.0320   -5.8760 C.ar  135  TYR135      0.0417
    103  CZ        10.8320   27.2220   -7.2310 C.ar  135  TYR135      0.1957
    104  OH        10.7910   26.1550   -8.1040 O.3   135  TYR135     -0.2866
    105  N          4.9980   28.8250   -5.4620 N.3   139  LYS139     -0.1245
    106  CA         4.6390   27.4140   -5.5130 C.3   139  LYS139      0.1561
    107  C          3.3420   27.1540   -4.7710 C.2   139  LYS139      0.2260
    108  O          2.5460   26.3200   -5.1930 O.2   139  LYS139     -0.2867
    109  CB         5.7540   26.5260   -4.9690 C.3   139  LYS139      0.0271
    110  CG         6.6940   26.1120   -6.0770 C.3   139  LYS139      0.0035
    111  CD         7.5000   24.9130   -5.7320 C.3   139  LYS139      0.0206
    112  CE         8.3510   24.5100   -6.9080 C.3   139  LYS139      0.1093
    113  NZ         7.5750   24.2000   -8.1080 N.3   139  LYS139     -0.1314
@<TRIPOS>BOND
     1     9     8    1
     2     8     7    1
     3     7     6    1
     4     5     6    1
     5     5     2    1
     6     1     2    1
     7     2     3    1
     8     3     4    2
     9    22    20    1
    10    20    19    1
    11    19    21    1
    12    19    16    1
    13    10    11    1
    14    15    16    1
    15    15    12   am
    16    16    17    1
    17    92    90    1
    18    14    11    1
    19    17    18    2
    20    11    12    1
    21    48    47    1
    22    12    13    2
    23    90    91    1
    24    90    89    2
    25    40    39   ar
    26    47    46    1
    27    47    49    1
    28    89    88    1
    29    39    41   ar
    30    39    38    1
    31    46    43    1
    32    35    36    2
    33    35    34    1
    34    42    43    1
    35    38    37    1
    36    88    87    1
    37    43    44    1
    38    34    37    1
    39    34    33    1
    40    27    28    1
    41    27    24    1
    42    29    28   ar
    43    29    31   ar
    44    23    24    1
    45    87    86    1
    46    45    44    2
    47    28    30   ar
    48    86    83    1
    49    31    32   ar
    50   113   112    1
    51   104   103    1
    52    24    25    1
    53    25    26    2
    54   101   103   ar
    55   101    99   ar
    56    30    32   ar
    57    56    55   ar
    58   103   102   ar
    59    78    77    2
    60   112   111    1
    61    99    98   ar
    62    83    82    1
    63    83    84    1
    64    66    64   ar
    65    84    85    2
    66    55    57   ar
    67    55    54    1
    68   110   111    1
    69   110   109    1
    70    65    64   ar
    71    77    76    1
    72   102   100   ar
    73    64    63    1
    74    79    80    1
    75    79    76    1
    76    79    81    1
    77   106   105    1
    78   106   109    1
    79   106   107    1
    80    98   100   ar
    81    98    97    1
    82    51    50    1
    83    51    54    1
    84    51    52    1
    85    75    76    1
    86    70    69    2
    87   108   107    2
    88    53    52    2
    89    97    94    1
    90    63    62    1
    91    94    93    1
    92    94    95    1
    93    96    95    2
    94    69    68    1
    95    71    73    1
    96    71    68    1
    97    71    72    1
    98    62    59    1
    99    67    68    1
   100    67    60   am
   101    59    60    1
   102    59    58    1
   103    60    61    2
   104    72    74    1
