@<TRIPOS>MOLECULE
tmp/4m5oA01.pdb
 94 90 0 0 0
SMALL
GASTEIGER

@<TRIPOS>ATOM
      1  N         18.0020   11.2960  -16.1440 N.3    21  LEU21      -0.1245
      2  CA        16.6050   11.5290  -15.7760 C.3    21  LEU21       0.1561
      3  C         16.1760   12.9450  -16.1440 C.2    21  LEU21       0.2260
      4  O         15.0570   13.1590  -16.6050 O.2    21  LEU21      -0.2867
      5  CB        16.3740   11.2700  -14.2760 C.3    21  LEU21       0.0270
      6  CG        16.4220    9.8150  -13.8170 C.3    21  LEU21       0.0019
      7  CD1       16.3280    9.7320  -12.3050 C.3    21  LEU21       0.0001
      8  CD2       15.2930    9.0150  -14.4610 C.3    21  LEU21       0.0001
      9  N         15.5780   13.2530  -19.9790 N.3    24  LYS24      -0.1231
     10  CA        14.3310   12.6050  -20.3770 C.3    24  LYS24       0.1693
     11  C         13.1370   13.4800  -19.9920 C.2    24  LYS24       0.2591
     12  O         12.1960   13.6170  -20.7620 O.2    24  LYS24      -0.2718
     13  CB        14.2380   11.2260  -19.7390 C.3    24  LYS24       0.0285
     14  CG        15.2390   10.2530  -20.3350 C.3    24  LYS24       0.0035
     15  CD        15.1570    8.8890  -19.6830 C.3    24  LYS24       0.0206
     16  CE        16.2350    7.9610  -20.2230 C.3    24  LYS24       0.1093
     17  NZ        16.1890    6.6310  -19.5660 N.3    24  LYS24      -0.1314
     18  N         13.1950   14.0780  -18.8020 N.am   25  ALA25      -0.1980
     19  CA        12.1540   14.9920  -18.3480 C.3    25  ALA25       0.1597
     20  C         12.0370   16.2270  -19.2520 C.2    25  ALA25       0.2287
     21  O         10.9400   16.5500  -19.7020 O.2    25  ALA25      -0.2864
     22  CB        12.4130   15.4120  -16.9110 C.3    25  ALA25       0.0319
     23  N         10.5600   15.3300  -22.5710 N.3    28  GLU28      -0.1231
     24  CA         9.1510   15.0460  -22.4470 C.3    28  GLU28       0.1699
     25  C          8.3230   16.3420  -22.4930 C.2    28  GLU28       0.2592
     26  O          7.2290   16.3520  -23.0460 O.2    28  GLU28      -0.2718
     27  CB         8.9010   14.2910  -21.1450 C.3    28  GLU28       0.0402
     28  CG         7.5230   13.7660  -20.9990 C.3    28  GLU28       0.1161
     29  CD         7.4340   12.3110  -21.4040 C.2    28  GLU28       0.3649
     30  OE1        8.1980   11.8870  -22.3000 O.co2  28  GLU28      -0.2457
     31  OE2        6.5840   11.5960  -20.8400 O.co2  28  GLU28      -0.2457
     32  N          8.8530   17.4550  -21.9770 N.am   29  TYR29      -0.1976
     33  CA         8.0290   18.6620  -21.9560 C.3    29  TYR29       0.1639
     34  C          8.4700   19.5910  -23.0780 C.2    29  TYR29       0.2290
     35  O          8.0910   20.7570  -23.1240 O.2    29  TYR29      -0.2864
     36  CB         8.1090   19.3950  -20.5990 C.3    29  TYR29       0.0560
     37  CG         7.5410   18.5690  -19.4510 C.ar   29  TYR29      -0.0198
     38  CD1        6.1820   18.5850  -19.1510 C.ar   29  TYR29      -0.0009
     39  CD2        8.3890   17.8720  -18.5930 C.ar   29  TYR29      -0.0009
     40  CE1        5.6670   17.8280  -18.0980 C.ar   29  TYR29       0.0417
     41  CE2        7.8900   17.1260  -17.5210 C.ar   29  TYR29       0.0417
     42  CZ         6.5300   17.1110  -17.2790 C.ar   29  TYR29       0.1957
     43  OH         6.0250   16.3730  -16.2250 O.3    29  TYR29      -0.2866
     44  N          9.2680   12.5460   -8.0590 N.3    85  GLU85      -0.1231
     45  CA         9.9210   13.3030   -9.1150 C.3    85  GLU85       0.1699
     46  C         10.9280   12.3880   -9.8180 C.2    85  GLU85       0.2593
     47  O         11.5200   11.4870   -9.2080 O.2    85  GLU85      -0.2718
     48  CB        10.5720   14.5780   -8.5470 C.3    85  GLU85       0.0402
     49  CG        11.4570   15.3040   -9.5510 C.3    85  GLU85       0.1161
     50  CD        10.5590   15.9630  -10.5900 C.2    85  GLU85       0.3649
     51  OE1       10.4160   15.3880  -11.6860 O.co2  85  GLU85      -0.2457
     52  OE2        9.9250   16.9970  -10.2930 O.co2  85  GLU85      -0.2457
     53  N         11.1130   12.6110  -11.1120 N.am   86  GLY86      -0.1942
     54  CA        12.0670   11.8590  -11.9020 C.3    86  GLY86       0.2014
     55  C         11.4920   10.6060  -12.5470 C.2    86  GLY86       0.2639
     56  O         12.1870    9.9420  -13.3030 O.2    86  GLY86      -0.2714
     57  N         10.1860   10.3960  -12.4220 N.am   87  ARG87      -0.1963
     58  CA         9.5350    9.2140  -13.0090 C.3    87  ARG87       0.1729
     59  C          8.6960    9.7580  -14.1480 C.2    87  ARG87       0.2616
     60  O          8.2260   10.8850  -14.0590 O.2    87  ARG87      -0.2715
     61  CB         8.6220    8.4920  -12.0140 C.3    87  ARG87       0.0348
     62  CG         9.2750    7.9310  -10.7640 C.3    87  ARG87       0.0492
     63  CD         8.2430    7.2220   -9.9050 C.3    87  ARG87       0.2205
     64  NE         8.8390    6.8150   -8.6410 N.pl3  87  ARG87      -0.0865
     65  CZ         9.4590    5.6610   -8.4340 C.cat  87  ARG87       0.5346
     66  NH1        9.5180    4.7380   -9.3970 N.pl3  87  ARG87       0.1354
     67  NH2        9.9800    5.4160   -7.2430 N.pl3  87  ARG87       0.1354
     68  N          8.5110    8.9970  -15.2240 N.am   88  ASP88      -0.1957
     69  CA         7.6340    9.4870  -16.2850 C.3    88  ASP88       0.1840
     70  C          6.2330    9.6450  -15.6960 C.2    88  ASP88       0.2621
     71  O          5.9380    9.1220  -14.6040 O.2    88  ASP88      -0.2715
     72  CB         7.6420    8.5520  -17.5010 C.3    88  ASP88       0.1450
     73  CG         7.0930    7.1820  -17.1810 C.2    88  ASP88       0.3671
     74  OD1        5.8860    7.0660  -16.8900 O.co2  88  ASP88      -0.2456
     75  OD2        7.8760    6.2140  -17.2010 O.co2  88  ASP88      -0.2456
     76  N          5.3770   10.3690  -16.4040 N.am   89  ARG89      -0.1977
     77  CA         4.0820   10.7530  -15.8580 C.3    89  ARG89       0.1597
     78  C          3.2120    9.5430  -15.5550 C.2    89  ARG89       0.2287
     79  O          2.4600    9.5360  -14.5830 O.2    89  ARG89      -0.2864
     80  CB         3.3460   11.7120  -16.8220 C.3    89  ARG89       0.0334
     81  CG         3.6260   13.1830  -16.4970 C.3    89  ARG89       0.0492
     82  CD         3.2220   14.1460  -17.6060 C.3    89  ARG89       0.2205
     83  NE         3.8030   13.7700  -18.8820 N.pl3  89  ARG89      -0.0865
     84  CZ         3.8080   14.5500  -19.9540 C.cat  89  ARG89       0.5346
     85  NH1        3.2620   15.7560  -19.8970 N.pl3  89  ARG89       0.1354
     86  NH2        4.3660   14.1210  -21.0750 N.pl3  89  ARG89       0.1354
     87  N          1.6080   16.4810   -9.7620 N.3   111  LEU111     -0.1245
     88  CA         2.6170   15.5770   -9.2810 C.3   111  LEU111      0.1561
     89  C          3.4970   16.3160   -8.2640 C.2   111  LEU111      0.2260
     90  O          4.1520   17.3030   -8.6000 O.2   111  LEU111     -0.2867
     91  CB         3.4430   15.0750  -10.4590 C.3   111  LEU111      0.0270
     92  CG         2.8620   13.8940  -11.2430 C.3   111  LEU111      0.0019
     93  CD1        3.8180   13.4970  -12.3680 C.3   111  LEU111      0.0001
     94  CD2        2.5410   12.6960  -10.3410 C.3   111  LEU111      0.0001
@<TRIPOS>BOND
     1    35    34    2
     2    34    33    1
     3    26    25    2
     4    23    24    1
     5    25    24    1
     6    25    32   am
     7    24    27    1
     8    30    29   ar
     9    32    33    1
    10    33    36    1
    11    29    28    1
    12    29    31   ar
    13    27    28    1
    14    86    84    1
    15    12    11    2
    16    36    37    1
    17    10    11    1
    18    10     9    1
    19    10    13    1
    20    14    13    1
    21    14    15    1
    22    16    15    1
    23    16    17    1
    24    11    18   am
    25    84    85    1
    26    84    83    2
    27    21    20    2
    28    37    38   ar
    29    37    39   ar
    30    20    19    1
    31    38    40   ar
    32    83    82    1
    33    18    19    1
    34    39    41   ar
    35    19    22    1
    36    40    42   ar
    37    82    81    1
    38    41    42   ar
    39    72    73    1
    40    72    69    1
    41    42    43    1
    42    75    73   ar
    43    73    74   ar
    44    80    81    1
    45    80    77    1
    46     4     3    2
    47    76    77    1
    48    76    70   am
    49    69    70    1
    50    69    68    1
    51     1     2    1
    52     3     2    1
    53    77    78    1
    54     2     5    1
    55    70    71    2
    56    78    79    2
    57    68    59   am
    58     8     6    1
    59     5     6    1
    60    59    60    2
    61    59    58    1
    62     6     7    1
    63    56    55    2
    64    58    57    1
    65    58    61    1
    66    55    57   am
    67    55    54    1
    68    93    92    1
    69    61    62    1
    70    54    53    1
    71    51    50   ar
    72    92    91    1
    73    92    94    1
    74    53    46   am
    75    62    63    1
    76    50    52   ar
    77    50    49    1
    78    91    88    1
    79    63    64    1
    80    46    47    2
    81    46    45    1
    82    87    88    1
    83    49    48    1
    84    66    65    1
    85    88    89    1
    86    45    48    1
    87    45    44    1
    88    64    65    2
    89    90    89    2
    90    65    67    1
