@<TRIPOS>MOLECULE
tmp/4m5pA03.pdb
 102 99 0 0 0
SMALL
GASTEIGER

@<TRIPOS>ATOM
      1  N        -38.0520  -15.5200  125.8490 N.3    34  THR34      -0.1218
      2  CA       -39.1140  -15.2900  124.8720 C.3    34  THR34       0.1862
      3  C        -38.7690  -14.1350  123.9400 C.2    34  THR34       0.2287
      4  O        -38.3880  -13.0610  124.3970 O.2    34  THR34      -0.2866
      5  CB       -40.4360  -15.0020  125.6130 C.3    34  THR34       0.1770
      6  OG1      -40.8830  -16.2100  126.2440 O.3    34  THR34      -0.2211
      7  CG2      -41.5160  -14.5110  124.6610 C.3    34  THR34       0.0375
      8  N        -39.7190  -19.9800  126.3540 N.3    67  ALA67      -0.1245
      9  CA       -40.9710  -20.6510  126.6870 C.3    67  ALA67       0.1562
     10  C        -41.6300  -21.2460  125.4350 C.2    67  ALA67       0.2260
     11  O        -41.8550  -20.5560  124.4270 O.2    67  ALA67      -0.2867
     12  CB       -41.9090  -19.6760  127.3650 C.3    67  ALA67       0.0290
     13  N        -50.4560  -15.8710  123.9910 N.3    77  TRP77      -0.1241
     14  CA       -49.8010  -14.5990  123.7220 C.3    77  TRP77       0.1605
     15  C        -50.2100  -14.0870  122.3480 C.2    77  TRP77       0.2264
     16  O        -50.5280  -14.8750  121.4530 O.2    77  TRP77      -0.2867
     17  CB       -48.2860  -14.7650  123.7630 C.3    77  TRP77       0.0550
     18  CG       -47.6820  -14.7240  125.1400 C.ar   77  TRP77       0.0003
     19  CD1      -48.0760  -13.9500  126.2020 C.ar   77  TRP77       0.0946
     20  CD2      -46.5480  -15.4740  125.5870 C.ar   77  TRP77       0.0152
     21  NE1      -47.2580  -14.1930  127.2850 N.ar   77  TRP77      -0.2442
     22  CE2      -46.3070  -15.1120  126.9260 C.ar   77  TRP77       0.0810
     23  CE3      -45.7080  -16.4130  124.9770 C.ar   77  TRP77       0.0012
     24  CZ2      -45.2630  -15.6680  127.6700 C.ar   77  TRP77       0.0191
     25  CZ3      -44.6740  -16.9590  125.7110 C.ar   77  TRP77       0.0001
     26  CH2      -44.4590  -16.5860  127.0460 C.ar   77  TRP77       0.0015
     27  N        -37.7480  -25.2110  127.4210 N.3   110  GLN110     -0.1245
     28  CA       -38.6320  -24.8040  128.5030 C.3   110  GLN110      0.1566
     29  C        -40.0920  -24.9960  128.0990 C.2   110  GLN110      0.2260
     30  O        -40.5960  -24.2900  127.2270 O.2   110  GLN110     -0.2867
     31  CB       -38.4100  -23.3560  128.9330 C.3   110  GLN110      0.0367
     32  CG       -39.1970  -23.0560  130.2000 C.3   110  GLN110      0.0905
     33  CD       -39.1400  -21.6100  130.6150 C.2   110  GLN110      0.2608
     34  OE1      -39.5730  -20.7260  129.8740 O.2   110  GLN110     -0.2717
     35  NE2      -38.6130  -21.3530  131.8200 N.am  110  GLN110     -0.0878
     36  N        -41.5810  -24.9440  133.3620 N.3   187  HIS187     -0.1241
     37  CA       -41.6280  -23.5410  133.7550 C.3   187  HIS187      0.1621
     38  C        -42.5870  -23.4040  134.9360 C.2   187  HIS187      0.2264
     39  O        -43.8100  -23.4210  134.7650 O.2   187  HIS187     -0.2867
     40  CB       -42.1190  -22.6990  132.5830 C.3   187  HIS187      0.0745
     41  CG       -41.9100  -21.2270  132.7480 C.ar  187  HIS187      0.0817
     42  ND1      -41.5670  -20.6380  133.9460 N.ar  187  HIS187     -0.2268
     43  CD2      -42.0000  -20.2200  131.8480 C.ar  187  HIS187      0.1154
     44  CE1      -41.4490  -19.3320  133.7730 C.ar  187  HIS187      0.1986
     45  NE2      -41.7110  -19.0540  132.5090 N.ar  187  HIS187     -0.2212
     46  N        -42.6160  -17.1780  137.5190 N.3   190  HIS190     -0.1241
     47  CA       -43.1100  -15.9660  136.8670 C.3   190  HIS190      0.1621
     48  C        -44.6250  -15.8480  136.7260 C.2   190  HIS190      0.2264
     49  O        -45.1250  -15.0830  135.8970 O.2   190  HIS190     -0.2867
     50  CB       -42.4360  -15.7840  135.5070 C.3   190  HIS190      0.0745
     51  CG       -40.9490  -15.6390  135.5910 C.ar  190  HIS190      0.0817
     52  ND1      -40.1070  -16.0400  134.5780 N.ar  190  HIS190     -0.2268
     53  CD2      -40.1530  -15.1320  136.5630 C.ar  190  HIS190      0.1154
     54  CE1      -38.8560  -15.7900  134.9240 C.ar  190  HIS190      0.1986
     55  NE2      -38.8560  -15.2370  136.1220 N.ar  190  HIS190     -0.2212
     56  N        -46.8800  -18.0250  135.7130 N.3   192  TYR192     -0.1241
     57  CA       -47.5500  -18.7980  134.6690 C.3   192  TYR192      0.1605
     58  C        -48.2330  -20.0050  135.3160 C.2   192  TYR192      0.2264
     59  O        -48.3630  -20.0420  136.5430 O.2   192  TYR192     -0.2867
     60  CB       -46.5800  -19.1410  133.5300 C.3   192  TYR192      0.0534
     61  CG       -46.0850  -17.8970  132.8220 C.ar  192  TYR192     -0.0201
     62  CD1      -46.9090  -17.2000  131.9460 C.ar  192  TYR192     -0.0009
     63  CD2      -44.7990  -17.4170  133.0300 C.ar  192  TYR192     -0.0009
     64  CE1      -46.4680  -16.0530  131.3010 C.ar  192  TYR192      0.0417
     65  CE2      -44.3480  -16.2710  132.3950 C.ar  192  TYR192      0.0417
     66  CZ       -45.1840  -15.5970  131.5260 C.ar  192  TYR192      0.1957
     67  OH       -44.7350  -14.4650  130.8980 O.3   192  TYR192     -0.2866
     68  N        -43.9150  -10.8810  139.4710 N.3   246  PHE246     -0.1241
     69  CA       -44.3190  -10.7660  138.0720 C.3   246  PHE246      0.1605
     70  C        -45.7290  -11.3310  137.8900 C.2   246  PHE246      0.2264
     71  O        -46.0720  -12.3600  138.4680 O.2   246  PHE246     -0.2867
     72  CB       -43.3080  -11.5320  137.2160 C.3   246  PHE246      0.0534
     73  CG       -43.3960  -11.2570  135.7430 C.ar  246  PHE246     -0.0203
     74  CD1      -43.0490  -10.0160  135.2300 C.ar  246  PHE246     -0.0042
     75  CD2      -43.7730  -12.2620  134.8630 C.ar  246  PHE246     -0.0042
     76  CE1      -43.1060   -9.7690  133.8630 C.ar  246  PHE246     -0.0003
     77  CE2      -43.8290  -12.0270  133.4970 C.ar  246  PHE246     -0.0003
     78  CZ       -43.4980  -10.7800  132.9970 C.ar  246  PHE246     -0.0000
     79  N        -39.2990  -11.6580  136.7430 N.3   291  GLY291     -0.1210
     80  CA       -39.7110  -11.7710  135.3540 C.3   291  GLY291      0.1956
     81  C        -38.6880  -11.1520  134.4150 C.2   291  GLY291      0.2611
     82  O        -37.5540  -11.6270  134.3070 O.2   291  GLY291     -0.2717
     83  N        -39.0830  -10.0840  133.7300 N.am  292  ASN292     -0.1974
     84  CA       -38.1720   -9.3940  132.8260 C.3   292  ASN292      0.1688
     85  C        -37.7720   -8.0270  133.3770 C.2   292  ASN292      0.2292
     86  O        -37.3580   -7.1450  132.6240 O.2   292  ASN292     -0.2864
     87  CB       -38.7960   -9.2590  131.4320 C.3   292  ASN292      0.1181
     88  CG       -40.1400   -8.5520  131.4560 C.2   292  ASN292      0.2629
     89  OD1      -40.5290   -7.9670  132.4650 O.2   292  ASN292     -0.2716
     90  ND2      -40.8540   -8.5980  130.3360 N.am  292  ASN292     -0.0877
     91  N        -39.2910   -8.0350  121.9330 N.3   373  TYR373     -0.1241
     92  CA       -40.5350   -8.7330  121.6410 C.3   373  TYR373      0.1605
     93  C        -41.1610   -8.3920  120.2900 C.2   373  TYR373      0.2264
     94  O        -42.3230   -8.7310  120.0400 O.2   373  TYR373     -0.2867
     95  CB       -41.5530   -8.4480  122.7460 C.3   373  TYR373      0.0534
     96  CG       -41.1440   -8.8920  124.1340 C.ar  373  TYR373     -0.0201
     97  CD1      -41.1210  -10.2400  124.4780 C.ar  373  TYR373     -0.0009
     98  CD2      -40.8210   -7.9620  125.1150 C.ar  373  TYR373     -0.0009
     99  CE1      -40.7680  -10.6480  125.7530 C.ar  373  TYR373      0.0417
    100  CE2      -40.4640   -8.3630  126.3960 C.ar  373  TYR373      0.0417
    101  CZ       -40.4470   -9.7080  126.7080 C.ar  373  TYR373      0.1957
    102  OH       -40.0990  -10.1170  127.9790 O.3   373  TYR373     -0.2866
@<TRIPOS>BOND
     1    94    93    2
     2    93    92    1
     3    16    15    2
     4    92    91    1
     5    92    95    1
     6    15    14    1
     7    95    96    1
     8    14    17    1
     9    14    13    1
    10    17    18    1
    11     3     4    2
    12     3     2    1
    13    96    97   ar
    14    96    98   ar
    15    11    10    2
    16    97    99   ar
    17     7     5    1
    18     2     5    1
    19     2     1    1
    20    23    20   ar
    21    23    25   ar
    22    98   100   ar
    23    18    20   ar
    24    18    19   ar
    25    10     9    1
    26    20    22   ar
    27     5     6    1
    28    25    26   ar
    29    99   101   ar
    30    19    21   ar
    31     8     9    1
    32   100   101   ar
    33     9    12    1
    34   101   102    1
    35    22    21   ar
    36    22    24   ar
    37    26    24   ar
    38    30    29    2
    39    27    28    1
    40    29    28    1
    41    28    31    1
    42    31    32    1
    43    34    33    2
    44    32    33    1
    45    90    88   am
    46    33    35   am
    47    67    66    1
    48    64    66   ar
    49    64    62   ar
    50    87    88    1
    51    87    84    1
    52    88    89    2
    53    66    65   ar
    54    43    45   ar
    55    43    41   ar
    56    62    61   ar
    57    65    63   ar
    58    45    44   ar
    59    40    41    1
    60    40    37    1
    61    86    85    2
    62    41    42   ar
    63    61    63   ar
    64    61    60    1
    65    84    85    1
    66    84    83    1
    67    78    77   ar
    68    78    76   ar
    69    36    37    1
    70    77    75   ar
    71    60    57    1
    72    83    81   am
    73    37    38    1
    74    44    42   ar
    75    76    74   ar
    76    82    81    2
    77    81    80    1
    78    52    54   ar
    79    52    51   ar
    80    57    58    1
    81    57    56    1
    82    39    38    2
    83    75    73   ar
    84    54    55   ar
    85    74    73   ar
    86    58    59    2
    87    80    79    1
    88    50    51    1
    89    50    47    1
    90    51    53   ar
    91    73    72    1
    92    49    48    2
    93    55    53   ar
    94    48    47    1
    95    47    46    1
    96    72    69    1
    97    70    69    1
    98    70    71    2
    99    69    68    1
