@<TRIPOS>MOLECULE
tmp/4m5pA01.pdb
 89 88 0 0 0
SMALL
GASTEIGER

@<TRIPOS>ATOM
      1  N        -46.3480  -18.2750  112.7560 N.3    40  GLU40      -0.1231
      2  CA       -47.7110  -18.0510  113.2190 C.3    40  GLU40       0.1699
      3  C        -48.3550  -19.2960  113.8420 C.2    40  GLU40       0.2592
      4  O        -49.1120  -19.2030  114.8140 O.2    40  GLU40      -0.2718
      5  CB       -48.5380  -17.5300  112.0410 C.3    40  GLU40       0.0402
      6  CG       -50.0420  -17.5500  112.2080 C.3    40  GLU40       0.1161
      7  CD       -50.7380  -16.8830  111.0360 C.2    40  GLU40       0.3649
      8  OE1      -51.0690  -15.6850  111.1500 O.co2  40  GLU40      -0.2457
      9  OE2      -50.9380  -17.5480  109.9970 O.co2  40  GLU40      -0.2457
     10  N        -48.0550  -20.4640  113.2800 N.am   41  ASP41      -0.1960
     11  CA       -48.6210  -21.7110  113.7960 C.3    41  ASP41       0.1840
     12  C        -47.7370  -22.3480  114.8690 C.2    41  ASP41       0.2622
     13  O        -47.9170  -23.5230  115.2170 O.2    41  ASP41      -0.2715
     14  CB       -48.9080  -22.7020  112.6600 C.3    41  ASP41       0.1450
     15  CG       -47.6550  -23.3760  112.1230 C.2    41  ASP41       0.3671
     16  OD1      -46.5290  -22.9000  112.3880 O.co2  41  ASP41      -0.2456
     17  OD2      -47.8080  -24.3940  111.4150 O.co2  41  ASP41      -0.2456
     18  N        -46.7750  -21.5630  115.3570 N.am   42  HIS42      -0.1973
     19  CA       -45.9000  -21.9200  116.4820 C.3    42  HIS42       0.1656
     20  C        -44.7760  -22.8950  116.1300 C.2    42  HIS42       0.2291
     21  O        -44.0370  -23.3490  117.0010 O.2    42  HIS42      -0.2864
     22  CB       -46.7230  -22.3710  117.6910 C.3    42  HIS42       0.0771
     23  CG       -47.8860  -21.4680  117.9710 C.ar   42  HIS42       0.0820
     24  ND1      -47.7420  -20.2370  118.5770 N.ar   42  HIS42      -0.2267
     25  CD2      -49.2020  -21.5880  117.6770 C.ar   42  HIS42       0.1154
     26  CE1      -48.9220  -19.6510  118.6670 C.ar   42  HIS42       0.1986
     27  NE2      -49.8260  -20.4490  118.1290 N.ar   42  HIS42      -0.2212
     28  N        -51.2400  -21.9620  125.2270 N.3    75  SER75      -0.1202
     29  CA       -50.8160  -20.7370  124.5460 C.3    75  SER75       0.2020
     30  C        -51.5490  -19.5050  125.0830 C.2    75  SER75       0.2619
     31  O        -52.1130  -19.5350  126.1780 O.2    75  SER75      -0.2717
     32  CB       -51.0480  -20.8710  123.0390 C.3    75  SER75       0.2103
     33  OG       -52.4350  -20.9220  122.7350 O.3    75  SER75      -0.2182
     34  N        -51.5360  -18.4180  124.3200 N.am   76  GLY76      -0.1942
     35  CA       -52.3170  -17.2530  124.6920 C.3    76  GLY76       0.2014
     36  C        -51.6260  -15.9100  124.6140 C.2    76  GLY76       0.2639
     37  O        -52.1470  -14.9120  125.1150 O.2    76  GLY76      -0.2714
     38  N        -50.4560  -15.8710  123.9910 N.am   77  TRP77      -0.1959
     39  CA       -49.8010  -14.5990  123.7220 C.3    77  TRP77       0.1771
     40  C        -50.2100  -14.0870  122.3480 C.2    77  TRP77       0.2620
     41  O        -50.5280  -14.8750  121.4530 O.2    77  TRP77      -0.2715
     42  CB       -48.2860  -14.7650  123.7630 C.3    77  TRP77       0.0590
     43  CG       -47.6820  -14.7240  125.1400 C.ar   77  TRP77       0.0006
     44  CD1      -48.0760  -13.9500  126.2020 C.ar   77  TRP77       0.0946
     45  CD2      -46.5480  -15.4740  125.5870 C.ar   77  TRP77       0.0152
     46  NE1      -47.2580  -14.1930  127.2850 N.ar   77  TRP77      -0.2442
     47  CE2      -46.3070  -15.1120  126.9260 C.ar   77  TRP77       0.0810
     48  CE3      -45.7080  -16.4130  124.9770 C.ar   77  TRP77       0.0012
     49  CZ2      -45.2630  -15.6680  127.6700 C.ar   77  TRP77       0.0191
     50  CZ3      -44.6740  -16.9590  125.7110 C.ar   77  TRP77       0.0001
     51  CH2      -44.4590  -16.5860  127.0460 C.ar   77  TRP77       0.0015
     52  N        -50.1880  -12.7680  122.1770 N.am   78  GLU78      -0.1963
     53  CA       -50.4110  -12.1830  120.8610 C.3    78  GLU78       0.1733
     54  C        -49.1920  -12.3900  119.9660 C.2    78  GLU78       0.2616
     55  O        -49.3290  -12.6360  118.7650 O.2    78  GLU78      -0.2715
     56  CB       -50.7470  -10.6980  120.9780 C.3    78  GLU78       0.0429
     57  CG       -52.1100  -10.4380  121.5890 C.3    78  GLU78       0.1163
     58  CD       -52.4930   -8.9700  121.5800 C.2    78  GLU78       0.3649
     59  OE1      -53.6980   -8.6790  121.4390 O.co2  78  GLU78      -0.2457
     60  OE2      -51.5980   -8.1080  121.7230 O.co2  78  GLU78      -0.2457
     61  N        -48.0000  -12.2880  120.5480 N.am   79  GLY79      -0.1955
     62  CA       -46.7780  -12.5480  119.8070 C.3    79  GLY79       0.1869
     63  C        -46.6570  -14.0160  119.4350 C.2    79  GLY79       0.2309
     64  O        -47.3200  -14.8690  120.0300 O.2    79  GLY79      -0.2863
     65  N        -57.4230  -14.0190  122.1020 N.3   122  VAL122     -0.1245
     66  CA       -56.6180  -15.0320  121.4300 C.3   122  VAL122      0.1561
     67  C        -57.1780  -16.4240  121.7080 C.2   122  VAL122      0.2260
     68  O        -57.3400  -17.2320  120.7960 O.2   122  VAL122     -0.2867
     69  CB       -55.1390  -14.9760  121.8730 C.3   122  VAL122      0.0252
     70  CG1      -54.3800  -16.1830  121.3550 C.3   122  VAL122      0.0019
     71  CG2      -54.4850  -13.7040  121.3640 C.3   122  VAL122      0.0019
     72  N        -60.3400  -17.4440  119.8110 N.3   125  THR125     -0.1203
     73  CA       -60.1700  -17.9110  118.4340 C.3   125  THR125      0.1994
     74  C        -59.9330  -19.4200  118.3410 C.2   125  THR125      0.2617
     75  O        -60.2650  -20.0350  117.3280 O.2   125  THR125     -0.2717
     76  CB       -59.0420  -17.1820  117.6920 C.3   125  THR125      0.1784
     77  OG1      -57.7720  -17.5920  118.2160 O.3   125  THR125     -0.2211
     78  CG2      -59.2010  -15.6780  117.8220 C.3   125  THR125      0.0376
     79  N        -59.3590  -20.0070  119.3870 N.am  126  ARG126     -0.1979
     80  CA       -59.1260  -21.4510  119.4330 C.3   126  ARG126      0.1597
     81  C        -60.3490  -22.1720  119.9530 C.2   126  ARG126      0.2287
     82  O        -60.3460  -23.3970  120.0740 O.2   126  ARG126     -0.2864
     83  CB       -57.9730  -21.7820  120.3800 C.3   126  ARG126      0.0334
     84  CG       -56.6250  -21.2440  119.9640 C.3   126  ARG126      0.0492
     85  CD       -55.5450  -21.8440  120.8540 C.3   126  ARG126      0.2205
     86  NE       -54.1920  -21.4880  120.4350 N.pl3 126  ARG126     -0.0865
     87  CZ       -53.5050  -22.1120  119.4800 C.cat 126  ARG126      0.5346
     88  NH1      -54.0350  -23.1310  118.8100 N.pl3 126  ARG126      0.1354
     89  NH2      -52.2790  -21.7060  119.1870 N.pl3 126  ARG126      0.1354
@<TRIPOS>BOND
     1     9     7   ar
     2     7     8   ar
     3     7     6    1
     4    17    15   ar
     5     5     6    1
     6     5     2    1
     7    15    16   ar
     8    15    14    1
     9    14    11    1
    10     1     2    1
    11     2     3    1
    12    10    11    1
    13    10     3   am
    14    11    12    1
    15     3     4    2
    16    12    13    2
    17    12    18   am
    18    18    19    1
    19    20    19    1
    20    20    21    2
    21    19    22    1
    22    75    74    2
    23    25    23   ar
    24    25    27   ar
    25    22    23    1
    26    76    78    1
    27    76    77    1
    28    76    73    1
    29    23    24   ar
    30    27    26   ar
    31    74    73    1
    32    74    79   am
    33    73    72    1
    34    24    26   ar
    35    55    54    2
    36    88    87    1
    37    89    87    1
    38    79    80    1
    39    80    81    1
    40    80    83    1
    41    63    62    1
    42    63    64    2
    43    87    86    2
    44    62    61    1
    45    81    82    2
    46    84    83    1
    47    84    85    1
    48    54    61   am
    49    54    53    1
    50    86    85    1
    51    68    67    2
    52    53    56    1
    53    53    52    1
    54    56    57    1
    55    70    69    1
    56    71    69    1
    57    66    67    1
    58    66    69    1
    59    66    65    1
    60    59    58   ar
    61    41    40    2
    62    58    57    1
    63    58    60   ar
    64    52    40   am
    65    40    39    1
    66    33    32    1
    67    32    29    1
    68    39    42    1
    69    39    38    1
    70    42    43    1
    71    38    36   am
    72    34    35    1
    73    34    30   am
    74    29    30    1
    75    29    28    1
    76    36    35    1
    77    36    37    2
    78    48    45   ar
    79    48    50   ar
    80    30    31    2
    81    43    45   ar
    82    43    44   ar
    83    45    47   ar
    84    50    51   ar
    85    44    46   ar
    86    47    46   ar
    87    47    49   ar
    88    51    49   ar
