@<TRIPOS>MOLECULE
tmp/4m5rA01.pdb
 98 91 0 0 0
SMALL
GASTEIGER

@<TRIPOS>ATOM
      1  N         13.1000   14.9280  -18.4020 N.3    25  ALA25      -0.1231
      2  CA        12.0530   15.8260  -17.9380 C.3    25  ALA25       0.1694
      3  C         11.8130   16.9530  -18.9350 C.2    25  ALA25       0.2591
      4  O         10.6780   17.2980  -19.2480 O.2    25  ALA25      -0.2718
      5  CB        12.4060   16.3940  -16.5920 C.3    25  ALA25       0.0304
      6  N         12.8890   17.5530  -19.4050 N.am   26  MET26      -0.1979
      7  CA        12.7730   18.6350  -20.3860 C.3    26  MET26       0.1605
      8  C         12.1790   18.1460  -21.7030 C.2    26  MET26       0.2287
      9  O         11.3020   18.8040  -22.2440 O.2    26  MET26      -0.2864
     10  CB        14.1410   19.2900  -20.5990 C.3    26  MET26       0.0413
     11  CG        14.6080   19.9750  -19.3160 C.3    26  MET26       0.0598
     12  SD        16.0520   20.9850  -19.4580 S.3    26  MET26      -0.1393
     13  CE        15.4040   22.3840  -20.3300 C.3    26  MET26       0.0692
     14  N         10.1480   15.7000  -22.1090 N.3    28  GLU28      -0.1231
     15  CA         8.7560   15.3470  -21.8680 C.3    28  GLU28       0.1699
     16  C          7.8480   16.5760  -22.0010 C.2    28  GLU28       0.2592
     17  O          6.7110   16.4770  -22.4800 O.2    28  GLU28      -0.2718
     18  CB         8.6450   14.6990  -20.4820 C.3    28  GLU28       0.0402
     19  CG         7.2950   14.1190  -20.1470 C.3    28  GLU28       0.1161
     20  CD         7.2570   13.4800  -18.7590 C.2    28  GLU28       0.3649
     21  OE1        7.6680   14.1420  -17.7670 O.co2  28  GLU28      -0.2457
     22  OE2        6.7790   12.3240  -18.6620 O.co2  28  GLU28      -0.2457
     23  N          8.3790   17.7390  -21.6210 N.am   29  TYR29      -0.1976
     24  CA         7.6400   19.0030  -21.7140 C.3    29  TYR29       0.1639
     25  C          8.1120   19.9050  -22.8550 C.2    29  TYR29       0.2290
     26  O          7.8210   21.0990  -22.8730 O.2    29  TYR29      -0.2864
     27  CB         7.7220   19.7360  -20.3820 C.3    29  TYR29       0.0560
     28  CG         6.8340   19.0750  -19.3550 C.ar   29  TYR29      -0.0198
     29  CD1        5.5560   19.5540  -19.1010 C.ar   29  TYR29      -0.0009
     30  CD2        7.2530   17.9370  -18.6850 C.ar   29  TYR29      -0.0009
     31  CE1        4.7340   18.9330  -18.1830 C.ar   29  TYR29       0.0417
     32  CE2        6.4380   17.3050  -17.7650 C.ar   29  TYR29       0.0417
     33  CZ         5.1850   17.8050  -17.5120 C.ar   29  TYR29       0.1957
     34  OH         4.3790   17.1700  -16.5940 O.3    29  TYR29      -0.2866
     35  N         11.0800   20.9680  -24.1120 N.3    31  GLU31      -0.1245
     36  CA        12.1540   21.9520  -23.9960 C.3    31  GLU31       0.1567
     37  C         13.5130   21.3300  -24.2290 C.2    31  GLU31       0.2260
     38  O         13.7150   20.1590  -23.9550 O.2    31  GLU31      -0.2867
     39  CB        12.1070   22.6190  -22.6350 C.3    31  GLU31       0.0388
     40  CG        10.8290   23.3960  -22.4370 C.3    31  GLU31       0.1160
     41  CD        10.7580   24.0410  -21.0850 C.2    31  GLU31       0.3649
     42  OE1       11.3440   23.4730  -20.1440 O.co2  31  GLU31      -0.2457
     43  OE2       10.1270   25.1130  -20.9630 O.co2  31  GLU31      -0.2457
     44  N         17.3470   26.4960  -16.9530 N.3    39  LYS39      -0.1245
     45  CA        16.3020   25.5810  -16.4950 C.3    39  LYS39       0.1561
     46  C         16.8550   24.1910  -16.3080 C.2    39  LYS39       0.2260
     47  O         16.5180   23.5100  -15.3260 O.2    39  LYS39      -0.2867
     48  CB        15.1220   25.5310  -17.4500 C.3    39  LYS39       0.0271
     49  CG        14.3150   26.8000  -17.5000 C.3    39  LYS39       0.0035
     50  CD        12.8160   26.5640  -17.2390 C.3    39  LYS39       0.0206
     51  CE        12.0340   26.4770  -18.5370 C.3    39  LYS39       0.1093
     52  NZ        12.1150   27.7310  -19.3390 N.3    39  LYS39      -0.1314
     53  N         16.6890   22.0640  -12.8640 N.3    43  ILE43      -0.1245
     54  CA        16.0830   20.7510  -12.7560 C.3    43  ILE43       0.1561
     55  C         17.0620   19.7410  -12.1410 C.2    43  ILE43       0.2260
     56  O         16.6730   18.9600  -11.2670 O.2    43  ILE43      -0.2867
     57  CB        15.5930   20.2470  -14.1300 C.3    43  ILE43       0.0252
     58  CG1       14.4270   21.1130  -14.5770 C.3    43  ILE43       0.0019
     59  CG2       15.1830   18.7730  -14.0700 C.3    43  ILE43       0.0019
     60  CD1       14.1020   20.9470  -16.0440 C.3    43  ILE43       0.0001
     61  N         17.2190   20.4820   -8.4370 N.3    46  HIS46      -0.1241
     62  CA        15.9920   20.0440   -7.7670 C.3    46  HIS46       0.1621
     63  C         15.9620   18.5260   -7.5980 C.2    46  HIS46       0.2264
     64  O         15.6250   18.0140   -6.5210 O.2    46  HIS46      -0.2867
     65  CB        14.7950   20.5450   -8.5610 C.3    46  HIS46       0.0745
     66  CG        13.4660   20.1370   -8.0020 C.ar   46  HIS46       0.0817
     67  ND1       12.8670   18.9390   -8.3110 N.ar   46  HIS46      -0.2268
     68  CD2       12.5920   20.8000   -7.2060 C.ar   46  HIS46       0.1154
     69  CE1       11.6860   18.8760   -7.7170 C.ar   46  HIS46       0.1986
     70  NE2       11.4970   19.9940   -7.0440 N.ar   46  HIS46      -0.2212
     71  N          9.3130   12.4450   -7.7320 N.3    85  GLU85      -0.1245
     72  CA        10.1650   13.2000   -8.6300 C.3    85  GLU85       0.1567
     73  C         11.1150   12.2530   -9.3440 C.2    85  GLU85       0.2260
     74  O         11.5000   11.2270   -8.8060 O.2    85  GLU85      -0.2867
     75  CB        10.9120   14.2630   -7.8090 C.3    85  GLU85       0.0388
     76  CG        12.2130   14.8140   -8.3560 C.3    85  GLU85       0.1160
     77  CD        12.0260   15.7650   -9.5060 C.2    85  GLU85       0.3649
     78  OE1       10.9460   15.7410  -10.1650 O.co2  85  GLU85      -0.2457
     79  OE2       12.9760   16.5590   -9.7580 O.co2  85  GLU85      -0.2457
     80  N         10.4980   10.6960  -12.2240 N.3    87  ARG87      -0.1245
     81  CA         9.7480    9.6720  -12.9300 C.3    87  ARG87       0.1563
     82  C          8.9290   10.2970  -14.0430 C.2    87  ARG87       0.2260
     83  O          8.4730   11.4180  -13.9180 O.2    87  ARG87      -0.2867
     84  CB         8.8280    8.9310  -11.9700 C.3    87  ARG87       0.0307
     85  CG         9.5270    8.2800  -10.8080 C.3    87  ARG87       0.0489
     86  CD         8.5630    7.4760   -9.9990 C.3    87  ARG87       0.2205
     87  NE         9.1540    6.9750   -8.7600 N.pl3  87  ARG87      -0.0865
     88  CZ         9.8620    5.8540   -8.6400 C.cat  87  ARG87       0.5346
     89  NH1       10.1070    5.0650   -9.6810 N.pl3  87  ARG87       0.1354
     90  NH2       10.3300    5.5060   -7.4530 N.pl3  87  ARG87       0.1354
     91  N          1.7070   16.9680   -9.3090 N.3   111  LEU111     -0.1245
     92  CA         2.6340   15.9540   -8.8220 C.3   111  LEU111      0.1561
     93  C          3.4990   16.5070   -7.7020 C.2   111  LEU111      0.2260
     94  O          4.2290   17.4760   -7.9070 O.2   111  LEU111     -0.2867
     95  CB         3.5520   15.4540   -9.9310 C.3   111  LEU111      0.0270
     96  CG         3.1500   14.3120  -10.8350 C.3   111  LEU111      0.0019
     97  CD1        4.3280   14.0500  -11.7440 C.3   111  LEU111      0.0001
     98  CD2        2.8010   13.0770  -10.0720 C.3   111  LEU111      0.0001
@<TRIPOS>BOND
     1    37    36    1
     2    37    38    2
     3    35    36    1
     4    36    39    1
     5    26    25    2
     6    25    24    1
     7    39    40    1
     8    17    16    2
     9    40    41    1
    10     9     8    2
    11    14    15    1
    12    16    15    1
    13    16    23   am
    14    15    18    1
    15    24    23    1
    16    24    27    1
    17     8     7    1
    18    41    43   ar
    19    41    42   ar
    20    10     7    1
    21    10    11    1
    22    18    19    1
    23     7     6    1
    24    27    28    1
    25    13    12    1
    26    19    20    1
    27    12    11    1
    28     6     3   am
    29    28    29   ar
    30    28    30   ar
    31    52    51    1
    32     4     3    2
    33    29    31   ar
    34     3     2    1
    35    20    22   ar
    36    20    21   ar
    37    30    32   ar
    38    51    50    1
    39     1     2    1
    40    31    33   ar
    41     2     5    1
    42    32    33   ar
    43    33    34    1
    44    49    48    1
    45    49    50    1
    46    48    45    1
    47    44    45    1
    48    45    46    1
    49    46    47    2
    50    60    58    1
    51    58    57    1
    52    57    59    1
    53    57    54    1
    54    82    83    2
    55    82    81    1
    56    81    80    1
    57    81    84    1
    58    53    54    1
    59    54    55    1
    60    55    56    2
    61    84    85    1
    62    97    96    1
    63    96    98    1
    64    96    95    1
    65    85    86    1
    66    78    77   ar
    67    86    87    1
    68    95    92    1
    69    79    77   ar
    70    89    88    1
    71    77    76    1
    72    73    74    2
    73    73    72    1
    74    91    92    1
    75    92    93    1
    76    87    88    2
    77    88    90    1
    78    72    75    1
    79    72    71    1
    80    65    66    1
    81    65    62    1
    82    61    62    1
    83    76    75    1
    84    67    66   ar
    85    67    69   ar
    86    66    68   ar
    87    94    93    2
    88    62    63    1
    89    69    70   ar
    90    63    64    2
    91    68    70   ar
