@<TRIPOS>MOLECULE
tmp/4m5rA00.pdb
 79 73 0 0 0
SMALL
GASTEIGER

@<TRIPOS>ATOM
      1  N         18.1040   12.0850  -16.1940 N.3    21  LEU21      -0.1245
      2  CA        16.7260   12.2970  -15.7590 C.3    21  LEU21       0.1561
      3  C         16.2410   13.7160  -16.0860 C.2    21  LEU21       0.2260
      4  O         15.0970   13.9120  -16.4870 O.2    21  LEU21      -0.2867
      5  CB        16.5880   12.0310  -14.2470 C.3    21  LEU21       0.0270
      6  CG        16.7230   10.5810  -13.7590 C.3    21  LEU21       0.0019
      7  CD1       16.7210   10.4970  -12.2400 C.3    21  LEU21       0.0001
      8  CD2       15.6120    9.7180  -14.3210 C.3    21  LEU21       0.0001
      9  N         15.4310   14.0500  -19.7150 N.3    24  LYS24      -0.1231
     10  CA        14.1540   13.4070  -19.9840 C.3    24  LYS24       0.1693
     11  C         12.9810   14.2700  -19.5560 C.2    24  LYS24       0.2591
     12  O         11.9740   14.3390  -20.2530 O.2    24  LYS24      -0.2718
     13  CB        14.1090   12.0460  -19.2940 C.3    24  LYS24       0.0285
     14  CG        15.0320   11.0170  -19.9460 C.3    24  LYS24       0.0035
     15  CD        14.9510    9.6580  -19.2620 C.3    24  LYS24       0.0206
     16  CE        15.9390    8.6700  -19.8670 C.3    24  LYS24       0.1093
     17  NZ        15.8710    7.3310  -19.2100 N.3    24  LYS24      -0.1314
     18  N         13.1000   14.9280  -18.4020 N.am   25  ALA25      -0.1980
     19  CA        12.0530   15.8260  -17.9380 C.3    25  ALA25       0.1597
     20  C         11.8130   16.9530  -18.9350 C.2    25  ALA25       0.2287
     21  O         10.6780   17.2980  -19.2480 O.2    25  ALA25      -0.2864
     22  CB        12.4060   16.3940  -16.5920 C.3    25  ALA25       0.0319
     23  N         10.1480   15.7000  -22.1090 N.3    28  GLU28      -0.1245
     24  CA         8.7560   15.3470  -21.8680 C.3    28  GLU28       0.1567
     25  C          7.8480   16.5760  -22.0010 C.2    28  GLU28       0.2260
     26  O          6.7110   16.4770  -22.4800 O.2    28  GLU28      -0.2867
     27  CB         8.6450   14.6990  -20.4820 C.3    28  GLU28       0.0388
     28  CG         7.2950   14.1190  -20.1470 C.3    28  GLU28       0.1160
     29  CD         7.2570   13.4800  -18.7590 C.2    28  GLU28       0.3649
     30  OE1        7.6680   14.1420  -17.7670 O.co2  28  GLU28      -0.2457
     31  OE2        6.7790   12.3240  -18.6620 O.co2  28  GLU28      -0.2457
     32  N         16.6890   22.0640  -12.8640 N.3    43  ILE43      -0.1245
     33  CA        16.0830   20.7510  -12.7560 C.3    43  ILE43       0.1561
     34  C         17.0620   19.7410  -12.1410 C.2    43  ILE43       0.2260
     35  O         16.6730   18.9600  -11.2670 O.2    43  ILE43      -0.2867
     36  CB        15.5930   20.2470  -14.1300 C.3    43  ILE43       0.0252
     37  CG1       14.4270   21.1130  -14.5770 C.3    43  ILE43       0.0019
     38  CG2       15.1830   18.7730  -14.0700 C.3    43  ILE43       0.0019
     39  CD1       14.1020   20.9470  -16.0440 C.3    43  ILE43       0.0001
     40  N         16.3410   17.7980   -8.6400 N.3    47  LEU47      -0.1245
     41  CA        16.4530   16.3450   -8.5500 C.3    47  LEU47       0.1561
     42  C         17.4160   15.9570   -7.4460 C.2    47  LEU47       0.2260
     43  O         17.1190   15.1050   -6.6060 O.2    47  LEU47      -0.2867
     44  CB        16.9310   15.7520   -9.8820 C.3    47  LEU47       0.0270
     45  CG        15.8670   15.4650  -10.9260 C.3    47  LEU47       0.0019
     46  CD1       16.4750   15.4660  -12.3430 C.3    47  LEU47       0.0001
     47  CD2       15.1870   14.1440  -10.6260 C.3    47  LEU47       0.0001
     48  N          9.3130   12.4450   -7.7320 N.3    85  GLU85      -0.1231
     49  CA        10.1650   13.2000   -8.6300 C.3    85  GLU85       0.1699
     50  C         11.1150   12.2530   -9.3440 C.2    85  GLU85       0.2593
     51  O         11.5000   11.2270   -8.8060 O.2    85  GLU85      -0.2718
     52  CB        10.9120   14.2630   -7.8090 C.3    85  GLU85       0.0402
     53  CG        12.2130   14.8140   -8.3560 C.3    85  GLU85       0.1161
     54  CD        12.0260   15.7650   -9.5060 C.2    85  GLU85       0.3649
     55  OE1       10.9460   15.7410  -10.1650 O.co2  85  GLU85      -0.2457
     56  OE2       12.9760   16.5590   -9.7580 O.co2  85  GLU85      -0.2457
     57  N         11.4760   12.5900  -10.5760 N.am   86  GLY86      -0.1942
     58  CA        12.4330   11.7960  -11.3210 C.3    86  GLY86       0.2014
     59  C         11.8170   10.6830  -12.1380 C.2    86  GLY86       0.2639
     60  O         12.5210    9.8300  -12.6690 O.2    86  GLY86      -0.2714
     61  N         10.4980   10.6960  -12.2240 N.am   87  ARG87      -0.1963
     62  CA         9.7480    9.6720  -12.9300 C.3    87  ARG87       0.1729
     63  C          8.9290   10.2970  -14.0430 C.2    87  ARG87       0.2616
     64  O          8.4730   11.4180  -13.9180 O.2    87  ARG87      -0.2715
     65  CB         8.8280    8.9310  -11.9700 C.3    87  ARG87       0.0348
     66  CG         9.5270    8.2800  -10.8080 C.3    87  ARG87       0.0492
     67  CD         8.5630    7.4760   -9.9990 C.3    87  ARG87       0.2205
     68  NE         9.1540    6.9750   -8.7600 N.pl3  87  ARG87      -0.0865
     69  CZ         9.8620    5.8540   -8.6400 C.cat  87  ARG87       0.5346
     70  NH1       10.1070    5.0650   -9.6810 N.pl3  87  ARG87       0.1354
     71  NH2       10.3300    5.5060   -7.4530 N.pl3  87  ARG87       0.1354
     72  N          8.7330    9.5640  -15.1370 N.am   88  ASP88      -0.1971
     73  CA         7.8840   10.0620  -16.2170 C.3    88  ASP88       0.1709
     74  C          6.4640   10.2250  -15.6910 C.2    88  ASP88       0.2293
     75  O          6.1070    9.6720  -14.6440 O.2    88  ASP88      -0.2864
     76  CB         7.9010    9.1210  -17.4230 C.3    88  ASP88       0.1436
     77  CG         7.3220    7.7630  -17.1070 C.2    88  ASP88       0.3671
     78  OD1        6.1100    7.6730  -16.8260 O.co2  88  ASP88      -0.2456
     79  OD2        8.0750    6.7660  -17.1840 O.co2  88  ASP88      -0.2456
@<TRIPOS>BOND
     1    26    25    2
     2    23    24    1
     3    25    24    1
     4    24    27    1
     5    27    28    1
     6    12    11    2
     7    28    29    1
     8    10     9    1
     9    10    11    1
    10    10    13    1
    11    14    13    1
    12    14    15    1
    13    16    15    1
    14    16    17    1
    15    11    18   am
    16    21    20    2
    17    20    19    1
    18    29    31   ar
    19    29    30   ar
    20    18    19    1
    21    19    22    1
    22    76    77    1
    23    76    73    1
    24    79    77   ar
    25    77    78   ar
    26     4     3    2
    27    73    74    1
    28    73    72    1
    29     1     2    1
    30     3     2    1
    31    39    37    1
    32     2     5    1
    33    74    75    2
    34    72    63   am
    35    37    36    1
    36     8     6    1
    37     5     6    1
    38    36    38    1
    39    36    33    1
    40    63    64    2
    41    63    62    1
    42     6     7    1
    43    62    61    1
    44    62    65    1
    45    32    33    1
    46    33    34    1
    47    60    59    2
    48    46    45    1
    49    61    59   am
    50    34    35    2
    51    59    58    1
    52    65    66    1
    53    58    57    1
    54    45    47    1
    55    45    44    1
    56    66    67    1
    57    57    50   am
    58    55    54   ar
    59    67    68    1
    60    44    41    1
    61    56    54   ar
    62    70    69    1
    63    54    53    1
    64    50    51    2
    65    50    49    1
    66    68    69    2
    67    40    41    1
    68    69    71    1
    69    49    52    1
    70    49    48    1
    71    41    42    1
    72    53    52    1
    73    42    43    2
