@<TRIPOS>MOLECULE
tmp/4m5tC00.pdb
 141 137 0 0 0
SMALL
GASTEIGER

@<TRIPOS>ATOM
      1  N        108.0560   -5.0080    3.1820 N.3    20  PRO20      -0.2102
      2  CA       106.7970   -5.7180    2.9260 C.3    20  PRO20       0.1504
      3  C        106.9940   -7.2240    2.7610 C.2    20  PRO20       0.2575
      4  O        106.1710   -8.0060    3.2350 O.2    20  PRO20      -0.2718
      5  CB       106.3080   -5.0910    1.6210 C.3    20  PRO20       0.0282
      6  CG       106.9260   -3.7410    1.6080 C.3    20  PRO20       0.0208
      7  CD       108.2660   -3.9020    2.2320 C.3    20  PRO20       0.0893
      8  N        108.0940   -7.6170    2.1250 N.am   21  GLU21      -0.1980
      9  CA       108.4000   -9.0270    1.8900 C.3    21  GLU21       0.1602
     10  C        108.6670   -9.7950    3.1910 C.2    21  GLU21       0.2287
     11  O        108.5700  -11.0240    3.2250 O.2    21  GLU21      -0.2864
     12  CB       109.6010   -9.1640    0.9430 C.3    21  GLU21       0.0415
     13  CG       109.4090   -8.5000   -0.4270 C.3    21  GLU21       0.1163
     14  CD       109.6670   -6.9940   -0.4090 C.2    21  GLU21       0.3649
     15  OE1      110.2990   -6.5080    0.5550 O.co2  21  GLU21      -0.2457
     16  OE2      109.2350   -6.2960   -1.3570 O.co2  21  GLU21      -0.2457
     17  N        106.8840   -9.3750    5.9230 N.3    23  LEU23      -0.1231
     18  CA       105.6440   -9.3600    6.7060 C.3    23  LEU23       0.1693
     19  C        104.7250  -10.4630    6.2440 C.2    23  LEU23       0.2592
     20  O        104.6560  -10.7650    5.0590 O.2    23  LEU23      -0.2718
     21  CB       104.9300   -8.0170    6.5490 C.3    23  LEU23       0.0284
     22  CG       105.6730   -6.8210    7.1530 C.3    23  LEU23       0.0019
     23  CD1      105.0120   -5.5100    6.7560 C.3    23  LEU23       0.0001
     24  CD2      105.7350   -6.9630    8.6680 C.3    23  LEU23       0.0001
     25  N        104.0040  -11.0620    7.1750 N.am   24  LYS24      -0.1966
     26  CA       102.9820  -12.0250    6.7940 C.3    24  LYS24       0.1728
     27  C        101.7230  -11.7850    7.6150 C.2    24  LYS24       0.2616
     28  O        101.7840  -11.6150    8.8380 O.2    24  LYS24      -0.2715
     29  CB       103.4710  -13.4660    6.9540 C.3    24  LYS24       0.0311
     30  CG       102.4250  -14.5080    6.5800 C.3    24  LYS24       0.0038
     31  CD       102.8290  -15.9090    7.0290 C.3    24  LYS24       0.0206
     32  CE       103.8760  -16.5220    6.1140 C.3    24  LYS24       0.1093
     33  NZ       104.0220  -17.9890    6.3580 N.3    24  LYS24      -0.1314
     34  N        100.5920  -11.7310    6.9180 N.am   25  VAL25      -0.1963
     35  CA        99.2980  -11.6130    7.5730 C.3    25  VAL25       0.1727
     36  C         98.5400  -12.8770    7.2440 C.2    25  VAL25       0.2616
     37  O         98.3120  -13.1810    6.0920 O.2    25  VAL25      -0.2715
     38  CB        98.5000  -10.3830    7.0800 C.3    25  VAL25       0.0290
     39  CG1       97.1800  -10.2590    7.8220 C.3    25  VAL25       0.0023
     40  CG2       99.3260   -9.1050    7.2230 C.3    25  VAL25       0.0023
     41  N         98.1810  -13.6300    8.2690 N.am   26  LYS26      -0.1963
     42  CA        97.4560  -14.8730    8.0690 C.3    26  LYS26       0.1728
     43  C         96.0570  -14.7290    8.6110 C.2    26  LYS26       0.2616
     44  O         95.8630  -14.2180    9.7080 O.2    26  LYS26      -0.2715
     45  CB        98.1400  -16.0310    8.7890 C.3    26  LYS26       0.0311
     46  CG        99.5680  -16.2360    8.3880 C.3    26  LYS26       0.0038
     47  CD       100.2330  -17.2940    9.2570 C.3    26  LYS26       0.0206
     48  CE        99.4590  -18.6070    9.2460 C.3    26  LYS26       0.1093
     49  NZ       100.3370  -19.7390    9.6880 N.3    26  LYS26      -0.1314
     50  N         95.0760  -15.1690    7.8330 N.am   27  VAL27      -0.1963
     51  CA        93.7140  -15.2100    8.3380 C.3    27  VAL27       0.1727
     52  C         93.2550  -16.6460    8.2100 C.2    27  VAL27       0.2616
     53  O         93.1780  -17.2040    7.1070 O.2    27  VAL27      -0.2715
     54  CB        92.7770  -14.2460    7.5870 C.3    27  VAL27       0.0290
     55  CG1       91.3370  -14.4340    8.0600 C.3    27  VAL27       0.0023
     56  CG2       93.2220  -12.8030    7.8170 C.3    27  VAL27       0.0023
     57  N         93.0160  -17.2560    9.3610 N.am   28  LEU28      -0.1977
     58  CA        92.5940  -18.6440    9.4430 C.3    28  LEU28       0.1596
     59  C         91.3800  -18.6770   10.3320 C.2    28  LEU28       0.2287
     60  O         91.5090  -18.5580   11.5480 O.2    28  LEU28      -0.2864
     61  CB        93.6860  -19.4960   10.0930 C.3    28  LEU28       0.0297
     62  CG        94.7620  -20.1440    9.2230 C.3    28  LEU28       0.0022
     63  CD1       95.5130  -19.1110    8.3970 C.3    28  LEU28       0.0001
     64  CD2       95.7200  -20.9350   10.1010 C.3    28  LEU28       0.0001
     65  N         85.7210  -13.9300    7.0870 N.3    63  PRO63      -0.2102
     66  CA        87.1910  -13.8390    7.0370 C.3    63  PRO63       0.1504
     67  C         87.7120  -13.6540    5.6130 C.2    63  PRO63       0.2575
     68  O         88.7740  -13.0620    5.4310 O.2    63  PRO63      -0.2718
     69  CB        87.6520  -15.1920    7.5780 C.3    63  PRO63       0.0282
     70  CG        86.4860  -15.7510    8.2880 C.3    63  PRO63       0.0208
     71  CD        85.2740  -15.2330    7.5980 C.3    63  PRO63       0.0893
     72  N         86.9740  -14.1450    4.6220 N.am   64  LEU64      -0.1980
     73  CA        87.4020  -13.9970    3.2190 C.3    64  LEU64       0.1596
     74  C         87.3350  -12.5440    2.7100 C.2    64  LEU64       0.2287
     75  O         87.9050  -12.2200    1.6620 O.2    64  LEU64      -0.2864
     76  CB        86.6020  -14.9290    2.2880 C.3    64  LEU64       0.0297
     77  CG        86.9350  -16.4240    2.3440 C.3    64  LEU64       0.0022
     78  CD1       86.0170  -17.2180    1.4390 C.3    64  LEU64       0.0001
     79  CD2       88.3930  -16.6750    1.9780 C.3    64  LEU64       0.0001
     80  N         88.4720  -10.0180    4.4730 N.3    66  ILE66      -0.1231
     81  CA        89.5150   -9.2800    5.1790 C.3    66  ILE66       0.1692
     82  C         90.6520   -8.9340    4.2150 C.2    66  ILE66       0.2593
     83  O         91.0920   -9.7960    3.4580 O.2    66  ILE66      -0.2718
     84  CB        90.0180  -10.0890    6.3550 C.3    66  ILE66       0.0266
     85  CG1       88.8820  -10.2020    7.3880 C.3    66  ILE66       0.0019
     86  CG2       91.2660   -9.4340    6.9870 C.3    66  ILE66       0.0020
     87  CD1       89.1970  -11.0630    8.5590 C.3    66  ILE66       0.0001
     88  N         91.0950   -7.6720    4.2250 N.am   67  THR67      -0.1939
     89  CA        92.2190   -7.2420    3.3830 C.3    67  THR67       0.2028
     90  C         93.2300   -6.4270    4.1830 C.2    67  THR67       0.2643
     91  O         93.0010   -6.0620    5.3450 O.2    67  THR67      -0.2714
     92  CB        91.7680   -6.3880    2.1740 C.3    67  THR67       0.1808
     93  OG1       91.2170   -5.1530    2.6430 O.3    67  THR67      -0.2208
     94  CG2       90.7190   -7.1300    1.3200 C.3    67  THR67       0.0379
     95  N         94.3390   -6.1080    3.5410 N.am   68  SER68      -0.1935
     96  CA        95.4420   -5.5000    4.2630 C.3    68  SER68       0.2055
     97  C         96.2420   -4.5790    3.3550 C.2    68  SER68       0.2644
     98  O         96.4000   -4.8340    2.1380 O.2    68  SER68      -0.2714
     99  CB        96.3300   -6.6040    4.8350 C.3    68  SER68       0.2130
    100  OG        97.4480   -6.1000    5.5630 O.3    68  SER68      -0.2179
    101  N         96.7740   -3.5280    3.9600 N.am   69  SER69      -0.1935
    102  CA        97.6290   -2.6050    3.2430 C.3    69  SER69       0.2055
    103  C         98.6620   -1.9360    4.1750 C.2    69  SER69       0.2643
    104  O         98.5120   -1.8750    5.4010 O.2    69  SER69      -0.2714
    105  CB        96.7890   -1.5610    2.4940 C.3    69  SER69       0.2130
    106  OG        96.1520   -0.6810    3.4020 O.3    69  SER69      -0.2179
    107  N         99.7210   -1.4440    3.5610 N.am   70  LEU70      -0.1963
    108  CA       100.8730   -0.9620    4.2780 C.3    70  LEU70       0.1728
    109  C        101.1290    0.4510    3.7970 C.2    70  LEU70       0.2617
    110  O        101.2990    0.6780    2.6010 O.2    70  LEU70      -0.2715
    111  CB       102.0740   -1.8510    3.9480 C.3    70  LEU70       0.0311
    112  CG       103.3950   -1.4110    4.5690 C.3    70  LEU70       0.0022
    113  CD1      103.2520   -1.3560    6.0690 C.3    70  LEU70       0.0001
    114  CD2      104.5220   -2.3650    4.1760 C.3    70  LEU70       0.0001
    115  N        101.1350    1.3990    4.7200 N.am   71  SER71      -0.1936
    116  CA       101.3010    2.7930    4.3500 C.3    71  SER71       0.2055
    117  C        102.7860    3.1240    4.2330 C.2    71  SER71       0.2643
    118  O        103.6350    2.4680    4.8470 O.2    71  SER71      -0.2714
    119  CB       100.6480    3.6970    5.3910 C.3    71  SER71       0.2130
    120  OG       101.4460    3.7440    6.5530 O.3    71  SER71      -0.2179
    121  N        103.1100    4.1470    3.4510 N.am   72  SER72      -0.1949
    122  CA       104.5160    4.5020    3.2700 C.3    72  SER72       0.1924
    123  C        105.2100    4.8860    4.5770 C.2    72  SER72       0.2314
    124  O        106.4320    4.8070    4.6620 O.2    72  SER72      -0.2863
    125  CB       104.6890    5.5970    2.2110 C.3    72  SER72       0.2116
    126  OG       104.0150    6.7810    2.5840 O.3    72  SER72      -0.2180
    127  N        100.8360   -0.7980    9.1550 N.3    76  LEU76      -0.1245
    128  CA       100.1320   -1.8990    8.5160 C.3    76  LEU76       0.1561
    129  C         98.6990   -1.9060    9.0090 C.2    76  LEU76       0.2260
    130  O         98.4450   -1.8810   10.2150 O.2    76  LEU76      -0.2867
    131  CB       100.7890   -3.2360    8.8710 C.3    76  LEU76       0.0270
    132  CG       100.1240   -4.4960    8.3010 C.3    76  LEU76       0.0019
    133  CD1      100.3760   -4.6040    6.8060 C.3    76  LEU76       0.0001
    134  CD2      100.5800   -5.7670    9.0220 C.3    76  LEU76       0.0001
    135  N         94.9510   -3.9560    8.7500 N.3    78  VAL78      -0.1245
    136  CA        94.2030   -5.1320    8.3360 C.3    78  VAL78       0.1561
    137  C         92.7780   -4.8300    8.7210 C.2    78  VAL78       0.2260
    138  O         92.5010   -4.5320    9.8810 O.2    78  VAL78      -0.2867
    139  CB        94.6760   -6.4250    9.0550 C.3    78  VAL78       0.0252
    140  CG1       93.8570   -7.6300    8.6110 C.3    78  VAL78       0.0019
    141  CG2       96.1850   -6.6680    8.8330 C.3    78  VAL78       0.0019
@<TRIPOS>BOND
     1    16    14   ar
     2    13    14    1
     3    13    12    1
     4    14    15   ar
     5    12     9    1
     6    94    92    1
     7    78    77    1
     8     6     5    1
     9     6     7    1
    10     5     2    1
    11    75    74    2
    12     9     8    1
    13     9    10    1
    14    79    77    1
    15     8     3   am
    16    98    97    2
    17    92    93    1
    18    92    89    1
    19   125   126    1
    20   125   122    1
    21     7     1    1
    22    76    77    1
    23    76    73    1
    24   105   102    1
    25   105   106    1
    26   110   109    2
    27    74    73    1
    28     3     2    1
    29     3     4    2
    30     2     1    1
    31    10    11    2
    32    73    72    1
    33   102   101    1
    34   102   103    1
    35   122   121    1
    36   122   123    1
    37    97   101   am
    38    97    96    1
    39    89    90    1
    40    89    88    1
    41   121   117   am
    42    83    82    2
    43    95    90   am
    44    95    96    1
    45   107   103   am
    46   107   108    1
    47   109   108    1
    48   109   115   am
    49   111   108    1
    50   111   112    1
    51   103   104    2
    52   114   112    1
    53    90    91    2
    54    82    88   am
    55    82    81    1
    56   117   116    1
    57   117   118    2
    58    96    99    1
    59   116   115    1
    60   116   119    1
    61    80    81    1
    62   112   113    1
    63   123   124    2
    64    72    67   am
    65    99   100    1
    66    20    19    2
    67    81    84    1
    68   119   120    1
    69    68    67    2
    70    67    66    1
    71    17    18    1
    72    37    36    2
    73    32    33    1
    74    32    31    1
    75    19    18    1
    76    19    25   am
    77    84    86    1
    78    84    85    1
    79    21    18    1
    80    21    22    1
    81    30    29    1
    82    30    31    1
    83    23    22    1
    84    26    29    1
    85    26    25    1
    86    26    27    1
    87   133   132    1
    88    34    35    1
    89    34    27   am
    90    66    65    1
    91    66    69    1
    92    38    40    1
    93    38    35    1
    94    38    39    1
    95    65    71    1
    96    53    52    2
    97    22    24    1
    98    36    35    1
    99    36    41   am
   100    85    87    1
   101    69    70    1
   102    54    56    1
   103    54    55    1
   104    54    51    1
   105    71    70    1
   106    27    28    2
   107    50    51    1
   108    50    43   am
   109    42    41    1
   110    42    43    1
   111    42    45    1
   112    52    51    1
   113    52    57   am
   114   132   131    1
   115   132   134    1
   116   136   137    1
   117   136   135    1
   118   136   139    1
   119    46    45    1
   120    46    47    1
   121    63    62    1
   122   128   131    1
   123   128   129    1
   124   128   127    1
   125   140   139    1
   126    43    44    2
   127   137   138    2
   128   141   139    1
   129   129   130    2
   130    62    61    1
   131    62    64    1
   132    48    47    1
   133    48    49    1
   134    57    58    1
   135    58    61    1
   136    58    59    1
   137    59    60    2
