@<TRIPOS>MOLECULE
tmp/4m5tG00.pdb
 125 122 0 0 0
SMALL
GASTEIGER

@<TRIPOS>ATOM
      1  N        100.3120   10.3670   26.5830 N.3    20  PRO20      -0.2116
      2  CA        99.1310   11.1460   26.1890 C.3    20  PRO20       0.1372
      3  C         99.3130   12.6570   26.3510 C.2    20  PRO20       0.2244
      4  O         98.8960   13.4200   25.4810 O.2    20  PRO20      -0.2868
      5  CB        98.0540   10.6440   27.1590 C.3    20  PRO20       0.0268
      6  CG        98.4410    9.2340   27.4310 C.3    20  PRO20       0.0207
      7  CD        99.9460    9.1730   27.3710 C.3    20  PRO20       0.0892
      8  N        101.1140   14.5370   23.5620 N.3    23  LEU23      -0.1231
      9  CA       100.5220   14.4870   22.2290 C.3    23  LEU23       0.1693
     10  C         99.4870   15.5870   22.0620 C.2    23  LEU23       0.2592
     11  O         98.7360   15.8970   22.9890 O.2    23  LEU23      -0.2718
     12  CB        99.8700   13.1250   21.9630 C.3    23  LEU23       0.0284
     13  CG       100.7870   11.9010   21.9000 C.3    23  LEU23       0.0019
     14  CD1       99.9630   10.6270   21.8480 C.3    23  LEU23       0.0001
     15  CD2      101.7000   11.9820   20.6900 C.3    23  LEU23       0.0001
     16  N         99.4580   16.1820   20.8780 N.am   24  LYS24      -0.1966
     17  CA        98.4590   17.1980   20.5670 C.3    24  LYS24       0.1728
     18  C         97.7990   16.9140   19.2180 C.2    24  LYS24       0.2616
     19  O         98.4760   16.7080   18.2100 O.2    24  LYS24      -0.2715
     20  CB        99.0990   18.5890   20.5600 C.3    24  LYS24       0.0311
     21  CG        98.1550   19.7140   20.1890 C.3    24  LYS24       0.0038
     22  CD        98.9010   21.0290   19.9880 C.3    24  LYS24       0.0206
     23  CE        99.7060   21.4210   21.2190 C.3    24  LYS24       0.1093
     24  NZ       100.3790   22.7410   21.0410 N.3    24  LYS24      -0.1314
     25  N         96.4730   16.8790   19.2060 N.am   25  VAL25      -0.1963
     26  CA        95.7470   16.7370   17.9570 C.3    25  VAL25       0.1727
     27  C         94.9750   18.0080   17.6820 C.2    25  VAL25       0.2616
     28  O         94.0500   18.3500   18.4090 O.2    25  VAL25      -0.2715
     29  CB        94.8020   15.5190   17.9560 C.3    25  VAL25       0.0290
     30  CG1       93.9600   15.4950   16.6670 C.3    25  VAL25       0.0023
     31  CG2       95.6030   14.2360   18.0900 C.3    25  VAL25       0.0023
     32  N         95.3750   18.7210   16.6390 N.am   26  LYS26      -0.1963
     33  CA        94.7270   19.9780   16.3000 C.3    26  LYS26       0.1728
     34  C         93.8930   19.7840   15.0590 C.2    26  LYS26       0.2616
     35  O         94.3610   19.2410   14.0490 O.2    26  LYS26      -0.2715
     36  CB        95.7560   21.0850   16.0330 C.3    26  LYS26       0.0311
     37  CG        96.5140   21.5480   17.2610 C.3    26  LYS26       0.0038
     38  CD        97.7010   22.4440   16.8980 C.3    26  LYS26       0.0206
     39  CE        97.2620   23.7900   16.3510 C.3    26  LYS26       0.1093
     40  NZ        98.4340   24.6860   16.1540 N.3    26  LYS26      -0.1314
     41  N         92.6570   20.2450   15.1260 N.am   27  VAL27      -0.1963
     42  CA        91.8150   20.2640   13.9520 C.3    27  VAL27       0.1727
     43  C         91.3320   21.6880   13.7420 C.2    27  VAL27       0.2616
     44  O         90.4960   22.1940   14.4980 O.2    27  VAL27      -0.2715
     45  CB        90.6140   19.3310   14.0970 C.3    27  VAL27       0.0290
     46  CG1       89.6510   19.5540   12.9450 C.3    27  VAL27       0.0023
     47  CG2       91.0770   17.8740   14.1490 C.3    27  VAL27       0.0023
     48  N         91.8870   22.3290   12.7200 N.am   28  LEU28      -0.1977
     49  CA        91.5470   23.6980   12.3710 C.3    28  LEU28       0.1596
     50  C         91.0820   23.7080   10.9320 C.2    28  LEU28       0.2287
     51  O         91.8660   23.4590   10.0220 O.2    28  LEU28      -0.2864
     52  CB        92.7560   24.6280   12.5160 C.3    28  LEU28       0.0297
     53  CG        93.2040   25.0930   13.9030 C.3    28  LEU28       0.0022
     54  CD1       92.0040   25.4640   14.7650 C.3    28  LEU28       0.0001
     55  CD2       94.0650   24.0420   14.5790 C.3    28  LEU28       0.0001
     56  N         84.5120   19.0620   10.2000 N.3    64  PRO64      -0.2102
     57  CA        85.6800   18.9080   11.0740 C.3    64  PRO64       0.1504
     58  C         85.3000   18.7760   12.5490 C.2    64  PRO64       0.2575
     59  O         86.0800   18.2210   13.3230 O.2    64  PRO64      -0.2718
     60  CB        86.5030   20.1830   10.8250 C.3    64  PRO64       0.0282
     61  CG        85.5840   21.1360   10.1560 C.3    64  PRO64       0.0208
     62  CD        84.5220   20.3320    9.4540 C.3    64  PRO64       0.0893
     63  N         84.1070   19.2310   12.9230 N.am   65  LEU65      -0.1980
     64  CA        83.6750   19.1140   14.3180 C.3    65  LEU65       0.1596
     65  C         83.2960   17.6720   14.6790 C.2    65  LEU65       0.2287
     66  O         83.1460   17.3350   15.8500 O.2    65  LEU65      -0.2864
     67  CB        82.5080   20.0660   14.6020 C.3    65  LEU65       0.0297
     68  CG        82.8970   21.5510   14.6180 C.3    65  LEU65       0.0022
     69  CD1       81.6790   22.4460   14.5760 C.3    65  LEU65       0.0001
     70  CD2       83.7640   21.8940   15.8330 C.3    65  LEU65       0.0001
     71  N         85.2140   15.1710   13.9000 N.3    67  ILE67      -0.1231
     72  CA        86.4460   14.4010   13.9990 C.3    67  ILE67       0.1692
     73  C         86.7340   14.0510   15.4560 C.2    67  ILE67       0.2593
     74  O         86.5950   14.8970   16.3490 O.2    67  ILE67      -0.2718
     75  CB        87.6200   15.1490   13.3680 C.3    67  ILE67       0.0266
     76  CG1       87.4510   15.1670   11.8510 C.3    67  ILE67       0.0019
     77  CG2       88.9640   14.4690   13.7220 C.3    67  ILE67       0.0020
     78  CD1       88.3150   16.2270   11.1450 C.3    67  ILE67       0.0001
     79  N         87.1020   12.7900   15.6980 N.am   68  THR68      -0.1939
     80  CA        87.5230   12.3780   17.0430 C.3    68  THR68       0.2028
     81  C         88.8390   11.6330   16.9810 C.2    68  THR68       0.2643
     82  O         89.2960   11.2500   15.9020 O.2    68  THR68      -0.2714
     83  CB        86.4830   11.4730   17.7490 C.3    68  THR68       0.1808
     84  OG1       86.2410   10.3080   16.9550 O.3    68  THR68      -0.2208
     85  CG2       85.1620   12.2260   17.9670 C.3    68  THR68       0.0379
     86  N         89.4320   11.4370   18.1530 N.am   69  SER69      -0.1935
     87  CA        90.7410   10.7880   18.2780 C.3    69  SER69       0.2055
     88  C         90.8060    9.8550   19.4920 C.2    69  SER69       0.2644
     89  O         90.2010   10.1290   20.5360 O.2    69  SER69      -0.2714
     90  CB        91.8430   11.8390   18.3890 C.3    69  SER69       0.2130
     91  OG        93.1160   11.2120   18.5430 O.3    69  SER69      -0.2179
     92  N         91.5350    8.7480   19.3570 N.am   70  SER70      -0.1935
     93  CA        91.7570    7.8670   20.4950 C.3    70  SER70       0.2055
     94  C         93.1340    7.2220   20.4360 C.2    70  SER70       0.2643
     95  O         93.7880    7.1910   19.3910 O.2    70  SER70      -0.2714
     96  CB        90.6610    6.7980   20.6030 C.3    70  SER70       0.2130
     97  OG        90.7840    5.8200   19.5850 O.3    70  SER70      -0.2179
     98  N         93.5860    6.7320   21.5770 N.am   71  LEU71      -0.1963
     99  CA        94.9170    6.1530   21.6650 C.3    71  LEU71       0.1728
    100  C         94.8290    4.7340   22.2200 C.2    71  LEU71       0.2617
    101  O         94.1750    4.5010   23.2400 O.2    71  LEU71      -0.2715
    102  CB        95.7860    7.0270   22.5640 C.3    71  LEU71       0.0311
    103  CG        97.1920    6.4970   22.8070 C.3    71  LEU71       0.0022
    104  CD1       97.9800    6.5260   21.4980 C.3    71  LEU71       0.0001
    105  CD2       97.8700    7.3290   23.8890 C.3    71  LEU71       0.0001
    106  N         95.4530    3.7800   21.5390 N.am   72  SER72      -0.1936
    107  CA        95.3680    2.3940   21.9910 C.3    72  SER72       0.2055
    108  C         96.4650    2.0870   23.0270 C.2    72  SER72       0.2643
    109  O         97.4000    2.8700   23.2100 O.2    72  SER72      -0.2714
    110  CB        95.4370    1.4200   20.8070 C.3    72  SER72       0.2130
    111  OG        96.6710    1.5250   20.1230 O.3    72  SER72      -0.2179
    112  N         96.3400    0.9530   23.7100 N.am   73  SER73      -0.1949
    113  CA        97.3250    0.5600   24.7120 C.3    73  SER73       0.1924
    114  C         98.6910    0.2860   24.0860 C.2    73  SER73       0.2314
    115  O         99.7180    0.4170   24.7540 O.2    73  SER73      -0.2863
    116  CB        96.8450   -0.6720   25.4750 C.3    73  SER73       0.2116
    117  OG        96.7550   -1.7930   24.6090 O.3    73  SER73      -0.2180
    118  N         97.9510    5.9930   17.6840 N.3    77  LEU77      -0.1245
    119  CA        97.0020    7.1040   17.8000 C.3    77  LEU77       0.1561
    120  C         96.1150    7.0830   16.5710 C.2    77  LEU77       0.2260
    121  O         96.6120    7.0730   15.4500 O.2    77  LEU77      -0.2867
    122  CB        97.7400    8.4400   17.9060 C.3    77  LEU77       0.0270
    123  CG        96.9010    9.7260   17.9230 C.3    77  LEU77       0.0019
    124  CD1       96.0990    9.8370   19.2090 C.3    77  LEU77       0.0001
    125  CD2       97.7680   10.9570   17.7330 C.3    77  LEU77       0.0001
@<TRIPOS>BOND
     1    62    61    1
     2    62    56    1
     3    51    50    2
     4    61    60    1
     5    56    57    1
     6    60    57    1
     7    50    49    1
     8    57    58    1
     9    78    76    1
    10    76    75    1
    11    49    52    1
    12    49    48    1
    13    52    53    1
    14    58    63   am
    15    58    59    2
    16    48    43   am
    17    63    64    1
    18    46    45    1
    19    75    77    1
    20    75    72    1
    21    43    42    1
    22    43    44    2
    23    71    72    1
    24    53    55    1
    25    53    54    1
    26    42    45    1
    27    42    41    1
    28    72    73    1
    29    35    34    2
    30    45    47    1
    31    64    67    1
    32    64    65    1
    33    69    68    1
    34    67    68    1
    35    68    70    1
    36    65    66    2
    37    34    41   am
    38    34    33    1
    39   121   120    2
    40    73    79   am
    41    73    74    2
    42    79    80    1
    43    82    81    2
    44    36    33    1
    45    36    37    1
    46    40    39    1
    47    33    32    1
    48    39    38    1
    49   120   119    1
    50    32    27   am
    51    30    29    1
    52    38    37    1
    53    84    83    1
    54    81    80    1
    55    81    86   am
    56    80    83    1
    57    27    26    1
    58    27    28    2
    59   118   119    1
    60   125   123    1
    61    83    85    1
    62   119   122    1
    63   122   123    1
    64   123   124    1
    65    29    26    1
    66    29    31    1
    67    26    25    1
    68    86    87    1
    69    19    18    2
    70    87    90    1
    71    87    88    1
    72    90    91    1
    73    25    18   am
    74    18    17    1
    75    92    88   am
    76    92    93    1
    77    95    94    2
    78    88    89    2
    79    97    96    1
    80    22    21    1
    81    22    23    1
    82   111   110    1
    83    21    20    1
    84    94    93    1
    85    94    98   am
    86    93    96    1
    87    20    17    1
    88    17    16    1
    89    15    13    1
    90   110   107    1
    91    16    10   am
    92    24    23    1
    93   104   103    1
    94   106   107    1
    95   106   100   am
    96    98    99    1
    97    99   100    1
    98    99   102    1
    99    14    13    1
   100    13    12    1
   101    12     9    1
   102   107   108    1
   103    10     9    1
   104    10    11    2
   105   100   101    2
   106     9     8    1
   107   102   103    1
   108   103   105    1
   109   108   109    2
   110   108   112   am
   111   112   113    1
   112   114   113    1
   113   114   115    2
   114   117   116    1
   115   113   116    1
   116     4     3    2
   117     2     3    1
   118     2     1    1
   119     2     5    1
   120     1     7    1
   121     5     6    1
   122     7     6    1
