@<TRIPOS>MOLECULE
tmp/4m5uA00.pdb
 176 164 0 0 0
SMALL
GASTEIGER

@<TRIPOS>ATOM
      1  N         13.2360   13.6330  -18.6260 N.3    25  ALA25      -0.1231
      2  CA        12.1670   14.5580  -18.2640 C.3    25  ALA25       0.1694
      3  C         12.0390   15.7230  -19.2570 C.2    25  ALA25       0.2591
      4  O         10.9370   16.0330  -19.7010 O.2    25  ALA25      -0.2718
      5  CB        12.3880   15.0890  -16.8630 C.3    25  ALA25       0.0304
      6  N         13.1560   16.3540  -19.6150 N.am   26  MET26      -0.1979
      7  CA        13.1190   17.4660  -20.5700 C.3    26  MET26       0.1605
      8  C         12.5890   17.0290  -21.9320 C.2    26  MET26       0.2287
      9  O         11.7370   17.7020  -22.5180 O.2    26  MET26      -0.2864
     10  CB        14.4980   18.1080  -20.7250 C.3    26  MET26       0.0413
     11  CG        14.9790   18.7940  -19.4640 C.3    26  MET26       0.0598
     12  SD        16.4960   19.7530  -19.6470 S.3    26  MET26      -0.1393
     13  CE        15.9090   21.1530  -20.5980 C.3    26  MET26       0.0692
     14  N          8.9590   16.6760  -21.9510 N.3    29  TYR29      -0.1241
     15  CA         8.2270   17.9410  -22.0210 C.3    29  TYR29       0.1605
     16  C          8.5980   18.7680  -23.2590 C.2    29  TYR29       0.2264
     17  O          8.2080   19.9300  -23.3740 O.2    29  TYR29      -0.2867
     18  CB         8.4510   18.7650  -20.7470 C.3    29  TYR29       0.0534
     19  CG         7.8280   18.1540  -19.5030 C.ar   29  TYR29      -0.0201
     20  CD1        6.4620   18.2470  -19.2670 C.ar   29  TYR29      -0.0009
     21  CD2        8.6100   17.4990  -18.5600 C.ar   29  TYR29      -0.0009
     22  CE1        5.8920   17.6910  -18.1320 C.ar   29  TYR29       0.0417
     23  CE2        8.0510   16.9410  -17.4250 C.ar   29  TYR29       0.0417
     24  CZ         6.6930   17.0400  -17.2150 C.ar   29  TYR29       0.1957
     25  OH         6.1370   16.4870  -16.0840 O.3    29  TYR29      -0.2866
     26  N         11.6040   19.8660  -24.4410 N.3    31  GLU31      -0.1245
     27  CA        12.7470   20.7700  -24.4000 C.3    31  GLU31       0.1567
     28  C         14.0600   20.0120  -24.5860 C.2    31  GLU31       0.2260
     29  O         14.1640   18.8360  -24.2380 O.2    31  GLU31      -0.2867
     30  CB        12.7490   21.5680  -23.0960 C.3    31  GLU31       0.0388
     31  CG        11.4340   22.2910  -22.8450 C.3    31  GLU31       0.1160
     32  CD        11.2120   22.6290  -21.3870 C.2    31  GLU31       0.3649
     33  OE1       10.5590   23.6570  -21.1110 O.co2  31  GLU31      -0.2457
     34  OE2       11.6820   21.8650  -20.5170 O.co2  31  GLU31      -0.2457
     35  N         18.2820   24.5070  -23.6300 N.3    36  GLU36      -0.1245
     36  CA        17.8090   24.9780  -22.3370 C.3    36  GLU36       0.1567
     37  C         18.7180   24.4750  -21.2150 C.2    36  GLU36       0.2260
     38  O         18.2990   23.6620  -20.3900 O.2    36  GLU36      -0.2867
     39  CB        16.3610   24.5500  -22.1050 C.3    36  GLU36       0.0388
     40  CG        15.3780   25.1900  -23.0870 C.3    36  GLU36       0.1160
     41  CD        15.4090   26.7100  -23.0500 C.2    36  GLU36       0.3649
     42  OE1       15.5160   27.2850  -21.9460 O.co2  36  GLU36      -0.2457
     43  OE2       15.3310   27.3300  -24.1330 O.co2  36  GLU36      -0.2457
     44  N         20.4960   26.0400  -18.6720 N.3    38  ASN38      -0.1225
     45  CA        20.2520   26.5100  -17.3130 C.3    38  ASN38       0.1785
     46  C         19.0910   25.7410  -16.6890 C.2    38  ASN38       0.2597
     47  O         19.1300   25.4080  -15.5060 O.2    38  ASN38      -0.2718
     48  CB        19.9830   28.0180  -17.2740 C.3    38  ASN38       0.1169
     49  CG        21.2220   28.8410  -17.5850 C.2    38  ASN38       0.2627
     50  OD1       22.3480   28.3970  -17.3540 O.2    38  ASN38      -0.2716
     51  ND2       21.0200   30.0600  -18.0770 N.am   38  ASN38      -0.0877
     52  N         18.0610   25.4580  -17.4840 N.am   39  LYS39      -0.1980
     53  CA        16.9510   24.6430  -17.0000 C.3    39  LYS39       0.1596
     54  C         17.4470   23.2330  -16.6990 C.2    39  LYS39       0.2287
     55  O         17.0820   22.6360  -15.6870 O.2    39  LYS39      -0.2864
     56  CB        15.8070   24.5800  -18.0150 C.3    39  LYS39       0.0298
     57  CG        14.6230   23.7620  -17.5010 C.3    39  LYS39       0.0038
     58  CD        13.4420   23.7060  -18.4640 C.3    39  LYS39       0.0206
     59  CE        12.5770   24.9440  -18.3780 C.3    39  LYS39       0.1093
     60  NZ        11.3230   24.8060  -19.1660 N.3    39  LYS39      -0.1314
     61  N         19.1810   23.2770  -13.5130 N.3    42  ALA42      -0.1231
     62  CA        18.1830   23.4740  -12.4670 C.3    42  ALA42       0.1694
     63  C         17.4390   22.1740  -12.1590 C.2    42  ALA42       0.2591
     64  O         17.1650   21.8690  -10.9980 O.2    42  ALA42      -0.2718
     65  CB        17.2000   24.5630  -12.8710 C.3    42  ALA42       0.0304
     66  N         17.1210   21.4130  -13.2010 N.am   43  ILE43      -0.1980
     67  CA        16.3580   20.1790  -13.0430 C.3    43  ILE43       0.1595
     68  C         17.2050   19.1230  -12.3360 C.2    43  ILE43       0.2287
     69  O         16.7150   18.4040  -11.4650 O.2    43  ILE43      -0.2864
     70  CB        15.8600   19.6440  -14.4000 C.3    43  ILE43       0.0276
     71  CG1       14.7320   20.5350  -14.9240 C.3    43  ILE43       0.0022
     72  CG2       15.3740   18.1980  -14.2760 C.3    43  ILE43       0.0022
     73  CD1       14.4010   20.3150  -16.3790 C.3    43  ILE43       0.0001
     74  N         17.4880   20.1850   -8.5110 N.3    46  HIS46      -0.1241
     75  CA        16.2440   19.8790   -7.8150 C.3    46  HIS46       0.1621
     76  C         16.0590   18.3700   -7.6140 C.2    46  HIS46       0.2264
     77  O         15.6600   17.9320   -6.5320 O.2    46  HIS46      -0.2867
     78  CB        15.0640   20.4750   -8.5900 C.3    46  HIS46       0.0745
     79  CG        13.7160   20.0840   -8.0640 C.ar   46  HIS46       0.0817
     80  ND1       13.0280   18.9800   -8.5220 N.ar   46  HIS46      -0.2268
     81  CD2       12.9080   20.6780   -7.1530 C.ar   46  HIS46       0.1154
     82  CE1       11.8670   18.8960   -7.8960 C.ar   46  HIS46       0.1986
     83  NE2       11.7670   19.9170   -7.0630 N.ar   46  HIS46      -0.2212
     84  N          9.3160   12.6130   -7.9500 N.3    85  GLU85      -0.1245
     85  CA        10.1130   13.3330   -8.9380 C.3    85  GLU85       0.1567
     86  C         11.1030   12.3590   -9.5820 C.2    85  GLU85       0.2260
     87  O         11.5850   11.4350   -8.9240 O.2    85  GLU85      -0.2867
     88  CB        10.8410   14.5100   -8.2740 C.3    85  GLU85       0.0388
     89  CG        11.6120   15.4380   -9.2120 C.3    85  GLU85       0.1160
     90  CD        10.7230   16.0540  -10.2800 C.2    85  GLU85       0.3649
     91  OE1       10.0290   17.0500   -9.9790 O.co2  85  GLU85      -0.2457
     92  OE2       10.7330   15.5570  -11.4240 O.co2  85  GLU85      -0.2457
     93  N          1.5930   16.8110   -9.6180 N.3   111  LEU111     -0.1245
     94  CA         2.5750   15.8710   -9.1010 C.3   111  LEU111      0.1561
     95  C          3.4650   16.5350   -8.0590 C.2   111  LEU111      0.2260
     96  O          4.0690   17.5750   -8.3170 O.2   111  LEU111     -0.2867
     97  CB         3.4330   15.2960  -10.2290 C.3   111  LEU111      0.0270
     98  CG         2.7740   14.2570  -11.1360 C.3   111  LEU111      0.0019
     99  CD1        3.6720   13.9240  -12.3200 C.3   111  LEU111      0.0001
    100  CD2        2.4570   12.9990  -10.3390 C.3   111  LEU111      0.0001
    101  N          6.7860   16.0100   -5.1830 N.3   113  ASP113     -0.1239
    102  CA         8.1180   15.4250   -5.2680 C.3   113  ASP113      0.1674
    103  C          8.3190   14.1670   -4.4420 C.2   113  ASP113      0.2266
    104  O          9.0010   13.2380   -4.8710 O.2   113  ASP113     -0.2867
    105  CB         9.1490   16.4780   -4.8830 C.3   113  ASP113      0.1410
    106  CG         9.1800   17.6160   -5.8720 C.2   113  ASP113      0.3668
    107  OD1        9.1260   17.3240   -7.0900 O.co2 113  ASP113     -0.2456
    108  OD2        9.2430   18.7870   -5.4410 O.co2 113  ASP113     -0.2456
    109  N          6.1540   18.9610   -1.5620 N.3   124  GLU124     -0.1231
    110  CA         6.6950   19.6760   -2.7050 C.3   124  GLU124      0.1699
    111  C          8.0250   20.3040   -2.3260 C.2   124  GLU124      0.2592
    112  O          8.1000   21.1060   -1.3920 O.2   124  GLU124     -0.2718
    113  CB         5.7410   20.7550   -3.2230 C.3   124  GLU124      0.0402
    114  CG         6.4160   21.6220   -4.2790 C.3   124  GLU124      0.1161
    115  CD         6.6830   20.8730   -5.5740 C.2   124  GLU124      0.3649
    116  OE1        6.0940   19.7900   -5.7750 O.co2 124  GLU124     -0.2457
    117  OE2        7.5410   21.3330   -6.3600 O.co2 124  GLU124     -0.2457
    118  N          9.0760   19.9150   -3.0380 N.am  125  ILE125     -0.1966
    119  CA        10.4040   20.4490   -2.7860 C.3   125  ILE125      0.1727
    120  C         10.6220   21.6340   -3.7120 C.2   125  ILE125      0.2616
    121  O         10.2400   21.5910   -4.8800 O.2   125  ILE125     -0.2715
    122  CB        11.5040   19.3890   -3.0300 C.3   125  ILE125      0.0290
    123  CG1       11.3890   18.2450   -2.0210 C.3   125  ILE125      0.0022
    124  CG2       12.9000   20.0210   -3.0080 C.3   125  ILE125      0.0023
    125  CD1       11.7730   18.6380   -0.6130 C.3   125  ILE125      0.0001
    126  N         11.2450   22.6930   -3.2090 N.am  126  GLY126     -0.1955
    127  CA        11.6370   23.7610   -4.1000 C.3   126  GLY126      0.1869
    128  C         13.0710   24.1810   -3.8890 C.2   126  GLY126      0.2309
    129  O         13.5910   24.1700   -2.7740 O.2   126  GLY126     -0.2863
    130  N         16.7820   30.2790   -6.9670 N.3   129  ARG129     -0.1245
    131  CA        17.8620   31.2510   -7.0550 C.3   129  ARG129      0.1563
    132  C         17.3920   32.6230   -6.5900 C.2   129  ARG129      0.2260
    133  O         18.1390   33.5990   -6.6360 O.2   129  ARG129     -0.2867
    134  CB        18.3750   31.3290   -8.4920 C.3   129  ARG129      0.0307
    135  CG        19.0140   30.0450   -8.9860 C.3   129  ARG129      0.0489
    136  CD        18.8300   29.8820  -10.4860 C.3   129  ARG129      0.2205
    137  NE        17.7450   28.9480  -10.7710 N.pl3 129  ARG129     -0.0865
    138  CZ        17.2260   28.7360  -11.9750 C.cat 129  ARG129      0.5346
    139  NH1       17.6830   29.4010  -13.0260 N.pl3 129  ARG129      0.1354
    140  NH2       16.2430   27.8570  -12.1230 N.pl3 129  ARG129      0.1354
    141  N          9.3610   32.5930   -3.5970 N.3   135  TYR135     -0.1241
    142  CA         9.1880   31.2980   -4.2420 C.3   135  TYR135      0.1605
    143  C          8.1710   30.4220   -3.5050 C.2   135  TYR135      0.2264
    144  O          7.3950   29.7060   -4.1390 O.2   135  TYR135     -0.2867
    145  CB        10.5280   30.5740   -4.3600 C.3   135  TYR135      0.0534
    146  CG        10.4840   29.4010   -5.3090 C.ar  135  TYR135     -0.0201
    147  CD1       10.0900   29.5730   -6.6300 C.ar  135  TYR135     -0.0009
    148  CD2       10.8380   28.1260   -4.8930 C.ar  135  TYR135     -0.0009
    149  CE1       10.0400   28.5070   -7.5060 C.ar  135  TYR135      0.0417
    150  CE2       10.7980   27.0550   -5.7640 C.ar  135  TYR135      0.0417
    151  CZ        10.3970   27.2510   -7.0690 C.ar  135  TYR135      0.1957
    152  OH        10.3580   26.1880   -7.9410 O.3   135  TYR135     -0.2866
    153  N          4.8220   28.4860   -5.2310 N.3   139  LYS139     -0.1245
    154  CA         4.3550   27.1510   -4.8390 C.3   139  LYS139      0.1561
    155  C          3.0160   27.1340   -4.1270 C.2   139  LYS139      0.2260
    156  O          2.1290   26.4010   -4.5490 O.2   139  LYS139     -0.2867
    157  CB         5.3930   26.4420   -3.9620 C.3   139  LYS139      0.0271
    158  CG         6.7290   26.2080   -4.6270 C.3   139  LYS139      0.0035
    159  CD         6.5150   25.2560   -5.7990 C.3   139  LYS139      0.0206
    160  CE         7.8100   24.8890   -6.5010 C.3   139  LYS139      0.1093
    161  NZ         7.5640   23.9780   -7.6520 N.3   139  LYS139     -0.1314
    162  N         18.4990   33.5350  -14.8000 N.3   199  SER199     -0.1202
    163  CA        17.6120   32.8530  -15.7370 C.3   199  SER199      0.2020
    164  C         16.3150   32.3240  -15.1180 C.2   199  SER199      0.2618
    165  O         15.4050   31.9280  -15.8450 O.2   199  SER199     -0.2717
    166  CB        18.3560   31.6970  -16.4110 C.3   199  SER199      0.2103
    167  OG        18.7470   30.7180  -15.4650 O.3   199  SER199     -0.2182
    168  N         16.2260   32.2960  -13.7920 N.am  200  GLU200     -0.1979
    169  CA        15.0420   31.7280  -13.1470 C.3   200  GLU200      0.1602
    170  C         13.8000   32.5730  -13.4210 C.2   200  GLU200      0.2287
    171  O         13.8740   33.7990  -13.4880 O.2   200  GLU200     -0.2864
    172  CB        15.2440   31.5830  -11.6360 C.3   200  GLU200      0.0415
    173  CG        14.1090   30.8180  -10.9610 C.3   200  GLU200      0.1163
    174  CD        14.3780   30.5110   -9.5020 C.2   200  GLU200      0.3649
    175  OE1       15.4490   29.9480   -9.1980 O.co2 200  GLU200     -0.2457
    176  OE2       13.5120   30.8230   -8.6580 O.co2 200  GLU200     -0.2457
@<TRIPOS>BOND
     1    28    27    1
     2    28    29    2
     3    26    27    1
     4    27    30    1
     5    43    41   ar
     6    35    36    1
     7    17    16    2
     8    16    15    1
     9    30    31    1
    10    40    41    1
    11    40    39    1
    12    41    42   ar
    13    31    32    1
    14     9     8    2
    15    36    39    1
    16    36    37    1
    17    15    14    1
    18    15    18    1
    19     8     7    1
    20    32    33   ar
    21    32    34   ar
    22    37    38    2
    23    18    19    1
    24    10     7    1
    25    10    11    1
    26    13    12    1
    27     7     6    1
    28     4     3    2
    29    12    11    1
    30     6     3   am
    31    19    20   ar
    32    19    21   ar
    33    20    22   ar
    34     3     2    1
    35    60    59    1
    36    44    45    1
    37     1     2    1
    38    21    23   ar
    39    58    59    1
    40    58    57    1
    41     2     5    1
    42    22    24   ar
    43    51    49   am
    44    56    57    1
    45    56    53    1
    46    49    50    2
    47    49    48    1
    48    52    53    1
    49    52    46   am
    50    23    24   ar
    51    45    48    1
    52    45    46    1
    53    24    25    1
    54    53    54    1
    55    54    55    2
    56    46    47    2
    57   166   163    1
    58   166   167    1
    59    73    71    1
    60   165   164    2
    61   163   164    1
    62   163   162    1
    63   164   168   am
    64    71    70    1
    65    70    72    1
    66    70    67    1
    67   168   169    1
    68    61    62    1
    69   171   170    2
    70   170   169    1
    71    66    67    1
    72    66    63   am
    73   169   172    1
    74    67    68    1
    75   139   138    1
    76    65    62    1
    77    62    63    1
    78    68    69    2
    79    99    98    1
    80    63    64    2
    81   140   138    1
    82   138   137    2
    83   172   173    1
    84    92    90   ar
    85    98   100    1
    86    98    97    1
    87   173   174    1
    88   137   136    1
    89   136   135    1
    90    90    91   ar
    91    90    89    1
    92    97    94    1
    93    93    94    1
    94    86    85    1
    95    86    87    2
    96   174   175   ar
    97   174   176   ar
    98    89    88    1
    99    94    95    1
   100   135   134    1
   101    85    88    1
   102    85    84    1
   103    78    79    1
   104    78    75    1
   105    80    79   ar
   106    80    82   ar
   107    74    75    1
   108   134   131    1
   109    96    95    2
   110    79    81   ar
   111   152   151    1
   112    82    83   ar
   113    75    76    1
   114   161   160    1
   115    76    77    2
   116   149   151   ar
   117   149   147   ar
   118    81    83   ar
   119   107   106   ar
   120   151   150   ar
   121   131   130    1
   122   131   132    1
   123   133   132    2
   124   147   146   ar
   125   160   159    1
   126   117   115   ar
   127   106   108   ar
   128   106   105    1
   129   159   158    1
   130   116   115   ar
   131   150   148   ar
   132   115   114    1
   133   146   148   ar
   134   146   145    1
   135   102   101    1
   136   102   105    1
   137   102   103    1
   138   153   154    1
   139   121   120    2
   140   104   103    2
   141   154   155    1
   142   154   157    1
   143   158   157    1
   144   156   155    2
   145   145   142    1
   146   114   113    1
   147   142   141    1
   148   142   143    1
   149   144   143    2
   150   127   128    1
   151   127   126    1
   152   128   129    2
   153   120   126   am
   154   120   119    1
   155   113   110    1
   156   118   119    1
   157   118   111   am
   158   122   124    1
   159   122   119    1
   160   122   123    1
   161   110   111    1
   162   110   109    1
   163   111   112    2
   164   123   125    1
