@<TRIPOS>MOLECULE
tmp/4m5yD00.pdb
 85 80 0 0 0
SMALL
GASTEIGER

@<TRIPOS>ATOM
      1  N         61.9300   -0.6500   -8.6720 N.3    36  GLN36      -0.1245
      2  CA        62.5070   -1.6490   -9.5470 C.3    36  GLN36       0.1566
      3  C         62.0960   -1.2680  -10.9490 C.2    36  GLN36       0.2260
      4  O         60.9310   -0.9690  -11.1880 O.2    36  GLN36      -0.2867
      5  CB        61.9250   -3.0250   -9.2240 C.3    36  GLN36       0.0367
      6  CG        62.4360   -4.1450  -10.1350 C.3    36  GLN36       0.0905
      7  CD        61.6280   -5.4150   -9.9750 C.2    36  GLN36       0.2608
      8  OE1       60.4360   -5.4380  -10.3000 O.2    36  GLN36      -0.2717
      9  NE2       62.2640   -6.4800   -9.4620 N.am   36  GLN36      -0.0878
     10  N         62.3560   -2.7810  -14.8720 N.3    38  THR38      -0.1204
     11  CA        62.7230   -3.7880  -15.8510 C.3    38  THR38       0.1979
     12  C         62.8950   -3.0670  -17.1850 C.2    38  THR38       0.2459
     13  O         62.2060   -2.0940  -17.4510 O.2    38  THR38      -0.2732
     14  CB        61.6080   -4.8520  -15.9100 C.3    38  THR38       0.1783
     15  OG1       61.5160   -5.4930  -14.6290 O.3    38  THR38      -0.2211
     16  CG2       61.8700   -5.9040  -16.9880 C.3    38  THR38       0.0376
     17  N         63.8580   -3.5140  -18.0120 N.am   39  PRO39      -0.2728
     18  CA        64.0790   -2.8910  -19.3180 C.3    39  PRO39       0.1401
     19  C         62.7870   -2.6780  -20.0970 C.2    39  PRO39       0.2269
     20  O         62.0040   -3.6220  -20.2650 O.2    39  PRO39      -0.2865
     21  CB        64.9640   -3.9180  -20.0300 C.3    39  PRO39       0.0296
     22  CG        65.7900   -4.4980  -18.9180 C.3    39  PRO39       0.0237
     23  CD        64.9110   -4.4950  -17.6850 C.3    39  PRO39       0.0939
     24  N         60.1200   -0.8230  -19.3240 N.3    41  GLN41      -0.1245
     25  CA        58.9040   -0.6540  -18.5360 C.3    41  GLN41       0.1566
     26  C         59.0650    0.4890  -17.5420 C.2    41  GLN41       0.2260
     27  O         60.1870    0.8930  -17.2210 O.2    41  GLN41      -0.2867
     28  CB        58.5720   -1.9410  -17.7650 C.3    41  GLN41       0.0367
     29  CG        58.4300   -3.1670  -18.6570 C.3    41  GLN41       0.0905
     30  CD        58.0380   -4.3930  -17.8790 C.2    41  GLN41       0.2608
     31  OE1       57.5290   -4.2940  -16.7620 O.2    41  GLN41      -0.2717
     32  NE2       58.2820   -5.5650  -18.4560 N.am   41  GLN41      -0.0878
     33  N         64.7700  -13.6340  -12.6900 N.3    80  GLY80      -0.1210
     34  CA        63.7330  -12.6520  -12.9690 C.3    80  GLY80       0.1956
     35  C         63.8470  -11.3400  -12.2050 C.2    80  GLY80       0.2612
     36  O         63.1330  -10.3810  -12.5030 O.2    80  GLY80      -0.2717
     37  N         64.7270  -11.2880  -11.2080 N.am   81  ASP81      -0.1959
     38  CA        64.9290  -10.0710  -10.4370 C.3    81  ASP81       0.1840
     39  C         65.9080   -9.1120  -11.1020 C.2    81  ASP81       0.2621
     40  O         66.1190   -8.0020  -10.6090 O.2    81  ASP81      -0.2715
     41  CB        65.4470  -10.3960   -9.0390 C.3    81  ASP81       0.1450
     42  CG        64.4430  -11.1790   -8.2090 C.2    81  ASP81       0.3671
     43  OD1       63.2230  -11.0170   -8.4390 O.co2  81  ASP81      -0.2456
     44  OD2       64.8810  -11.9360   -7.3130 O.co2  81  ASP81      -0.2456
     45  N         66.5340   -9.5450  -12.1900 N.am   82  GLU82      -0.1977
     46  CA        67.3960   -8.6390  -12.9430 C.3    82  GLU82       0.1602
     47  C         66.6090   -7.4230  -13.3840 C.2    82  GLU82       0.2287
     48  O         65.5520   -7.5450  -14.0090 O.2    82  GLU82      -0.2864
     49  CB        68.0380   -9.3420  -14.1450 C.3    82  GLU82       0.0415
     50  CG        69.0640  -10.4110  -13.7390 C.3    82  GLU82       0.1163
     51  CD        69.9270  -10.8580  -14.8970 C.2    82  GLU82       0.3649
     52  OE1       69.3940  -11.0230  -16.0180 O.co2  82  GLU82      -0.2457
     53  OE2       71.1430  -11.0270  -14.6950 O.co2  82  GLU82      -0.2457
     54  N         68.4100   -6.1570  -23.8280 N.3   168  LYS168     -0.1231
     55  CA        67.9680   -7.2430  -22.9610 C.3   168  LYS168      0.1693
     56  C         66.5850   -7.7300  -23.3970 C.2   168  LYS168      0.2592
     57  O         65.6380   -6.9450  -23.4860 O.2   168  LYS168     -0.2718
     58  CB        67.9330   -6.7550  -21.5090 C.3   168  LYS168      0.0285
     59  CG        67.7160   -7.8320  -20.4500 C.3   168  LYS168      0.0035
     60  CD        68.9870   -8.6260  -20.2130 C.3   168  LYS168      0.0206
     61  CE        69.0440   -9.1470  -18.7700 C.3   168  LYS168      0.1093
     62  NZ        70.2150  -10.0930  -18.5710 N.3   168  LYS168     -0.1314
     63  N         66.4800   -9.0220  -23.6750 N.am  169  GLN169     -0.1966
     64  CA        65.2100   -9.6620  -24.0110 C.3   169  GLN169      0.1733
     65  C         64.4470   -9.9980  -22.7350 C.2   169  GLN169      0.2617
     66  O         65.0140   -9.9960  -21.6270 O.2   169  GLN169     -0.2715
     67  CB        65.4590  -10.9620  -24.7910 C.3   169  GLN169      0.0408
     68  CG        66.2280  -10.7660  -26.1090 C.3   169  GLN169      0.0908
     69  CD        66.4920  -12.0660  -26.8760 C.2   169  GLN169      0.2608
     70  OE1       66.8820  -12.0370  -28.0490 O.2   169  GLN169     -0.2717
     71  NE2       66.2860  -13.2040  -26.2240 N.am  169  GLN169     -0.0878
     72  N         63.1660  -10.3190  -22.8870 N.am  170  SER170     -0.1950
     73  CA        62.3340  -10.6490  -21.7240 C.3   170  SER170      0.1924
     74  C         62.7580  -11.9590  -21.0610 C.2   170  SER170      0.2314
     75  O         62.4360  -12.1970  -19.9000 O.2   170  SER170     -0.2863
     76  CB        60.8500  -10.6980  -22.1030 C.3   170  SER170      0.2116
     77  OG        60.5920  -11.7310  -23.0410 O.3   170  SER170     -0.2180
     78  N         65.8670  -12.7050  -20.5040 N.3   172  ASN172     -0.1240
     79  CA        67.1840  -12.3760  -19.9480 C.3   172  ASN172      0.1653
     80  C         68.3780  -12.6020  -20.8650 C.2   172  ASN172      0.2266
     81  O         69.5050  -12.2860  -20.4860 O.2   172  ASN172     -0.2867
     82  CB        67.4170  -13.0740  -18.5990 C.3   172  ASN172      0.1155
     83  CG        66.3290  -12.7590  -17.5970 C.2   172  ASN172      0.2627
     84  OD1       65.2190  -13.2840  -17.6900 O.2   172  ASN172     -0.2716
     85  ND2       66.6390  -11.8940  -16.6330 N.am  172  ASN172     -0.0877
@<TRIPOS>BOND
     1    70    69    2
     2    69    71   am
     3    69    68    1
     4    68    67    1
     5    67    64    1
     6    64    63    1
     7    64    65    1
     8    54    55    1
     9    63    56   am
    10    57    56    2
    11    56    55    1
    12    77    76    1
    13    55    58    1
    14    72    65   am
    15    72    73    1
    16    65    66    2
    17    76    73    1
    18    73    74    1
    19    58    59    1
    20    74    75    2
    21    80    81    2
    22    80    79    1
    23    78    79    1
    24    59    60    1
    25    20    19    2
    26    60    61    1
    27    19    18    1
    28    21    18    1
    29    21    22    1
    30    79    82    1
    31    24    25    1
    32    18    17    1
    33    22    23    1
    34    61    62    1
    35    29    30    1
    36    29    28    1
    37    82    83    1
    38    25    28    1
    39    25    26    1
    40    32    30   am
    41    17    23    1
    42    17    12   am
    43    30    31    2
    44    84    83    2
    45    83    85   am
    46    26    27    2
    47    13    12    2
    48    12    11    1
    49    16    14    1
    50    52    51   ar
    51    14    11    1
    52    14    15    1
    53    11    10    1
    54    51    53   ar
    55    51    50    1
    56    49    50    1
    57    49    46    1
    58    48    47    2
    59    47    46    1
    60    34    33    1
    61    34    35    1
    62    46    45    1
    63    36    35    2
    64    35    37   am
    65    45    39   am
    66    37    38    1
    67     4     3    2
    68    39    40    2
    69    39    38    1
    70     3     2    1
    71    38    41    1
    72     8     7    2
    73     6     7    1
    74     6     5    1
    75     7     9   am
    76     2     5    1
    77     2     1    1
    78    41    42    1
    79    43    42   ar
    80    42    44   ar
