@<TRIPOS>MOLECULE
tmp/4m5yA03.pdb
 88 83 0 0 0
SMALL
GASTEIGER

@<TRIPOS>ATOM
      1  N         32.0260   24.6910   29.4340 N.3    17  ILE17      -0.1245
      2  CA        32.6380   24.1940   28.2060 C.3    17  ILE17       0.1561
      3  C         33.1420   22.7780   28.4210 C.2    17  ILE17       0.2260
      4  O         33.8780   22.4960   29.3970 O.2    17  ILE17      -0.2867
      5  CB        33.8300   25.0900   27.7740 C.3    17  ILE17       0.0252
      6  CG1       33.3550   26.5240   27.5490 C.3    17  ILE17       0.0019
      7  CG2       34.5310   24.5350   26.5210 C.3    17  ILE17       0.0019
      8  CD1       34.5020   27.5160   27.2880 C.3    17  ILE17       0.0001
      9  N         35.6040   20.0400   27.0960 N.3    19  SER19      -0.1202
     10  CA        36.8430   19.9730   26.3260 C.3    19  SER19       0.2020
     11  C         37.3670   18.5420   26.2670 C.2    19  SER19       0.2618
     12  O         37.4410   17.8540   27.2910 O.2    19  SER19      -0.2717
     13  CB        37.9150   20.8580   26.9770 C.3    19  SER19       0.2103
     14  OG        37.5980   22.2480   26.8810 O.3    19  SER19      -0.2182
     15  N         37.7500   18.1040   25.0720 N.am   20  LEU20      -0.1979
     16  CA        38.3830   16.7970   24.9270 C.3    20  LEU20       0.1596
     17  C         39.5650   16.9250   23.9800 C.2    20  LEU20       0.2287
     18  O         39.6040   17.8280   23.1330 O.2    20  LEU20      -0.2864
     19  CB        37.4150   15.7330   24.3720 C.3    20  LEU20       0.0297
     20  CG        36.2420   15.3670   25.3050 C.3    20  LEU20       0.0022
     21  CD1       35.3030   14.4340   24.5370 C.3    20  LEU20       0.0001
     22  CD2       36.7240   14.7010   26.5660 C.3    20  LEU20       0.0001
     23  N         28.3650   26.7950   18.9600 N.3    67  ARG67      -0.1231
     24  CA        28.8560   26.3400   20.2560 C.3    67  ARG67       0.1694
     25  C         30.1430   25.5310   20.1250 C.2    67  ARG67       0.2592
     26  O         30.6220   24.9790   21.1250 O.2    67  ARG67      -0.2718
     27  CB        27.8500   25.3550   20.9290 C.3    67  ARG67       0.0321
     28  CG        26.4610   25.8400   21.2720 C.3    67  ARG67       0.0489
     29  CD        25.8980   24.9260   22.3770 C.3    67  ARG67       0.2205
     30  NE        25.2550   23.6880   21.9480 N.pl3  67  ARG67      -0.0865
     31  CZ        25.3740   22.5340   22.5750 C.cat  67  ARG67       0.5346
     32  NH1       26.1540   22.4420   23.6450 N.pl3  67  ARG67       0.1354
     33  NH2       24.7230   21.4640   22.1350 N.pl3  67  ARG67       0.1354
     34  N         30.6890   25.4250   18.9250 N.am   68  LEU68      -0.1966
     35  CA        31.7600   24.4640   18.6790 C.3    68  LEU68       0.1728
     36  C         33.0670   25.1120   18.3160 C.2    68  LEU68       0.2617
     37  O         33.1240   26.0890   17.5440 O.2    68  LEU68      -0.2715
     38  CB        31.3740   23.5780   17.5000 C.3    68  LEU68       0.0311
     39  CG        30.8940   22.1760   17.6950 C.3    68  LEU68       0.0022
     40  CD1       30.6690   21.5810   16.2950 C.3    68  LEU68       0.0001
     41  CD2       31.9530   21.4030   18.4490 C.3    68  LEU68       0.0001
     42  N         34.1420   24.5370   18.8430 N.am   69  GLY69      -0.1940
     43  CA        35.4540   24.8190   18.3100 C.3    69  GLY69       0.2014
     44  C         36.2310   23.5200   18.2170 C.2    69  GLY69       0.2639
     45  O         36.1570   22.6840   19.1000 O.2    69  GLY69      -0.2714
     46  N         36.9660   23.3510   17.1280 N.am   70  ILE70      -0.1963
     47  CA        37.8700   22.2220   16.9730 C.3    70  ILE70       0.1727
     48  C         39.2090   22.8280   16.5920 C.2    70  ILE70       0.2616
     49  O         39.2830   23.7770   15.7890 O.2    70  ILE70      -0.2715
     50  CB        37.3700   21.2150   15.9050 C.3    70  ILE70       0.0290
     51  CG1       36.0600   20.5700   16.3940 C.3    70  ILE70       0.0022
     52  CG2       38.4320   20.1270   15.6460 C.3    70  ILE70       0.0023
     53  CD1       35.3620   19.7070   15.3240 C.3    70  ILE70       0.0001
     54  N         40.2670   22.3290   17.2230 N.am   71  SER71      -0.1950
     55  CA        41.6030   22.8200   16.9270 C.3    71  SER71       0.1924
     56  C         42.5380   21.6530   16.6800 C.2    71  SER71       0.2314
     57  O         42.2290   20.5220   17.0280 O.2    71  SER71      -0.2863
     58  CB        42.1510   23.6710   18.0670 C.3    71  SER71       0.2116
     59  OG        42.2300   22.9230   19.2610 O.3    71  SER71      -0.2180
     60  N         41.5830   18.6490   19.0720 N.3    80  SER80      -0.1202
     61  CA        40.7720   18.8270   20.2680 C.3    80  SER80       0.2020
     62  C         39.3920   19.3510   19.9500 C.2    80  SER80       0.2619
     63  O         39.1420   19.8580   18.8440 O.2    80  SER80      -0.2717
     64  CB        41.4550   19.7800   21.2310 C.3    80  SER80       0.2103
     65  OG        41.9220   20.9120   20.5340 O.3    80  SER80      -0.2182
     66  N         38.4970   19.2060   20.9200 N.am   81  LEU81      -0.1965
     67  CA        37.0990   19.5980   20.7950 C.3    81  LEU81       0.1728
     68  C         36.7690   20.5260   21.9370 C.2    81  LEU81       0.2616
     69  O         37.1690   20.2650   23.0770 O.2    81  LEU81      -0.2715
     70  CB        36.2100   18.3630   20.9230 C.3    81  LEU81       0.0311
     71  CG        34.6930   18.5930   21.0180 C.3    81  LEU81       0.0022
     72  CD1       34.1900   19.1560   19.7140 C.3    81  LEU81       0.0001
     73  CD2       33.9830   17.2830   21.3140 C.3    81  LEU81       0.0001
     74  N         36.0340   21.5960   21.6470 N.am   82  LYS82      -0.1977
     75  CA        35.4600   22.4210   22.7100 C.3    82  LYS82       0.1596
     76  C         34.0120   22.6580   22.3530 C.2    82  LYS82       0.2287
     77  O         33.7150   23.1430   21.2540 O.2    82  LYS82      -0.2864
     78  CB        36.2060   23.7560   22.8580 C.3    82  LYS82       0.0298
     79  CG        37.5260   23.6640   23.6370 C.3    82  LYS82       0.0038
     80  CD        38.1440   25.0540   23.8290 C.3    82  LYS82       0.0206
     81  CE        39.2650   25.0680   24.8700 C.3    82  LYS82       0.1093
     82  NZ        39.4190   23.7840   25.6230 N.3    82  LYS82      -0.1314
     83  N         30.6680   24.5010   23.8730 N.3    84  SER84      -0.1217
     84  CA        30.2180   25.4120   24.9330 C.3    84  SER84       0.1889
     85  C         28.7520   25.2440   25.2870 C.2    84  SER84       0.2288
     86  O         28.0040   24.5590   24.5800 O.2    84  SER84      -0.2866
     87  CB        30.4400   26.8630   24.5240 C.3    84  SER84       0.2089
     88  OG        31.8200   27.1240   24.3640 O.3    84  SER84      -0.2183
@<TRIPOS>BOND
     1    53    51    1
     2    52    50    1
     3    49    48    2
     4    50    51    1
     5    50    47    1
     6    40    39    1
     7    48    47    1
     8    48    54   am
     9    56    55    1
    10    56    57    2
    11    55    54    1
    12    55    58    1
    13    47    46    1
    14    46    44   am
    15    38    39    1
    16    38    35    1
    17    37    36    2
    18    39    41    1
    19    58    59    1
    20    44    43    1
    21    44    45    2
    22    43    42    1
    23    36    35    1
    24    36    42   am
    25    35    34    1
    26    63    62    2
    27    34    25   am
    28    23    24    1
    29    60    61    1
    30    72    71    1
    31    62    61    1
    32    62    66   am
    33    25    24    1
    34    25    26    2
    35    24    27    1
    36    61    64    1
    37    65    64    1
    38    67    66    1
    39    67    70    1
    40    67    68    1
    41    70    71    1
    42    27    28    1
    43    71    73    1
    44    77    76    2
    45    28    29    1
    46    74    68   am
    47    74    75    1
    48    68    69    2
    49    30    29    1
    50    30    31    2
    51    33    31    1
    52    76    75    1
    53    31    32    1
    54    75    78    1
    55    78    79    1
    56    18    17    2
    57    79    80    1
    58    80    81    1
    59    83    84    1
    60    17    16    1
    61    88    87    1
    62    19    16    1
    63    19    20    1
    64    87    84    1
    65    21    20    1
    66    86    85    2
    67    81    82    1
    68    16    15    1
    69    84    85    1
    70    15    11   am
    71    20    22    1
    72    11    10    1
    73    11    12    2
    74    10    13    1
    75    10     9    1
    76     7     5    1
    77    14    13    1
    78     8     6    1
    79     6     5    1
    80     5     2    1
    81     2     3    1
    82     2     1    1
    83     3     4    2
