@<TRIPOS>MOLECULE
tmp/4m5yB00.pdb
 76 72 0 0 0
SMALL
GASTEIGER

@<TRIPOS>ATOM
      1  N         29.2240   -1.1120   11.7160 N.3    36  GLN36      -0.1245
      2  CA        28.6950   -2.1160   12.6320 C.3    36  GLN36       0.1566
      3  C         29.1020   -1.6920   14.0260 C.2    36  GLN36       0.2260
      4  O         30.2600   -1.3420   14.2550 O.2    36  GLN36      -0.2867
      5  CB        29.3390   -3.4630   12.3330 C.3    36  GLN36       0.0367
      6  CG        28.8460   -4.5980   13.2250 C.3    36  GLN36       0.0905
      7  CD        29.7180   -5.8210   13.0980 C.2    36  GLN36       0.2608
      8  OE1       30.9070   -5.7790   13.4230 O.2    36  GLN36      -0.2717
      9  NE2       29.1470   -6.9070   12.5910 N.am   36  GLN36      -0.0878
     10  N         32.5830    0.1300   13.8090 N.3    44  VAL44      -0.1245
     11  CA        33.6050   -0.3580   12.8940 C.3    44  VAL44       0.1561
     12  C         33.0930   -0.1590   11.4810 C.2    44  VAL44       0.2260
     13  O         31.9550   -0.5230   11.1760 O.2    44  VAL44      -0.2867
     14  CB        33.8160   -1.8600   13.1220 C.3    44  VAL44       0.0252
     15  CG1       34.6180   -2.4730   11.9710 C.3    44  VAL44       0.0019
     16  CG2       34.4830   -2.1030   14.4910 C.3    44  VAL44       0.0019
     17  N         32.3510   -1.1670    7.9300 N.3    46  VAL46      -0.1245
     18  CA        32.2310   -2.4430    7.2150 C.3    46  VAL46       0.1561
     19  C         32.1130   -2.3140    5.6910 C.2    46  VAL46       0.2260
     20  O         32.5410   -3.2090    4.9740 O.2    46  VAL46      -0.2867
     21  CB        31.0840   -3.3440    7.7650 C.3    46  VAL46       0.0252
     22  CG1       31.3930   -3.7490    9.2040 C.3    46  VAL46       0.0019
     23  CG2       29.7300   -2.6510    7.6740 C.3    46  VAL46       0.0019
     24  N         40.0320   -6.9660    5.9670 N.3    56  GLY56      -0.1210
     25  CA        39.7160   -7.6460    7.2080 C.3    56  GLY56       0.1956
     26  C         38.2350   -7.8840    7.4200 C.2    56  GLY56       0.2612
     27  O         37.8430   -8.6900    8.2660 O.2    56  GLY56      -0.2717
     28  N         37.4050   -7.1720    6.6640 N.am   57  ILE57      -0.1966
     29  CA        35.9600   -7.3620    6.7340 C.3    57  ILE57       0.1712
     30  C         35.5660   -8.5440    5.8550 C.2    57  ILE57       0.2458
     31  O         35.9340   -8.5980    4.6850 O.2    57  ILE57      -0.2730
     32  CB        35.2070   -6.0920    6.2870 C.3    57  ILE57       0.0289
     33  CG1       35.5410   -4.9220    7.2120 C.3    57  ILE57       0.0022
     34  CG2       33.7110   -6.3350    6.2560 C.3    57  ILE57       0.0023
     35  CD1       35.1680   -5.1620    8.6720 C.3    57  ILE57       0.0001
     36  N         34.8230   -9.5090    6.4180 N.am   58  PRO58      -0.2727
     37  CA        34.4420  -10.7140    5.6740 C.3    58  PRO58       0.1402
     38  C         33.6770  -10.4040    4.3910 C.2    58  PRO58       0.2269
     39  O         32.9080   -9.4550    4.3420 O.2    58  PRO58      -0.2865
     40  CB        33.5200  -11.4510    6.6500 C.3    58  PRO58       0.0296
     41  CG        33.9220  -10.9680    7.9910 C.3    58  PRO58       0.0237
     42  CD        34.3140   -9.5270    7.7990 C.3    58  PRO58       0.0939
     43  N         31.2130  -11.8180    3.3140 N.3    60  ARG60      -0.1231
     44  CA        29.7830  -11.9390    3.6170 C.3    60  ARG60       0.1694
     45  C         29.0590  -10.5910    3.6550 C.2    60  ARG60       0.2592
     46  O         27.8440  -10.5280    3.4680 O.2    60  ARG60      -0.2718
     47  CB        29.5710  -12.6370    4.9740 C.3    60  ARG60       0.0321
     48  CG        30.2310  -13.9940    5.0980 C.3    60  ARG60       0.0489
     49  CD        29.7650  -14.7350    6.3510 C.3    60  ARG60       0.2205
     50  NE        30.2590  -14.1550    7.6010 N.pl3  60  ARG60      -0.0865
     51  CZ        29.5060  -13.4740    8.4620 C.cat  60  ARG60       0.5346
     52  NH1       28.2200  -13.2710    8.2050 N.pl3  60  ARG60       0.1354
     53  NH2       30.0350  -12.9990    9.5860 N.pl3  60  ARG60       0.1354
     54  N         29.7990   -9.5210    3.9260 N.am   61  PHE61      -0.1976
     55  CA        29.2250   -8.1820    3.9800 C.3    61  PHE61       0.1639
     56  C         29.3190   -7.4860    2.6290 C.2    61  PHE61       0.2290
     57  O         30.4090   -7.2910    2.1090 O.2    61  PHE61      -0.2864
     58  CB        29.9490   -7.3340    5.0270 C.3    61  PHE61       0.0560
     59  CG        29.7120   -7.7880    6.4420 C.ar   61  PHE61      -0.0200
     60  CD1       30.4210   -8.8520    6.9700 C.ar   61  PHE61      -0.0042
     61  CD2       28.7700   -7.1520    7.2450 C.ar   61  PHE61      -0.0042
     62  CE1       30.1980   -9.2830    8.2730 C.ar   61  PHE61      -0.0003
     63  CE2       28.5460   -7.5750    8.5520 C.ar   61  PHE61      -0.0003
     64  CZ        29.2580   -8.6400    9.0670 C.ar   61  PHE61      -0.0000
     65  N         26.9480  -14.0600   15.8850 N.3    80  GLY80      -0.1210
     66  CA        27.9540  -13.0320   16.1090 C.3    80  GLY80       0.1956
     67  C         27.7660  -11.7290   15.3450 C.2    80  GLY80       0.2611
     68  O         28.3990  -10.7250   15.6760 O.2    80  GLY80      -0.2717
     69  N         26.9110  -11.7390   14.3220 N.am   81  ASP81      -0.1973
     70  CA        26.6160  -10.5430   13.5470 C.3    81  ASP81       0.1709
     71  C         25.5770   -9.6380   14.2250 C.2    81  ASP81       0.2293
     72  O         25.2850   -8.5420   13.7320 O.2    81  ASP81      -0.2864
     73  CB        26.1340  -10.9070   12.1450 C.3    81  ASP81       0.1436
     74  CG        27.1550  -11.7240   11.3630 C.2    81  ASP81       0.3671
     75  OD1       28.3690  -11.5500   11.5970 O.co2  81  ASP81      -0.2456
     76  OD2       26.7400  -12.5490   10.5150 O.co2  81  ASP81      -0.2456
@<TRIPOS>BOND
     1    57    56    2
     2    56    55    1
     3    43    44    1
     4    46    45    2
     5    44    45    1
     6    44    47    1
     7    45    54   am
     8    54    55    1
     9    55    58    1
    10    39    38    2
    11    38    37    1
    12    31    30    2
    13    20    19    2
    14    47    48    1
    15    58    59    1
    16    48    49    1
    17    37    36    1
    18    37    40    1
    19    19    18    1
    20    30    36   am
    21    30    29    1
    22    24    25    1
    23    34    32    1
    24    32    29    1
    25    32    33    1
    26    49    50    1
    27    36    42    1
    28    59    60   ar
    29    59    61   ar
    30    40    41    1
    31    28    29    1
    32    28    26   am
    33    60    62   ar
    34    25    26    1
    35    33    35    1
    36    18    21    1
    37    18    17    1
    38    61    63   ar
    39    26    27    2
    40    50    51    2
    41    23    21    1
    42    21    22    1
    43    42    41    1
    44    52    51    1
    45    62    64   ar
    46    51    53    1
    47    63    64   ar
    48    76    74   ar
    49    13    12    2
    50    74    75   ar
    51    74    73    1
    52    12    11    1
    53     1     2    1
    54    15    14    1
    55    73    70    1
    56     5     2    1
    57     5     6    1
    58     9     7   am
    59     2     3    1
    60    11    14    1
    61    11    10    1
    62     7     6    1
    63     7     8    2
    64    14    16    1
    65    70    71    1
    66    70    69    1
    67    72    71    2
    68     3     4    2
    69    69    67   am
    70    67    68    2
    71    67    66    1
    72    65    66    1
