@<TRIPOS>MOLECULE
tmp/4m65A00.pdb
 109 109 0 0 0
SMALL
GASTEIGER

@<TRIPOS>ATOM
      1  N         13.2170   43.9080    0.1500 N.3   112  ASN112     -0.1225
      2  CA        12.9790   42.8060   -0.7440 C.3   112  ASN112      0.1785
      3  C         14.2200   41.8890   -0.8000 C.2   112  ASN112      0.2597
      4  O         15.1840   42.0860   -0.0710 O.2   112  ASN112     -0.2718
      5  CB        12.6540   43.3050   -2.1470 C.3   112  ASN112      0.1169
      6  CG        11.7920   42.2680   -2.9860 C.2   112  ASN112      0.2627
      7  OD1       11.4370   41.2060   -2.5770 O.2   112  ASN112     -0.2716
      8  ND2       11.8030   42.5030   -4.2740 N.am  112  ASN112     -0.0877
      9  N         13.9970   40.8170   -1.5730 N.am  113  ALA113     -0.1966
     10  CA        15.0230   39.7560   -1.8530 C.3   113  ALA113      0.1728
     11  C         14.8030   39.2830   -3.2290 C.2   113  ALA113      0.2616
     12  O         13.6730   39.4240   -3.8090 O.2   113  ALA113     -0.2715
     13  CB        14.9970   38.6450   -0.8550 C.3   113  ALA113      0.0334
     14  N         15.8290   38.6910   -3.8870 N.am  114  PHE114     -0.1960
     15  CA        15.6080   38.3210   -5.2610 C.3   114  PHE114      0.1771
     16  C         16.7220   37.3670   -5.7230 C.2   114  PHE114      0.2619
     17  O         17.7700   37.2240   -5.0610 O.2   114  PHE114     -0.2715
     18  CB        15.6590   39.5320   -6.1690 C.3   114  PHE114      0.0574
     19  CG        16.8420   40.4890   -6.0540 C.ar  114  PHE114     -0.0200
     20  CD1       16.9240   41.4940   -5.1580 C.ar  114  PHE114     -0.0042
     21  CD2       17.9630   40.3780   -6.8730 C.ar  114  PHE114     -0.0042
     22  CE1       17.9490   42.4050   -5.0740 C.ar  114  PHE114     -0.0003
     23  CE2       18.9710   41.3020   -6.8100 C.ar  114  PHE114     -0.0003
     24  CZ        19.0010   42.3130   -5.9650 C.ar  114  PHE114     -0.0000
     25  N         16.4580   36.6510   -6.8010 N.am  115  TRP115     -0.1974
     26  CA        17.4550   35.8930   -7.5900 C.3   115  TRP115      0.1640
     27  C         17.8250   36.7720   -8.7170 C.2   115  TRP115      0.2290
     28  O         16.9430   37.2810   -9.4440 O.2   115  TRP115     -0.2864
     29  CB        16.7560   34.6490   -8.0730 C.3   115  TRP115      0.0576
     30  CG        17.5600   33.8690   -9.1610 C.ar  115  TRP115      0.0006
     31  CD1       17.2590   33.8780  -10.4680 C.ar  115  TRP115      0.0946
     32  CD2       18.7730   33.1480   -9.0110 C.ar  115  TRP115      0.0152
     33  NE1       18.2050   33.1110  -11.1640 N.ar  115  TRP115     -0.2442
     34  CE2       19.1120   32.6530  -10.2570 C.ar  115  TRP115      0.0810
     35  CE3       19.5020   32.7290   -7.9030 C.ar  115  TRP115      0.0012
     36  CZ2       20.2800   31.7830  -10.4350 C.ar  115  TRP115      0.0191
     37  CZ3       20.6140   31.9310   -8.0980 C.ar  115  TRP115      0.0001
     38  CH2       20.9600   31.5090   -9.3130 C.ar  115  TRP115      0.0015
     39  N         11.3960   30.6850   -2.2370 N.3   142  HIS142     -0.1226
     40  CA        10.8560   31.4410   -3.3520 C.3   142  HIS142      0.1752
     41  C         11.9940   31.9130   -4.2580 C.2   142  HIS142      0.2592
     42  O         11.9300   31.7690   -5.5180 O.2   142  HIS142     -0.2718
     43  CB        10.0200   32.6150   -2.8070 C.3   142  HIS142      0.0759
     44  CG         9.5110   33.5730   -3.8410 C.ar  142  HIS142      0.0818
     45  ND1        8.1350   33.7540   -4.1350 N.ar  142  HIS142     -0.2268
     46  CD2       10.1780   34.5100   -4.5910 C.ar  142  HIS142      0.1154
     47  CE1        8.0390   34.6770   -5.0890 C.ar  142  HIS142      0.1986
     48  NE2        9.2280   35.1770   -5.3570 N.ar  142  HIS142     -0.2212
     49  N         13.0300   32.4870   -3.6900 N.am  143  GLU143     -0.2033
     50  CA        14.1230   32.9790   -4.5160 C.3   143  GLU143      0.1288
     51  C         14.9040   31.8360   -5.1690 C.3   143  GLU143      0.2036
     52  O         15.1970   31.9570   -6.4160 O.3   143  GLU143     -0.2185
     53  CB        15.1210   33.7810   -3.6840 C.3   143  GLU143      0.0362
     54  CG        14.5850   34.8780   -2.7920 C.3   143  GLU143      0.1159
     55  CD        13.6300   35.7790   -3.4090 C.2   143  GLU143      0.3649
     56  OE1       13.4220   35.9340   -4.6070 O.co2 143  GLU143     -0.2457
     57  OE2       12.9710   36.5630   -2.5470 O.co2 143  GLU143     -0.2457
     58  N         13.1780   30.6460   -8.3160 N.3   146  HIS146     -0.1241
     59  CA        13.3880   31.4320   -9.5160 C.3   146  HIS146      0.1621
     60  C         14.5890   30.8750  -10.2930 C.2   146  HIS146      0.2264
     61  O         14.5650   30.8600  -11.5010 O.2   146  HIS146     -0.2867
     62  CB        13.6040   32.9180   -9.2450 C.3   146  HIS146      0.0745
     63  CG        12.3390   33.6760   -8.9130 C.ar  146  HIS146      0.0817
     64  ND1       11.2560   33.7060   -9.7550 N.ar  146  HIS146     -0.2268
     65  CD2       12.0540   34.4550   -7.8780 C.ar  146  HIS146      0.1154
     66  CE1       10.3630   34.5480   -9.2680 C.ar  146  HIS146      0.1986
     67  NE2       10.8090   35.0160   -8.1410 N.ar  146  HIS146     -0.2212
     68  N          9.6830   37.2610  -17.3440 N.3   157  TYR157     -0.1241
     69  CA         9.1650   37.9590  -16.1710 C.3   157  TYR157      0.1605
     70  C          8.3210   39.1830  -16.4870 C.2   157  TYR157      0.2264
     71  O          8.6570   40.3090  -16.1230 O.2   157  TYR157     -0.2867
     72  CB        10.3230   38.2410  -15.2390 C.3   157  TYR157      0.0534
     73  CG         9.9330   38.4150  -13.7930 C.ar  157  TYR157     -0.0201
     74  CD1        9.5440   37.3710  -13.0270 C.ar  157  TYR157     -0.0009
     75  CD2        9.9740   39.6630  -13.1900 C.ar  157  TYR157     -0.0009
     76  CE1        9.2700   37.5560  -11.6910 C.ar  157  TYR157      0.0417
     77  CE2        9.7330   39.8490  -11.8000 C.ar  157  TYR157      0.0417
     78  CZ         9.3060   38.7930  -11.0800 C.ar  157  TYR157      0.1957
     79  OH         9.0200   38.9360   -9.7860 O.3   157  TYR157     -0.2866
     80  N          6.1730   33.8820  -10.8850 N.3   166  GLU166     -0.1245
     81  CA         5.9950   34.2600   -9.4930 C.3   166  GLU166      0.1567
     82  C          5.2360   33.1710   -8.7370 C.2   166  GLU166      0.2260
     83  O          5.6010   32.8190   -7.5930 O.2   166  GLU166     -0.2867
     84  CB         5.2540   35.5970   -9.4270 C.3   166  GLU166      0.0388
     85  CG         6.1690   36.7820   -9.3150 C.3   166  GLU166      0.1160
     86  CD         7.0640   36.6990   -8.1220 C.2   166  GLU166      0.3649
     87  OE1        8.3370   36.7530   -8.2950 O.co2 166  GLU166     -0.2457
     88  OE2        6.5970   36.5280   -6.9760 O.co2 166  GLU166     -0.2457
     89  N          1.4770   38.1510    0.6520 N.3   203  ARG203     -0.1245
     90  CA         0.4670   37.5370   -0.2260 C.3   203  ARG203      0.1563
     91  C         -0.1240   36.3530    0.4760 C.2   203  ARG203      0.2260
     92  O          0.4380   35.7270    1.3570 O.2   203  ARG203     -0.2867
     93  CB         1.0970   37.0310   -1.5290 C.3   203  ARG203      0.0307
     94  CG         1.5450   38.0570   -2.4440 C.3   203  ARG203      0.0489
     95  CD         2.1760   37.4500   -3.7250 C.3   203  ARG203      0.2205
     96  NE         3.4940   36.7680   -3.4940 N.pl3 203  ARG203     -0.0865
     97  CZ         4.6810   37.3810   -3.4810 C.cat 203  ARG203      0.5346
     98  NH1        4.8150   38.7040   -3.5110 N.pl3 203  ARG203      0.1354
     99  NH2        5.7710   36.6340   -3.4700 N.pl3 203  ARG203      0.1354
    100  N          3.2150   40.0470   -9.6140 N.3   231  HIS231     -0.1241
    101  CA         2.9070   39.7130   -8.2460 C.3   231  HIS231      0.1621
    102  C          1.4300   39.7850   -7.9030 C.2   231  HIS231      0.2264
    103  O          1.1050   39.6100   -6.7050 O.2   231  HIS231     -0.2867
    104  CB         3.6480   40.7110   -7.3170 C.3   231  HIS231      0.0745
    105  CG         5.1270   40.6030   -7.3910 C.ar  231  HIS231      0.0817
    106  ND1        5.8970   41.4010   -8.2330 N.ar  231  HIS231     -0.2268
    107  CD2        5.9470   39.6900   -6.8340 C.ar  231  HIS231      0.1154
    108  CE1        7.1720   40.9760   -8.1280 C.ar  231  HIS231      0.1986
    109  NE2        7.2100   39.9770   -7.2510 N.ar  231  HIS231     -0.2212
@<TRIPOS>BOND
     1    68    69    1
     2    70    69    1
     3    70    71    2
     4    69    72    1
     5    72    73    1
     6    73    75   ar
     7    73    74   ar
     8    75    77   ar
     9    74    76   ar
    10    77    78   ar
    11    76    78   ar
    12    61    60    2
    13    33    31   ar
    14    33    34   ar
    15    78    79    1
    16    80    81    1
    17    31    30   ar
    18    36    34   ar
    19    36    38   ar
    20    60    59    1
    21    34    32   ar
    22    64    66   ar
    23    64    63   ar
    24   100   101    1
    25    59    62    1
    26    59    58    1
    27    81    84    1
    28    81    82    1
    29    28    27    2
    30    84    85    1
    31    85    86    1
    32    38    37   ar
    33    66    67   ar
    34    62    63    1
    35    30    32   ar
    36    30    29    1
    37    32    35   ar
    38    63    65   ar
    39    82    83    2
    40    27    26    1
    41    87    86   ar
    42   101   102    1
    43   101   104    1
    44   106   108   ar
    45   106   105   ar
    46    67    65   ar
    47   108   109   ar
    48    86    88   ar
    49    37    35   ar
    50    29    26    1
    51   102   103    2
    52    26    25    1
    53   105   104    1
    54   105   107   ar
    55   109   107   ar
    56    21    23   ar
    57    21    19   ar
    58    23    24   ar
    59    25    16   am
    60    52    51    1
    61    18    19    1
    62    18    15    1
    63    19    20   ar
    64    24    22   ar
    65    16    15    1
    66    16    17    2
    67    42    41    2
    68    48    47   ar
    69    48    46   ar
    70    15    14    1
    71    51    50    1
    72    20    22   ar
    73    47    45   ar
    74    56    55   ar
    75    46    44   ar
    76    50    49    1
    77    50    53    1
    78     8     6   am
    79    41    49   am
    80    41    40    1
    81    45    44   ar
    82    14    11   am
    83    44    43    1
    84    12    11    2
    85    95    96    1
    86    95    94    1
    87    53    54    1
    88    98    97    1
    89    96    97    2
    90    97    99    1
    91    55    54    1
    92    55    57   ar
    93    40    43    1
    94    40    39    1
    95    11    10    1
    96     6     7    2
    97     6     5    1
    98    94    93    1
    99     5     2    1
   100    10     9    1
   101    10    13    1
   102     9     3   am
   103    93    90    1
   104     3     2    1
   105     3     4    2
   106     2     1    1
   107    90    91    1
   108    90    89    1
   109    91    92    2
