@<TRIPOS>MOLECULE
tmp/4m6gA00.pdb
 136 127 0 0 0
SMALL
GASTEIGER

@<TRIPOS>ATOM
      1  N         -7.6660    9.9890  -26.0720 N.3    12  HIS12      -0.1241
      2  CA        -7.5020    9.7070  -27.5010 C.3    12  HIS12       0.1621
      3  C         -6.2010    8.9840  -27.8850 C.2    12  HIS12       0.2264
      4  O         -5.3810    8.6760  -27.0220 O.2    12  HIS12      -0.2867
      5  CB        -7.6720   10.9870  -28.3360 C.3    12  HIS12       0.0745
      6  CG        -8.9320   11.7420  -28.0500 C.ar   12  HIS12       0.0817
      7  ND1      -10.1360   11.4520  -28.6660 N.ar   12  HIS12      -0.2268
      8  CD2       -9.1820   12.7810  -27.2190 C.ar   12  HIS12       0.1154
      9  CE1      -11.0650   12.2700  -28.2170 C.ar   12  HIS12       0.1986
     10  NE2      -10.5120   13.0950  -27.3420 N.ar   12  HIS12      -0.2212
     11  N        -20.9440    2.5330  -27.5230 N.3    32  LYS32      -0.1231
     12  CA       -20.4760    3.7360  -28.1950 C.3    32  LYS32       0.1693
     13  C        -19.2040    3.3840  -28.9470 C.2    32  LYS32       0.2592
     14  O        -18.6890    2.2740  -28.8130 O.2    32  LYS32      -0.2718
     15  CB       -20.2110    4.8550  -27.1880 C.3    32  LYS32       0.0285
     16  CG       -18.9470    4.6780  -26.3650 C.3    32  LYS32       0.0035
     17  CD       -18.8740    5.7080  -25.2470 C.3    32  LYS32       0.0206
     18  CE       -19.0330    7.1190  -25.7810 C.3    32  LYS32       0.1093
     19  NZ       -19.1070    8.1290  -24.6860 N.3    32  LYS32      -0.1314
     20  N        -18.7020    4.3210  -29.7420 N.am   33  ASN33      -0.1974
     21  CA       -17.4910    4.0850  -30.5180 C.3    33  ASN33       0.1688
     22  C        -16.2760    3.8220  -29.6370 C.2    33  ASN33       0.2292
     23  O        -16.1120    4.4500  -28.5890 O.2    33  ASN33      -0.2864
     24  CB       -17.2240    5.2560  -31.4660 C.3    33  ASN33       0.1181
     25  CG       -18.1790    5.2800  -32.6410 C.2    33  ASN33       0.2629
     26  OD1      -19.1670    4.5460  -32.6670 O.2    33  ASN33      -0.2716
     27  ND2      -17.8880    6.1240  -33.6240 N.am   33  ASN33      -0.0877
     28  N        -13.1990    4.6040  -29.9860 N.3    35  GLN35      -0.1231
     29  CA       -12.4780    5.8480  -29.7630 C.3    35  GLN35       0.1698
     30  C        -13.0350    6.9920  -30.5960 C.2    35  GLN35       0.2592
     31  O        -13.9650    6.8160  -31.3850 O.2    35  GLN35      -0.2718
     32  CB       -10.9860    5.6740  -30.0660 C.3    35  GLN35       0.0381
     33  CG       -10.1370    5.3180  -28.8570 C.3    35  GLN35       0.0905
     34  CD       -10.1280    6.4100  -27.8020 C.2    35  GLN35       0.2608
     35  OE1      -10.4360    7.5680  -28.0820 O.2    35  GLN35      -0.2717
     36  NE2       -9.7760    6.0420  -26.5770 N.am   35  GLN35      -0.0878
     37  N        -12.4500    8.1670  -30.3990 N.am   36  ALA36      -0.1980
     38  CA       -12.7430    9.3410  -31.2040 C.3    36  ALA36       0.1597
     39  C        -11.4250   10.0590  -31.4500 C.2    36  ALA36       0.2287
     40  O        -10.5250   10.0080  -30.6130 O.2    36  ALA36      -0.2864
     41  CB       -13.7230   10.2480  -30.4860 C.3    36  ALA36       0.0319
     42  N        -10.7140   13.1890  -31.5550 N.3    38  GLY38      -0.1210
     43  CA       -10.5060   14.3700  -30.7390 C.3    38  GLY38       0.1956
     44  C        -10.4200   15.6420  -31.5610 C.2    38  GLY38       0.2612
     45  O        -10.3840   15.5980  -32.7900 O.2    38  GLY38      -0.2717
     46  N        -10.3800   16.7800  -30.8770 N.am   39  THR39      -0.1952
     47  CA       -10.3650   18.0750  -31.5490 C.3    39  THR39       0.1897
     48  C         -8.9470   18.6330  -31.6810 C.2    39  THR39       0.2313
     49  O         -7.9680   17.9210  -31.4600 O.2    39  THR39      -0.2863
     50  CB       -11.2580   19.0930  -30.8150 C.3    39  THR39       0.1794
     51  OG1      -11.2510   20.3380  -31.5240 O.3    39  THR39      -0.2208
     52  CG2      -10.7590   19.3140  -29.3940 C.3    39  THR39       0.0378
     53  N         -5.7120   17.6390  -29.9310 N.3    47  GLU47      -0.1245
     54  CA        -6.0560   17.2830  -28.5430 C.3    47  GLU47       0.1567
     55  C         -5.1860   16.1260  -28.0560 C.2    47  GLU47       0.2260
     56  O         -4.7010   16.1360  -26.9200 O.2    47  GLU47      -0.2867
     57  CB        -7.5570   16.8970  -28.3820 C.3    47  GLU47       0.0388
     58  CG        -8.0140   16.6890  -26.8880 C.3    47  GLU47       0.1160
     59  CD        -9.3740   15.9570  -26.6490 C.2    47  GLU47       0.3649
     60  OE1       -9.7020   15.7690  -25.4790 O.co2  47  GLU47      -0.2457
     61  OE2      -10.1230   15.6050  -27.5720 O.co2  47  GLU47      -0.2457
     62  N        -12.1680    3.0630  -25.1730 N.3    83  VAL83      -0.1245
     63  CA       -12.5140    3.7940  -23.9590 C.3    83  VAL83       0.1561
     64  C        -12.9300    2.8890  -22.7990 C.2    83  VAL83       0.2260
     65  O        -12.7540    3.2490  -21.6350 O.2    83  VAL83      -0.2867
     66  CB       -13.5880    4.8680  -24.2270 C.3    83  VAL83       0.0252
     67  CG1      -13.0800    5.8610  -25.2640 C.3    83  VAL83       0.0019
     68  CG2      -14.8820    4.2240  -24.6900 C.3    83  VAL83       0.0019
     69  N         -8.5020   15.6930  -21.1770 N.3   102  HIS102     -0.1226
     70  CA        -9.0800   16.0510  -22.4610 C.3   102  HIS102      0.1752
     71  C         -9.0470   17.5600  -22.6590 C.2   102  HIS102      0.2596
     72  O         -8.7930   18.3110  -21.7150 O.2   102  HIS102     -0.2718
     73  CB       -10.5350   15.5640  -22.5440 C.3   102  HIS102      0.0759
     74  CG       -10.6730   14.1100  -22.8500 C.ar  102  HIS102      0.0818
     75  ND1      -10.9280   13.6310  -24.1250 N.ar  102  HIS102     -0.2268
     76  CD2      -10.5960   13.0190  -22.0540 C.ar  102  HIS102      0.1154
     77  CE1      -10.9900   12.3180  -24.0910 C.ar  102  HIS102      0.1986
     78  NE2      -10.7940   11.9170  -22.8430 N.ar  102  HIS102     -0.2212
     79  N         -9.2790   17.9940  -23.8930 N.am  103  ALA103     -0.1966
     80  CA        -9.4780   19.4100  -24.1760 C.3   103  ALA103      0.1728
     81  C        -10.6600   19.5700  -25.1350 C.2   103  ALA103      0.2616
     82  O        -10.8290   18.7730  -26.0620 O.2   103  ALA103     -0.2715
     83  CB        -8.2230   20.0320  -24.7430 C.3   103  ALA103      0.0334
     84  N        -11.4730   20.5960  -24.9050 N.am  104  ASP104     -0.1971
     85  CA       -12.7610   20.7290  -25.5790 C.3   104  ASP104      0.1709
     86  C        -12.6410   21.3930  -26.9490 C.2   104  ASP104      0.2293
     87  O        -11.6150   22.0000  -27.2740 O.2   104  ASP104     -0.2864
     88  CB       -13.7130   21.5220  -24.6820 C.3   104  ASP104      0.1436
     89  CG       -15.1730   21.4010  -25.1040 C.2   104  ASP104      0.3671
     90  OD1      -15.5030   20.4720  -25.8720 O.co2 104  ASP104     -0.2456
     91  OD2      -15.9860   22.2340  -24.6490 O.co2 104  ASP104     -0.2456
     92  N        -21.8680   13.5010  -15.4950 N.3   160  ARG160     -0.1245
     93  CA       -22.0640   12.8490  -16.7850 C.3   160  ARG160      0.1563
     94  C        -22.5490   11.4110  -16.6250 C.2   160  ARG160      0.2260
     95  O        -22.1840   10.7240  -15.6700 O.2   160  ARG160     -0.2867
     96  CB       -20.7590   12.8590  -17.5910 C.3   160  ARG160      0.0307
     97  CG       -20.1320   14.2330  -17.7640 C.3   160  ARG160      0.0489
     98  CD       -20.9350   15.0980  -18.7180 C.3   160  ARG160      0.2205
     99  NE       -20.9300   14.5680  -20.0790 N.pl3 160  ARG160     -0.0865
    100  CZ       -20.0510   14.9120  -21.0140 C.cat 160  ARG160      0.5346
    101  NH1      -19.0970   15.7920  -20.7390 N.pl3 160  ARG160      0.1354
    102  NH2      -20.1260   14.3780  -22.2250 N.pl3 160  ARG160      0.1354
    103  N        -20.0920    8.9450  -20.2880 N.3   163  LEU163     -0.1231
    104  CA       -18.6680    8.6550  -20.4310 C.3   163  LEU163      0.1693
    105  C        -18.3120    7.2630  -19.9190 C.2   163  LEU163      0.2592
    106  O        -18.4110    6.9840  -18.7240 O.2   163  LEU163     -0.2718
    107  CB       -17.8330    9.7280  -19.7330 C.3   163  LEU163      0.0284
    108  CG       -18.1320   11.1510  -20.2130 C.3   163  LEU163      0.0019
    109  CD1      -17.3200   12.1720  -19.4350 C.3   163  LEU163      0.0001
    110  CD2      -17.8730   11.2790  -21.7070 C.3   163  LEU163      0.0001
    111  N        -17.9000    6.3960  -20.8400 N.am  164  ALA164     -0.1966
    112  CA       -17.5880    5.0060  -20.5200 C.3   164  ALA164      0.1728
    113  C        -16.4580    4.8870  -19.5030 C.2   164  ALA164      0.2616
    114  O        -16.5170    4.0580  -18.5960 O.2   164  ALA164     -0.2715
    115  CB       -17.2470    4.2350  -21.7870 C.3   164  ALA164      0.0334
    116  N        -15.4340    5.7210  -19.6590 N.am  165  GLY165     -0.1955
    117  CA       -14.3100    5.7340  -18.7410 C.3   165  GLY165      0.1869
    118  C        -14.7390    6.0030  -17.3120 C.2   165  GLY165      0.2309
    119  O        -14.1780    5.4450  -16.3690 O.2   165  GLY165     -0.2863
    120  N        -12.7180   12.9410  -15.0780 N.3   175  LEU175     -0.1245
    121  CA       -12.2310   13.3190  -16.3990 C.3   175  LEU175      0.1561
    122  C        -12.2000   14.8370  -16.5140 C.2   175  LEU175      0.2260
    123  O        -13.2400   15.4960  -16.4630 O.2   175  LEU175     -0.2867
    124  CB       -13.1050   12.7090  -17.4990 C.3   175  LEU175      0.0270
    125  CG       -12.6510   12.8840  -18.9530 C.3   175  LEU175      0.0019
    126  CD1      -12.9980   11.6460  -19.7680 C.3   175  LEU175      0.0001
    127  CD2      -13.2740   14.1220  -19.5820 C.3   175  LEU175      0.0001
    128  N        -11.6570   18.2110  -18.5340 N.3   177  GLU177     -0.1245
    129  CA       -11.5180   18.9960  -19.7490 C.3   177  GLU177      0.1567
    130  C        -10.7780   20.2680  -19.3640 C.2   177  GLU177      0.2260
    131  O        -11.3100   21.1070  -18.6420 O.2   177  GLU177     -0.2867
    132  CB       -12.8860   19.3330  -20.3360 C.3   177  GLU177      0.0388
    133  CG       -13.6550   18.1330  -20.8630 C.3   177  GLU177      0.1160
    134  CD       -13.3240   17.8160  -22.3080 C.2   177  GLU177      0.3649
    135  OE1      -14.0100   16.9560  -22.9000 O.co2 177  GLU177     -0.2457
    136  OE2      -12.3820   18.4290  -22.8530 O.co2 177  GLU177     -0.2457
@<TRIPOS>BOND
     1    27    25   am
     2    45    44    2
     3    26    25    2
     4    25    24    1
     5    48    47    1
     6    48    49    2
     7    44    46   am
     8    44    43    1
     9    42    43    1
    10    47    46    1
    11    47    50    1
    12    51    50    1
    13    24    21    1
    14    39    38    1
    15    39    40    2
    16    31    30    2
    17    38    41    1
    18    38    37    1
    19    50    52    1
    20    30    37   am
    21    30    29    1
    22    21    20    1
    23    21    22    1
    24    32    29    1
    25    32    33    1
    26    28    29    1
    27    53    54    1
    28    20    13   am
    29    22    23    2
    30    13    14    2
    31    13    12    1
    32    33    34    1
    33     7     9   ar
    34     7     6   ar
    35    54    57    1
    36    54    55    1
    37    57    58    1
    38     5     6    1
    39     5     2    1
    40     9    10   ar
    41    12    11    1
    42    12    15    1
    43    35    34    2
    44    55    56    2
    45     6     8   ar
    46     3     2    1
    47     3     4    2
    48    34    36   am
    49    61    59   ar
    50     2     1    1
    51    10     8   ar
    52    87    86    2
    53    15    16    1
    54    86    85    1
    55    58    59    1
    56    59    60   ar
    57    16    17    1
    58    82    81    2
    59    90    89   ar
    60    18    17    1
    61    18    19    1
    62    85    84    1
    63    85    88    1
    64    67    66    1
    65    62    63    1
    66    81    84   am
    67    81    80    1
    68    89    88    1
    69    89    91   ar
    70    83    80    1
    71    68    66    1
    72    66    63    1
    73    80    79    1
    74    75    77   ar
    75    75    74   ar
    76    77    78   ar
    77    63    64    1
    78    79    71   am
    79   135   134   ar
    80   136   134   ar
    81    74    73    1
    82    74    76   ar
    83    78    76   ar
    84    64    65    2
    85    71    70    1
    86    71    72    2
    87    73    70    1
    88    70    69    1
    89   134   133    1
    90   102   100    1
    91   115   112    1
    92   110   108    1
    93   100   101    1
    94   100    99    2
    95   133   132    1
    96   111   112    1
    97   111   105   am
    98   112   113    1
    99   104   103    1
   100   104   105    1
   101   104   107    1
   102   132   129    1
   103   108   107    1
   104   108   109    1
   105    99    98    1
   106   105   106    2
   107   126   125    1
   108   129   130    1
   109   129   128    1
   110   116   113   am
   111   116   117    1
   112   127   125    1
   113   113   114    2
   114   130   131    2
   115   125   124    1
   116   117   118    1
   117    98    97    1
   118    97    96    1
   119    96    93    1
   120   124   121    1
   121   118   119    2
   122    93    94    1
   123    93    92    1
   124    94    95    2
   125   122   123    2
   126   122   121    1
   127   121   120    1
