@<TRIPOS>MOLECULE
tmp/4m6pA00.pdb
 160 153 0 0 0
SMALL
GASTEIGER

@<TRIPOS>ATOM
      1  N         13.9030   -2.5230   -1.9220 N.3   172  TYR172     -0.1241
      2  CA        14.1180   -1.0840   -1.6470 C.3   172  TYR172      0.1605
      3  C         12.7880   -0.3870   -1.3900 C.2   172  TYR172      0.2264
      4  O         12.6940    0.8370   -1.4680 O.2   172  TYR172     -0.2867
      5  CB        14.9050   -0.3980   -2.8180 C.3   172  TYR172      0.0534
      6  CG        16.3500   -0.8480   -2.8550 C.ar  172  TYR172     -0.0201
      7  CD1       16.7530   -1.8400   -3.7320 C.ar  172  TYR172     -0.0009
      8  CD2       17.3150   -0.2920   -2.0020 C.ar  172  TYR172     -0.0009
      9  CE1       18.0510   -2.2900   -3.7540 C.ar  172  TYR172      0.0417
     10  CE2       18.6330   -0.7260   -2.0280 C.ar  172  TYR172      0.0417
     11  CZ        18.9990   -1.7270   -2.9190 C.ar  172  TYR172      0.1957
     12  OH        20.2910   -2.2270   -2.9860 O.3   172  TYR172     -0.2866
     13  N         12.2320    1.7300    3.4760 N.3   175  HIS175     -0.1241
     14  CA        13.4990    2.2790    3.9500 C.3   175  HIS175      0.1621
     15  C         13.3860    2.6210    5.4680 C.2   175  HIS175      0.2264
     16  O         12.3630    3.1370    5.9120 O.2   175  HIS175     -0.2867
     17  CB        13.8490    3.5350    3.1450 C.3   175  HIS175      0.0745
     18  CG        15.3080    3.9000    3.1570 C.ar  175  HIS175      0.0817
     19  ND1       16.1790    3.4830    2.1710 N.ar  175  HIS175     -0.2268
     20  CD2       16.0230    4.7190    3.9750 C.ar  175  HIS175      0.1154
     21  CE1       17.3770    3.9880    2.4070 C.ar  175  HIS175      0.1986
     22  NE2       17.3100    4.7480    3.4920 N.ar  175  HIS175     -0.2212
     23  N         14.0680    4.8760    8.4670 N.3   177  PHE177     -0.1241
     24  CA        14.1610    6.3050    8.7990 C.3   177  PHE177      0.1605
     25  C         14.2470    6.4490   10.3360 C.2   177  PHE177      0.2264
     26  O         14.1240    7.5780   10.8840 O.2   177  PHE177     -0.2867
     27  CB        12.8540    6.9760    8.3430 C.3   177  PHE177      0.0534
     28  CG        12.8190    7.3920    6.8240 C.ar  177  PHE177     -0.0203
     29  CD1       12.0490    8.4970    6.4410 C.ar  177  PHE177     -0.0042
     30  CD2       13.5130    6.6890    5.8610 C.ar  177  PHE177     -0.0042
     31  CE1       11.9900    8.9170    5.1150 C.ar  177  PHE177     -0.0003
     32  CE2       13.4650    7.0740    4.5030 C.ar  177  PHE177     -0.0003
     33  CZ        12.6880    8.1890    4.1400 C.ar  177  PHE177     -0.0000
     34  N         16.5160    6.3010   12.8090 N.3   179  TYR179     -0.1227
     35  CA        17.6830    6.5420   13.6650 C.3   179  TYR179      0.1736
     36  C         17.3020    7.5130   14.8140 C.2   179  TYR179      0.2595
     37  O         17.5290    7.2340   16.0150 O.2   179  TYR179     -0.2718
     38  CB        18.8560    7.0940   12.8140 C.3   179  TYR179      0.0548
     39  CG        20.2430    6.8550   13.3690 C.ar  179  TYR179     -0.0200
     40  CD1       20.4650    6.5410   14.6930 C.ar  179  TYR179     -0.0009
     41  CD2       21.3610    7.0400   12.5550 C.ar  179  TYR179     -0.0009
     42  CE1       21.7950    6.3650   15.1710 C.ar  179  TYR179      0.0417
     43  CE2       22.6350    6.8480   13.0300 C.ar  179  TYR179      0.0417
     44  CZ        22.8530    6.5110   14.3660 C.ar  179  TYR179      0.1957
     45  OH        24.1550    6.3120   14.8390 O.3   179  TYR179     -0.2866
     46  N         16.7210    8.6510   14.4420 N.am  180  ARG180     -0.1980
     47  CA        16.3440    9.6160   15.4490 C.3   180  ARG180      0.1597
     48  C         15.2330    9.1950   16.4070 C.2   180  ARG180      0.2287
     49  O         15.1800    9.7310   17.4920 O.2   180  ARG180     -0.2864
     50  CB        16.0130   10.9390   14.8380 C.3   180  ARG180      0.0334
     51  CG        14.5440   11.0510   14.3570 C.3   180  ARG180      0.0492
     52  CD        14.3930   12.2590   13.4820 C.3   180  ARG180      0.2205
     53  NE        15.2690   12.1560   12.3040 N.pl3 180  ARG180     -0.0865
     54  CZ        15.2970   13.0280   11.3090 C.cat 180  ARG180      0.5346
     55  NH1       14.4070   14.0300   11.2790 N.pl3 180  ARG180      0.1354
     56  NH2       16.1930   12.8690   10.3410 N.pl3 180  ARG180      0.1354
     57  N         18.8000    4.4850    6.3200 N.3   203  ASP203     -0.1239
     58  CA        19.5390    5.7030    6.6580 C.3   203  ASP203      0.1674
     59  C         20.0990    5.5490    8.0700 C.2   203  ASP203      0.2266
     60  O         20.8330    6.4210    8.6010 O.2   203  ASP203     -0.2867
     61  CB        18.6030    6.9280    6.5900 C.3   203  ASP203      0.1410
     62  CG        18.6930    7.6200    5.2890 C.2   203  ASP203      0.3668
     63  OD1       18.7760    6.9010    4.2280 O.co2 203  ASP203     -0.2456
     64  OD2       18.6910    8.8730    5.3200 O.co2 203  ASP203     -0.2456
     65  N         21.9520    0.5080    1.7980 N.3   224  TYR224     -0.1227
     66  CA        22.3070    1.5840    0.8780 C.3   224  TYR224      0.1736
     67  C         21.3720    2.7780    1.0390 C.2   224  TYR224      0.2596
     68  O         20.2270    2.6510    1.4980 O.2   224  TYR224     -0.2718
     69  CB        22.2600    1.0930   -0.5830 C.3   224  TYR224      0.0548
     70  CG        23.1660   -0.0530   -0.8390 C.ar  224  TYR224     -0.0200
     71  CD1       22.7020   -1.3660   -0.7440 C.ar  224  TYR224     -0.0009
     72  CD2       24.5020    0.1580   -1.2100 C.ar  224  TYR224     -0.0009
     73  CE1       23.5530   -2.4180   -0.9760 C.ar  224  TYR224      0.0417
     74  CE2       25.3240   -0.8970   -1.4550 C.ar  224  TYR224      0.0417
     75  CZ        24.8640   -2.1700   -1.3360 C.ar  224  TYR224      0.1957
     76  OH        25.7460   -3.2080   -1.5800 O.3   224  TYR224     -0.2866
     77  N         21.8310    3.9490    0.6290 N.am  225  SER225     -0.1938
     78  CA        20.9170    5.1150    0.5550 C.3   225  SER225      0.2055
     79  C         21.2710    6.0370   -0.6260 C.2   225  SER225      0.2642
     80  O         22.2380    5.7600   -1.3640 O.2   225  SER225     -0.2714
     81  CB        20.8710    5.9160    1.8910 C.3   225  SER225      0.2130
     82  OG        19.7440    6.8320    1.8970 O.3   225  SER225     -0.2179
     83  N         20.5050    7.1150   -0.7970 N.am  226  VAL226     -0.1977
     84  CA        20.7380    8.0420   -1.9080 C.3   226  VAL226      0.1596
     85  C         20.4860    9.4600   -1.4180 C.2   226  VAL226      0.2287
     86  O         19.7890    9.6450   -0.3910 O.2   226  VAL226     -0.2864
     87  CB        19.8610    7.7070   -3.1850 C.3   226  VAL226      0.0276
     88  CG1       20.2480    6.3040   -3.7590 C.3   226  VAL226      0.0022
     89  CG2       18.3480    7.7730   -2.8930 C.3   226  VAL226      0.0022
     90  N         19.1680   13.1320   -0.4620 N.3   228  ALA228     -0.1231
     91  CA        17.8160   13.6260   -0.2430 C.3   228  ALA228      0.1694
     92  C         17.8420   14.8980    0.5770 C.2   228  ALA228      0.2592
     93  O         18.7630   15.1340    1.3730 O.2   228  ALA228     -0.2718
     94  CB        16.9020   12.5610    0.4740 C.3   228  ALA228      0.0304
     95  N         16.8270   15.7120    0.3450 N.am  229  ALA229     -0.1966
     96  CA        16.7010   16.9880    1.0360 C.3   229  ALA229      0.1728
     97  C         16.0570   16.7300    2.4190 C.2   229  ALA229      0.2616
     98  O         15.5280   15.6420    2.6480 O.2   229  ALA229     -0.2715
     99  CB        15.8870   17.9090    0.1930 C.3   229  ALA229      0.0334
    100  N         16.1340   17.7020    3.3280 N.am  230  GLU230     -0.1977
    101  CA        15.2580   17.7080    4.5090 C.3   230  GLU230      0.1602
    102  C         14.6160   19.0700    4.5260 C.2   230  GLU230      0.2287
    103  O         14.9770   19.9200    3.7110 O.2   230  GLU230     -0.2864
    104  CB        16.0330   17.4830    5.8140 C.3   230  GLU230      0.0415
    105  CG        17.1420   18.5390    6.1120 C.3   230  GLU230      0.1163
    106  CD        17.8400   18.2190    7.4610 C.2   230  GLU230      0.3649
    107  OE1       18.2660   19.1270    8.2050 O.co2 230  GLU230     -0.2457
    108  OE2       17.8830   17.0240    7.8350 O.co2 230  GLU230     -0.2457
    109  N         19.8830    9.0050   -8.0700 N.3   257  PRO257     -0.2116
    110  CA        18.5310    9.2710   -7.5790 C.3   257  PRO257      0.1372
    111  C         18.5360   10.3500   -6.4960 C.2   257  PRO257      0.2244
    112  O         19.5060   10.4610   -5.7450 O.2   257  PRO257     -0.2868
    113  CB        18.0970    7.9290   -6.9200 C.3   257  PRO257      0.0268
    114  CG        19.0370    6.9100   -7.4870 C.3   257  PRO257      0.0207
    115  CD        20.3160    7.6370   -7.7120 C.3   257  PRO257      0.0892
    116  N         15.8550   12.3510   -3.5860 N.3   259  SER259     -0.1217
    117  CA        14.5320   12.4770   -3.0540 C.3   259  SER259      0.1889
    118  C         14.4050   13.8850   -2.4750 C.2   259  SER259      0.2288
    119  O         15.3610   14.3460   -1.8600 O.2   259  SER259     -0.2866
    120  CB        14.3480   11.4330   -1.9640 C.3   259  SER259      0.2089
    121  OG        13.2640   11.8060   -1.1450 O.3   259  SER259     -0.2183
    122  N         16.0430    8.8840  -10.9510 N.3   291  PRO291     -0.2116
    123  CA        14.7510    9.5650  -10.8750 C.3   291  PRO291      0.1372
    124  C         14.7530   10.6850   -9.8070 C.2   291  PRO291      0.2244
    125  O         15.6130   10.6680   -8.9210 O.2   291  PRO291     -0.2868
    126  CB        13.8220    8.4330  -10.4270 C.3   291  PRO291      0.0268
    127  CG        14.6940    7.5460   -9.6190 C.3   291  PRO291      0.0207
    128  CD        16.0000    7.5410  -10.3570 C.3   291  PRO291      0.0892
    129  N         12.5510   11.5540   -6.6970 N.3   293  ILE293     -0.1245
    130  CA        11.5910   10.8950   -5.8420 C.3   293  ILE293      0.1561
    131  C         10.9340   11.9500   -4.9430 C.2   293  ILE293      0.2260
    132  O         11.6010   12.5020   -4.0560 O.2   293  ILE293     -0.2867
    133  CB        12.2860    9.8090   -5.0170 C.3   293  ILE293      0.0252
    134  CG1       13.0910    8.9070   -5.9760 C.3   293  ILE293      0.0019
    135  CG2       11.2460    9.0080   -4.2290 C.3   293  ILE293      0.0019
    136  CD1       14.3840    8.3340   -5.4020 C.3   293  ILE293      0.0001
    137  N          8.7740   13.5190   -2.0970 N.3   295  ARG295     -0.1245
    138  CA         8.4040   13.0440   -0.7660 C.3   295  ARG295      0.1563
    139  C          7.4230   13.9810   -0.0610 C.2   295  ARG295      0.2260
    140  O          7.7990   15.0650    0.4270 O.2   295  ARG295     -0.2867
    141  CB         9.6390   12.9000    0.1110 C.3   295  ARG295      0.0307
    142  CG         9.2360   12.4380    1.5200 C.3   295  ARG295      0.0489
    143  CD        10.4660   11.9920    2.3630 C.3   295  ARG295      0.2205
    144  NE        11.4050   13.0640    2.7010 N.pl3 295  ARG295     -0.0865
    145  CZ        11.4580   13.6580    3.8880 C.cat 295  ARG295      0.5346
    146  NH1       12.3370   14.6180    4.1280 N.pl3 295  ARG295      0.1354
    147  NH2       10.6180   13.3020    4.8250 N.pl3 295  ARG295      0.1354
    148  N          7.9150    8.7490   -2.5070 N.3   335  ILE335     -0.1245
    149  CA         8.2080    7.9780   -1.2940 C.3   335  ILE335      0.1561
    150  C          7.3220    8.5920   -0.2160 C.2   335  ILE335      0.2260
    151  O          7.2280    9.8310   -0.0840 O.2   335  ILE335     -0.2867
    152  CB         9.7660    7.9380   -0.9090 C.3   335  ILE335      0.0252
    153  CG1        9.9030    7.1600    0.4230 C.3   335  ILE335      0.0019
    154  CG2       10.3600    9.3420   -0.8300 C.3   335  ILE335      0.0019
    155  CD1       11.2420    6.5340    0.6960 C.3   335  ILE335      0.0001
    156  N          7.4570    3.9910   -2.6890 N.3   363  ALA363     -0.1245
    157  CA         8.3080    3.3200   -1.7240 C.3   363  ALA363      0.1562
    158  C          7.9370    3.9660   -0.4310 C.2   363  ALA363      0.2260
    159  O          7.2850    5.0230   -0.4050 O.2   363  ALA363     -0.2867
    160  CB         9.8060    3.6250   -1.9730 C.3   363  ALA363      0.0290
@<TRIPOS>BOND
     1   122   123    1
     2   122   128    1
     3   123   126    1
     4   123   124    1
     5   126   127    1
     6   128   127    1
     7   124   125    2
     8   109   115    1
     9   109   110    1
    10   115   114    1
    11   110   113    1
    12   110   111    1
    13   114   113    1
    14   129   130    1
    15   111   112    2
    16   134   136    1
    17   134   133    1
    18   130   133    1
    19   130   131    1
    20   133   135    1
    21   131   132    2
    22    88    87    1
    23     9     7   ar
    24     9    11   ar
    25     7     6   ar
    26   116   117    1
    27    87    89    1
    28    87    84    1
    29   117   118    1
    30   117   120    1
    31    12    11    1
    32    11    10   ar
    33     6     5    1
    34     6     8   ar
    35     5     2    1
    36   156   157    1
    37   148   149    1
    38   118   119    2
    39   137   138    1
    40    10     8   ar
    41   160   157    1
    42   120   121    1
    43     1     2    1
    44    84    85    1
    45    84    83    1
    46   157   158    1
    47     2     3    1
    48    76    75    1
    49     4     3    2
    50    74    75   ar
    51    74    72   ar
    52    85    86    2
    53    80    79    2
    54    75    73   ar
    55   149   152    1
    56   149   150    1
    57    72    70   ar
    58    73    71   ar
    59   152   154    1
    60   152   153    1
    61    70    71   ar
    62    70    69    1
    63    83    79   am
    64   138   139    1
    65   138   141    1
    66    79    78    1
    67    69    66    1
    68    90    91    1
    69   158   159    2
    70    91    94    1
    71    91    92    1
    72   150   151    2
    73   139   140    2
    74   141   142    1
    75    99    96    1
    76    95    92   am
    77    95    96    1
    78   153   155    1
    79    78    77    1
    80    78    81    1
    81    92    93    2
    82    77    67   am
    83    66    67    1
    84    66    65    1
    85    96    97    1
    86    67    68    2
    87   142   143    1
    88    81    82    1
    89    19    21   ar
    90    19    18   ar
    91   143   144    1
    92    21    22   ar
    93    97    98    2
    94    97   100   am
    95   144   145    2
    96    17    18    1
    97    17    14    1
    98    18    20   ar
    99   100   101    1
   100    13    14    1
   101    22    20   ar
   102   103   102    2
   103   145   146    1
   104   145   147    1
   105    14    15    1
   106    33    32   ar
   107    33    31   ar
   108    63    62   ar
   109    32    30   ar
   110   101   102    1
   111   101   104    1
   112    31    29   ar
   113    62    64   ar
   114    62    61    1
   115    15    16    2
   116   104   105    1
   117    30    28   ar
   118   105   106    1
   119    57    58    1
   120    29    28   ar
   121    61    58    1
   122    58    59    1
   123    28    27    1
   124   106   108   ar
   125   106   107   ar
   126    59    60    2
   127    27    24    1
   128    23    24    1
   129    24    25    1
   130    25    26    2
   131    56    54    1
   132    55    54    1
   133    54    53    2
   134    53    52    1
   135    41    43   ar
   136    41    39   ar
   137    34    35    1
   138    38    39    1
   139    38    35    1
   140    43    44   ar
   141    39    40   ar
   142    52    51    1
   143    35    36    1
   144    51    50    1
   145    44    45    1
   146    44    42   ar
   147    46    36   am
   148    46    47    1
   149    40    42   ar
   150    36    37    2
   151    50    47    1
   152    47    48    1
   153    48    49    2
