@<TRIPOS>MOLECULE
tmp/4m6tA00.pdb
 85 83 0 0 0
SMALL
GASTEIGER

@<TRIPOS>ATOM
      1  N        -30.5430    3.5320   14.4320 N.3    17  ALA17      -0.1231
      2  CA       -29.7660    4.5710   13.7680 C.3    17  ALA17       0.1694
      3  C        -30.4200    5.0290   12.4560 C.2    17  ALA17       0.2592
      4  O        -30.1650    6.1340   11.9630 O.2    17  ALA17      -0.2718
      5  CB       -28.3380    4.1110   13.5480 C.3    17  ALA17       0.0304
      6  N        -31.2800    4.1930   11.8940 N.am   18  GLN18      -0.1966
      7  CA       -31.8760    4.5290   10.6060 C.3    18  GLN18       0.1733
      8  C        -33.1930    5.2470   10.8000 C.2    18  GLN18       0.2616
      9  O        -33.7370    5.8140    9.8530 O.2    18  GLN18      -0.2715
     10  CB       -32.0600    3.2790    9.7440 C.3    18  GLN18       0.0408
     11  CG       -30.7500    2.6430    9.3120 C.3    18  GLN18       0.0908
     12  CD       -30.9550    1.3290    8.5890 C.2    18  GLN18       0.2608
     13  OE1      -31.8670    1.1960    7.7700 O.2    18  GLN18      -0.2717
     14  NE2      -30.1140    0.3480    8.8930 N.am   18  GLN18      -0.0878
     15  N        -33.7010    5.2160   12.0320 N.am   19  LYS19      -0.1963
     16  CA       -34.9150    5.9430   12.3640 C.3    19  LYS19       0.1728
     17  C        -34.7020    7.4150   12.1120 C.2    19  LYS19       0.2617
     18  O        -33.6280    7.9530   12.3510 O.2    19  LYS19      -0.2715
     19  CB       -35.3230    5.7170   13.8120 C.3    19  LYS19       0.0311
     20  CG       -35.7900    4.3030   14.1040 C.3    19  LYS19       0.0038
     21  CD       -36.7630    4.3080   15.2730 C.3    19  LYS19       0.0206
     22  CE       -37.0800    2.8990   15.7500 C.3    19  LYS19       0.1093
     23  NZ       -35.9070    2.2800   16.4370 N.3    19  LYS19      -0.1314
     24  N        -35.7390    8.0650   11.6210 N.am   20  SER20      -0.1936
     25  CA       -35.6440    9.4560   11.2310 C.3    20  SER20       0.2055
     26  C        -35.2720   10.3540   12.4080 C.2    20  SER20       0.2642
     27  O        -35.8830   10.2900   13.4670 O.2    20  SER20      -0.2714
     28  CB       -36.9720    9.9150   10.6240 C.3    20  SER20       0.2130
     29  OG       -36.9610   11.3200   10.4580 O.3    20  SER20      -0.2179
     30  N        -34.2690   11.1950   12.2100 N.am   21  ILE21      -0.1977
     31  CA       -33.9250   12.2130   13.1850 C.3    21  ILE21       0.1596
     32  C        -34.5630   13.5440   12.7890 C.2    21  ILE21       0.2287
     33  O        -34.3170   14.0720   11.7020 O.2    21  ILE21      -0.2864
     34  CB       -32.4090   12.3730   13.2880 C.3    21  ILE21       0.0276
     35  CG1      -31.7930   11.0760   13.8300 C.3    21  ILE21       0.0022
     36  CG2      -32.0590   13.5910   14.1590 C.3    21  ILE21       0.0022
     37  CD1      -30.3310   10.8810   13.4590 C.3    21  ILE21       0.0001
     38  N        -32.4680   19.2900   13.1910 N.3    32  PRO32      -0.2102
     39  CA       -31.2270   18.8230   12.5690 C.3    32  PRO32       0.1504
     40  C        -30.9100   19.6320   11.3220 C.2    32  PRO32       0.2576
     41  O        -31.7840   19.8290   10.4630 O.2    32  PRO32      -0.2718
     42  CB       -31.5430   17.3740   12.2020 C.3    32  PRO32       0.0282
     43  CG       -33.0090   17.3730   11.9600 C.3    32  PRO32       0.0208
     44  CD       -33.5940   18.3780   12.9250 C.3    32  PRO32       0.0893
     45  N        -29.6730   20.1150   11.2500 N.am   33  VAL33      -0.1966
     46  CA       -29.1780   20.8590   10.0900 C.3    33  VAL33       0.1727
     47  C        -28.3650   19.9530    9.1370 C.2    33  VAL33       0.2616
     48  O        -28.3340   20.1900    7.9390 O.2    33  VAL33      -0.2715
     49  CB       -28.3440   22.0920   10.5420 C.3    33  VAL33       0.0290
     50  CG1      -27.3320   22.4830    9.4860 C.3    33  VAL33       0.0023
     51  CG2      -29.2630   23.2570   10.8730 C.3    33  VAL33       0.0023
     52  N        -27.7090   18.9280    9.6820 N.am   34  GLU34      -0.1963
     53  CA       -27.0050   17.9280    8.8860 C.3    34  GLU34       0.1733
     54  C        -26.8700   16.6280    9.6720 C.2    34  GLU34       0.2616
     55  O        -26.5150   16.6490   10.8480 O.2    34  GLU34      -0.2715
     56  CB       -25.6110   18.4180    8.4510 C.3    34  GLU34       0.0429
     57  CG       -24.9930   17.5730    7.3270 C.3    34  GLU34       0.1163
     58  CD       -23.5390   17.9330    6.9780 C.2    34  GLU34       0.3649
     59  OE1      -22.9750   17.2830    6.0510 O.co2  34  GLU34      -0.2457
     60  OE2      -22.9530   18.8490    7.6200 O.co2  34  GLU34      -0.2457
     61  N        -27.1570   15.4940    9.0360 N.am   35  VAL35      -0.1977
     62  CA       -26.9570   14.1990    9.6860 C.3    35  VAL35       0.1596
     63  C        -25.9150   13.4200    8.8930 C.2    35  VAL35       0.2287
     64  O        -26.0870   13.2130    7.7120 O.2    35  VAL35      -0.2864
     65  CB       -28.2690   13.3910    9.7540 C.3    35  VAL35       0.0276
     66  CG1      -28.0890   12.1400   10.5860 C.3    35  VAL35       0.0022
     67  CG2      -29.4030   14.2410   10.3050 C.3    35  VAL35       0.0022
     68  N        -23.7850    9.8110    8.6180 N.3    37  PRO37      -0.2116
     69  CA       -23.4830    8.4600    9.1050 C.3    37  PRO37       0.1372
     70  C        -21.9650    8.2930    9.2870 C.2    37  PRO37       0.2244
     71  O        -21.1620    8.9330    8.5800 O.2    37  PRO37      -0.2868
     72  CB       -24.0270    7.5470    7.9910 C.3    37  PRO37       0.0268
     73  CG       -23.9620    8.3790    6.7750 C.3    37  PRO37       0.0207
     74  CD       -24.2590    9.8030    7.2210 C.3    37  PRO37       0.0892
     75  N        -24.3300    8.0170   14.0930 N.3   154  ARG154     -0.1245
     76  CA       -24.7180    9.1730   13.3250 C.3   154  ARG154      0.1563
     77  C        -24.1760   10.4060   14.0400 C.2   154  ARG154      0.2260
     78  O        -24.2380   10.4850   15.2700 O.2   154  ARG154     -0.2867
     79  CB       -26.2550    9.1760   13.1960 C.3   154  ARG154      0.0307
     80  CG       -26.7550    9.5640   11.8280 C.3   154  ARG154      0.0489
     81  CD       -27.2970    8.4030   10.9600 C.3   154  ARG154      0.2205
     82  NE       -26.5490    7.1690   11.1060 N.pl3 154  ARG154     -0.0865
     83  CZ       -26.8990    6.0130   10.5610 C.cat 154  ARG154      0.5346
     84  NH1      -27.9920    5.9300    9.8240 N.pl3 154  ARG154      0.1354
     85  NH2      -26.1540    4.9370   10.7800 N.pl3 154  ARG154      0.1354
@<TRIPOS>BOND
     1    59    58   ar
     2    73    74    1
     3    73    72    1
     4    58    57    1
     5    58    60   ar
     6    74    68    1
     7    57    56    1
     8    64    63    2
     9    13    12    2
    10    48    47    2
    11    72    69    1
    12    56    53    1
    13    71    70    2
    14    12    14   am
    15    12    11    1
    16    68    69    1
    17    53    54    1
    18    53    52    1
    19    63    62    1
    20    61    54   am
    21    61    62    1
    22    69    70    1
    23    47    52   am
    24    47    46    1
    25    11    10    1
    26    50    49    1
    27    54    55    2
    28    62    65    1
    29    10     7    1
    30    65    67    1
    31    65    66    1
    32    84    83    1
    33     9     8    2
    34    46    49    1
    35    46    45    1
    36    29    28    1
    37    41    40    2
    38    49    51    1
    39    83    85    1
    40    83    82    2
    41     7     8    1
    42     7     6    1
    43    28    25    1
    44     8    15   am
    45    81    82    1
    46    81    80    1
    47    25    24    1
    48    25    26    1
    49    45    40   am
    50    40    39    1
    51    24    17   am
    52    33    32    2
    53    80    79    1
    54     6     3   am
    55    43    42    1
    56    43    44    1
    57     4     3    2
    58    15    16    1
    59    17    18    2
    60    17    16    1
    61    42    39    1
    62    30    26   am
    63    30    31    1
    64    16    19    1
    65    26    27    2
    66     3     2    1
    67    39    38    1
    68    32    31    1
    69    44    38    1
    70    31    34    1
    71    79    76    1
    72    34    35    1
    73    34    36    1
    74    76    77    1
    75    76    75    1
    76    37    35    1
    77     5     2    1
    78     2     1    1
    79    19    20    1
    80    77    78    2
    81    20    21    1
    82    21    22    1
    83    22    23    1
