@<TRIPOS>MOLECULE
tmp/4m6uB00.pdb
 123 113 0 0 0
SMALL
GASTEIGER

@<TRIPOS>ATOM
      1  N        -20.6780   31.0500  -64.7840 N.3    20  VAL20      -0.1245
      2  CA       -19.8350   29.9040  -64.4520 C.3    20  VAL20       0.1561
      3  C        -20.6740   28.6350  -64.3710 C.2    20  VAL20       0.2260
      4  O        -21.1460   28.2720  -63.3000 O.2    20  VAL20      -0.2867
      5  CB       -19.0670   30.1090  -63.1360 C.3    20  VAL20       0.0252
      6  CG1      -18.1020   28.9530  -62.9130 C.3    20  VAL20       0.0019
      7  CG2      -18.3250   31.4350  -63.1700 C.3    20  VAL20       0.0019
      8  N        -16.9150   35.5470  -51.0710 N.3    50  PHE50      -0.1241
      9  CA       -17.7580   34.9400  -52.0850 C.3    50  PHE50       0.1605
     10  C        -18.7150   34.0020  -51.4090 C.2    50  PHE50       0.2264
     11  O        -18.3080   33.1380  -50.6320 O.2    50  PHE50      -0.2867
     12  CB       -16.8890   34.1850  -53.0720 C.3    50  PHE50       0.0534
     13  CG       -17.6180   33.4350  -54.1430 C.ar   50  PHE50      -0.0203
     14  CD1      -18.6880   34.0080  -54.8880 C.ar   50  PHE50      -0.0042
     15  CD2      -17.1680   32.1720  -54.5240 C.ar   50  PHE50      -0.0042
     16  CE1      -19.2970   33.2910  -55.9150 C.ar   50  PHE50      -0.0003
     17  CE2      -17.7560   31.4880  -55.6130 C.ar   50  PHE50      -0.0003
     18  CZ       -18.8400   32.0470  -56.2750 C.ar   50  PHE50      -0.0000
     19  N        -21.1020   32.0310  -52.9420 N.3    52  TYR52      -0.1241
     20  CA       -21.3730   30.9380  -53.8550 C.3    52  TYR52       0.1605
     21  C        -22.7790   30.9360  -54.4730 C.2    52  TYR52       0.2264
     22  O        -22.9170   30.8130  -55.6870 O.2    52  TYR52      -0.2867
     23  CB       -21.0770   29.5410  -53.2450 C.3    52  TYR52       0.0534
     24  CG       -19.6200   29.4170  -52.8490 C.ar   52  TYR52      -0.0201
     25  CD1      -18.6970   28.8450  -53.6830 C.ar   52  TYR52      -0.0009
     26  CD2      -19.1960   29.8970  -51.6130 C.ar   52  TYR52      -0.0009
     27  CE1      -17.3420   28.7790  -53.3420 C.ar   52  TYR52       0.0417
     28  CE2      -17.8690   29.8230  -51.2510 C.ar   52  TYR52       0.0417
     29  CZ       -16.9500   29.2890  -52.1300 C.ar   52  TYR52       0.1957
     30  OH       -15.6140   29.2180  -51.7670 O.3    52  TYR52      -0.2866
     31  N         -9.4990   30.7660  -66.3550 N.3   137  SER137     -0.1217
     32  CA       -10.4910   29.8030  -65.9210 C.3   137  SER137      0.1889
     33  C        -11.8650   30.0000  -66.5700 C.2   137  SER137      0.2288
     34  O        -12.5220   31.0260  -66.3680 O.2   137  SER137     -0.2866
     35  CB       -10.5840   29.8530  -64.3810 C.3   137  SER137      0.2089
     36  OG       -11.2540   28.7050  -63.9210 O.3   137  SER137     -0.2183
     37  N         -8.3820   26.5010  -67.9850 N.3   162  LYS162     -0.1245
     38  CA        -9.1750   25.4260  -67.3710 C.3   162  LYS162      0.1561
     39  C        -10.5630   25.4320  -67.9400 C.2   162  LYS162      0.2260
     40  O        -11.2170   26.5040  -68.0160 O.2   162  LYS162     -0.2867
     41  CB        -9.2370   25.6430  -65.8530 C.3   162  LYS162      0.0271
     42  CG        -9.7630   24.4240  -65.0790 C.3   162  LYS162      0.0035
     43  CD        -9.4290   24.4410  -63.5660 C.3   162  LYS162      0.0206
     44  CE       -10.2710   25.3890  -62.7900 C.3   162  LYS162      0.1093
     45  NZ        -9.8060   25.5080  -61.3750 N.3   162  LYS162     -0.1314
     46  N        -14.4520   23.3680  -67.5560 N.3   164  LYS164     -0.1245
     47  CA       -15.2970   22.5780  -66.6290 C.3   164  LYS164      0.1561
     48  C        -15.8930   21.4920  -67.4260 C.2   164  LYS164      0.2260
     49  O        -16.4240   21.7590  -68.5330 O.2   164  LYS164     -0.2867
     50  CB       -16.3530   23.4610  -65.9340 C.3   164  LYS164      0.0271
     51  CG       -15.6970   24.2130  -64.7670 C.3   164  LYS164      0.0035
     52  CD       -16.5380   25.2140  -63.9690 C.3   164  LYS164      0.0206
     53  CE       -15.7830   25.6580  -62.7030 C.3   164  LYS164      0.1093
     54  NZ       -14.2440   25.4220  -62.6710 N.3   164  LYS164     -0.1314
     55  N        -11.9180   20.4480  -64.7630 N.3   193  ASP193     -0.1239
     56  CA       -12.6190   20.4890  -63.4560 C.3   193  ASP193      0.1674
     57  C        -13.9660   19.7650  -63.5350 C.2   193  ASP193      0.2266
     58  O        -14.8700   20.1340  -64.3460 O.2   193  ASP193     -0.2867
     59  CB       -12.8040   21.9510  -63.0560 C.3   193  ASP193      0.1410
     60  CG       -13.1790   22.1540  -61.5830 C.2   193  ASP193      0.3668
     61  OD1      -13.5290   21.1520  -60.8940 O.co2 193  ASP193     -0.2456
     62  OD2      -13.1680   23.3350  -61.1570 O.co2 193  ASP193     -0.2456
     63  N        -15.8770   19.3830  -60.6670 N.3   195  ASN195     -0.1240
     64  CA       -16.7480   19.9920  -59.6450 C.3   195  ASN195      0.1653
     65  C        -17.5450   18.9620  -58.8980 C.2   195  ASN195      0.2266
     66  O        -18.7410   19.1520  -58.6550 O.2   195  ASN195     -0.2867
     67  CB       -17.7170   21.0140  -60.2920 C.3   195  ASN195      0.1155
     68  CG       -16.9990   22.2500  -60.7200 C.2   195  ASN195      0.2627
     69  OD1      -16.7310   22.4490  -61.9130 O.2   195  ASN195     -0.2716
     70  ND2      -16.5650   23.0320  -59.7330 N.am  195  ASN195     -0.0877
     71  N         -9.3150   18.0490  -61.6410 N.3   219  GLU219     -0.1245
     72  CA        -9.7420   18.7170  -60.4110 C.3   219  GLU219      0.1567
     73  C        -11.0920   18.2380  -59.8480 C.2   219  GLU219      0.2260
     74  O        -12.0950   18.0360  -60.5510 O.2   219  GLU219     -0.2867
     75  CB        -9.7630   20.2190  -60.6420 C.3   219  GLU219      0.0388
     76  CG       -10.1430   21.1720  -59.5290 C.3   219  GLU219      0.1160
     77  CD        -9.9750   22.6400  -59.9300 C.2   219  GLU219      0.3649
     78  OE1       -9.0590   22.9360  -60.7510 O.co2 219  GLU219     -0.2457
     79  OE2      -10.7760   23.5040  -59.4660 O.co2 219  GLU219     -0.2457
     80  N         -9.9330   23.7150  -53.0340 N.3   245  GLU245     -0.1245
     81  CA       -10.7380   24.9300  -52.9770 C.3   245  GLU245      0.1567
     82  C        -11.7970   24.8980  -51.9130 C.2   245  GLU245      0.2260
     83  O        -12.2760   25.9460  -51.4700 O.2   245  GLU245     -0.2867
     84  CB       -11.3720   25.2220  -54.3490 C.3   245  GLU245      0.0388
     85  CG       -12.5040   24.3130  -54.7310 C.3   245  GLU245      0.1160
     86  CD       -12.9440   24.5150  -56.2160 C.2   245  GLU245      0.3649
     87  OE1      -12.0900   24.2310  -57.0640 O.co2 245  GLU245     -0.2457
     88  OE2      -14.1260   24.9090  -56.4580 O.co2 245  GLU245     -0.2457
     89  N         -7.1810   29.4460  -55.6530 N.3   295  HIS295     -0.1226
     90  CA        -8.5490   29.3040  -56.1060 C.3   295  HIS295      0.1752
     91  C         -9.2320   30.6500  -55.9080 C.2   295  HIS295      0.2595
     92  O         -9.4200   31.0930  -54.7670 O.2   295  HIS295     -0.2718
     93  CB        -9.3190   28.2600  -55.2840 C.3   295  HIS295      0.0759
     94  CG       -10.7730   28.1570  -55.6760 C.ar  295  HIS295      0.0818
     95  ND1      -11.7730   28.6410  -54.8830 N.ar  295  HIS295     -0.2268
     96  CD2      -11.3730   27.6920  -56.7980 C.ar  295  HIS295      0.1154
     97  CE1      -12.9470   28.3740  -55.4320 C.ar  295  HIS295      0.1986
     98  NE2      -12.7300   27.8450  -56.6230 N.ar  295  HIS295     -0.2212
     99  N         -9.6470   31.2730  -57.0090 N.am  296  LEU296     -0.1980
    100  CA       -10.3310   32.5780  -56.9590 C.3   296  LEU296      0.1596
    101  C         -9.4810   33.5880  -56.1850 C.2   296  LEU296      0.2287
    102  O         -8.2800   33.3780  -56.0400 O.2   296  LEU296     -0.2864
    103  CB       -11.7550   32.4580  -56.3540 C.3   296  LEU296      0.0297
    104  CG       -12.6370   31.4050  -56.9850 C.3   296  LEU296      0.0022
    105  CD1      -13.9540   31.4010  -56.2410 C.3   296  LEU296      0.0001
    106  CD2      -12.8060   31.5870  -58.4960 C.3   296  LEU296      0.0001
    107  N         -5.0150   31.1060  -60.3610 N.3   315  GLU315     -0.1245
    108  CA        -6.2590   31.0190  -61.0980 C.3   315  GLU315      0.1567
    109  C         -6.8010   32.4140  -61.4220 C.2   315  GLU315      0.2260
    110  O         -7.1390   33.1780  -60.5250 O.2   315  GLU315     -0.2867
    111  CB        -7.3710   30.2880  -60.3270 C.3   315  GLU315      0.0388
    112  CG        -8.6250   30.0730  -61.1790 C.3   315  GLU315      0.1160
    113  CD        -9.7430   29.3040  -60.4920 C.2   315  GLU315      0.3649
    114  OE1       -9.8700   29.4060  -59.2530 O.co2 315  GLU315     -0.2457
    115  OE2      -10.4660   28.5780  -61.1660 O.co2 315  GLU315     -0.2457
    116  N         -9.8500   34.1960  -62.4720 N.3   317  LEU317     -0.1245
    117  CA       -11.3090   34.1220  -62.5640 C.3   317  LEU317      0.1561
    118  C        -11.7950   35.3410  -61.8230 C.2   317  LEU317      0.2260
    119  O        -11.8640   35.3960  -60.6030 O.2   317  LEU317     -0.2867
    120  CB       -11.8980   32.7970  -61.9980 C.3   317  LEU317      0.0270
    121  CG       -13.2980   32.4110  -62.5310 C.3   317  LEU317      0.0019
    122  CD1      -13.7190   30.9810  -62.0920 C.3   317  LEU317      0.0001
    123  CD2      -14.3190   33.4420  -62.1270 C.3   317  LEU317      0.0001
@<TRIPOS>BOND
     1    49    48    2
     2    40    39    2
     3    37    38    1
     4    39    38    1
     5    46    47    1
     6    48    47    1
     7    38    41    1
     8    47    50    1
     9    33    34    2
    10    33    32    1
    11    31    32    1
    12    50    51    1
    13    32    35    1
    14    41    42    1
    15    42    43    1
    16     1     2    1
    17    51    52    1
    18    55    56    1
    19     2     3    1
    20     2     5    1
    21    35    36    1
    22     3     4    2
    23    58    57    2
    24    52    53    1
    25    43    44    1
    26    57    56    1
    27    56    59    1
    28     7     5    1
    29     5     6    1
    30    59    60    1
    31    44    45    1
    32    53    54    1
    33   117   116    1
    34   117   120    1
    35   117   118    1
    36   121   123    1
    37   121   122    1
    38   121   120    1
    39    69    68    2
    40   118   119    2
    41    71    72    1
    42    60    62   ar
    43    60    61   ar
    44   109   108    1
    45   109   110    2
    46   112   113    1
    47   112   111    1
    48   115   113   ar
    49   108   107    1
    50   108   111    1
    51    78    77   ar
    52    68    67    1
    53    68    70   am
    54    63    64    1
    55    75    72    1
    56    75    76    1
    57    74    73    2
    58   113   114   ar
    59    72    73    1
    60    67    64    1
    61    77    76    1
    62    77    79   ar
    63    64    65    1
    64    65    66    2
    65   106   104    1
    66    87    86   ar
    67    99   100    1
    68    99    91   am
    69   104   103    1
    70   104   105    1
    71   100   103    1
    72   100   101    1
    73    96    98   ar
    74    96    94   ar
    75    98    97   ar
    76    88    86   ar
    77    18    16   ar
    78    18    17   ar
    79    86    85    1
    80   101   102    2
    81    90    91    1
    82    90    89    1
    83    90    93    1
    84    16    14   ar
    85    91    92    2
    86    22    21    2
    87    94    93    1
    88    94    95   ar
    89    17    15   ar
    90    97    95   ar
    91    14    13   ar
    92    85    84    1
    93    15    13   ar
    94    21    20    1
    95    84    81    1
    96    13    12    1
    97    20    23    1
    98    20    19    1
    99    25    27   ar
   100    25    24   ar
   101    27    29   ar
   102    23    24    1
   103    12     9    1
   104    80    81    1
   105    81    82    1
   106    24    26   ar
   107    29    30    1
   108    29    28   ar
   109     9    10    1
   110     9     8    1
   111    82    83    2
   112    26    28   ar
   113    10    11    2
