@<TRIPOS>MOLECULE
tmp/4m6vA01.pdb
 101 95 0 0 0
SMALL
GASTEIGER

@<TRIPOS>ATOM
      1  N        -45.6360   -5.6240   36.2770 N.3    19  PRO19      -0.2102
      2  CA       -46.3640   -6.7510   35.6460 C.3    19  PRO19       0.1504
      3  C        -45.4950   -7.5870   34.7180 C.2    19  PRO19       0.2575
      4  O        -45.6280   -8.7970   34.6570 O.2    19  PRO19      -0.2718
      5  CB       -47.4860   -6.0590   34.8650 C.3    19  PRO19       0.0282
      6  CG       -47.7050   -4.7790   35.5990 C.3    19  PRO19       0.0208
      7  CD       -46.3250   -4.3480   36.0630 C.3    19  PRO19       0.0893
      8  N        -44.5840   -6.9470   34.0180 N.am   20  GLU20      -0.1980
      9  CA       -43.6940   -7.6730   33.1180 C.3    20  GLU20       0.1602
     10  C        -42.5460   -8.4420   33.7560 C.2    20  GLU20       0.2287
     11  O        -41.9100   -9.2510   33.1020 O.2    20  GLU20      -0.2864
     12  CB       -43.1180   -6.7240   32.0900 C.3    20  GLU20       0.0415
     13  CG       -44.1700   -6.1060   31.1820 C.3    20  GLU20       0.1163
     14  CD       -44.7110   -7.1090   30.2080 C.2    20  GLU20       0.3649
     15  OE1      -43.9660   -7.5010   29.2920 O.co2  20  GLU20      -0.2457
     16  OE2      -45.8680   -7.5130   30.3700 O.co2  20  GLU20      -0.2457
     17  N        -41.0810  -13.5950   36.6860 N.3    24  ARG24      -0.1245
     18  CA       -40.0390  -14.0740   35.8100 C.3    24  ARG24       0.1563
     19  C        -38.7230  -14.1780   36.5730 C.2    24  ARG24       0.2260
     20  O        -38.5950  -13.6900   37.6930 O.2    24  ARG24      -0.2867
     21  CB       -39.9350  -13.1360   34.6090 C.3    24  ARG24       0.0307
     22  CG       -41.2820  -12.9770   33.8950 C.3    24  ARG24       0.0489
     23  CD       -41.1420  -12.4260   32.5100 C.3    24  ARG24       0.2205
     24  NE       -40.4890  -13.4400   31.6900 N.pl3  24  ARG24      -0.0865
     25  CZ       -41.1080  -14.4400   31.0530 C.cat  24  ARG24       0.5346
     26  NH1      -40.3790  -15.3140   30.3700 N.pl3  24  ARG24       0.1354
     27  NH2      -42.4410  -14.5670   31.0700 N.pl3  24  ARG24       0.1354
     28  N        -33.4150  -10.7190   21.1340 N.3    84  LEU84      -0.1245
     29  CA       -32.9550  -11.5370   22.2590 C.3    84  LEU84       0.1561
     30  C        -33.6850  -11.2570   23.5840 C.2    84  LEU84       0.2260
     31  O        -33.8340  -12.1730   24.3720 O.2    84  LEU84      -0.2867
     32  CB       -31.4350  -11.3400   22.4520 C.3    84  LEU84       0.0270
     33  CG       -30.5400  -11.9660   21.3860 C.3    84  LEU84       0.0019
     34  CD1      -29.0970  -11.5450   21.5860 C.3    84  LEU84       0.0001
     35  CD2      -30.6060  -13.5050   21.3590 C.3    84  LEU84       0.0001
     36  N        -36.9220   -9.5280   23.8920 N.3    86  ALA86      -0.1245
     37  CA       -38.3260   -9.0560   23.6280 C.3    86  ALA86       0.1562
     38  C        -38.4680   -7.5550   23.5530 C.2    86  ALA86       0.2260
     39  O        -39.5070   -7.0180   23.9030 O.2    86  ALA86      -0.2867
     40  CB       -39.2840   -9.5820   24.6720 C.3    86  ALA86       0.0290
     41  N        -37.2530   -5.2790   25.3080 N.3    88  ARG88      -0.1245
     42  CA       -37.4960   -4.6060   26.5910 C.3    88  ARG88       0.1563
     43  C        -36.3730   -3.6420   27.0490 C.2    88  ARG88       0.2260
     44  O        -36.4170   -3.0710   28.1300 O.2    88  ARG88      -0.2867
     45  CB       -37.7890   -5.6600   27.6620 C.3    88  ARG88       0.0307
     46  CG       -39.0180   -6.4950   27.4140 C.3    88  ARG88       0.0489
     47  CD       -40.2970   -5.6890   27.3320 C.3    88  ARG88       0.2205
     48  NE       -41.5590   -6.4680   27.5050 N.pl3  88  ARG88      -0.0865
     49  CZ       -42.2230   -7.0090   26.4820 C.cat  88  ARG88       0.5346
     50  NH1      -41.7520   -6.9090   25.2630 N.pl3  88  ARG88       0.1354
     51  NH2      -43.3470   -7.6370   26.6500 N.pl3  88  ARG88       0.1354
     52  N        -36.3740  -11.3240   30.8250 N.3   353  PHE353     -0.1227
     53  CA       -36.7810  -11.5100   29.4170 C.3   353  PHE353      0.1736
     54  C        -35.8540  -12.3600   28.5320 C.2   353  PHE353      0.2595
     55  O        -35.9450  -12.3280   27.2850 O.2   353  PHE353     -0.2718
     56  CB       -36.9340  -10.0990   28.7910 C.3   353  PHE353      0.0547
     57  CG       -37.7070   -9.1580   29.6530 C.ar  353  PHE353     -0.0202
     58  CD1      -39.0730   -9.3500   29.8390 C.ar  353  PHE353     -0.0042
     59  CD2      -37.0620   -8.1200   30.3440 C.ar  353  PHE353     -0.0042
     60  CE1      -39.7840   -8.4970   30.6890 C.ar  353  PHE353     -0.0003
     61  CE2      -37.7610   -7.2650   31.1840 C.ar  353  PHE353     -0.0003
     62  CZ       -39.1240   -7.4580   31.3590 C.ar  353  PHE353     -0.0000
     63  N        -34.9500  -13.1030   29.1550 N.am  354  GLU354     -0.1965
     64  CA       -34.0820  -14.0320   28.4360 C.3   354  GLU354      0.1733
     65  C        -34.9100  -15.1930   27.9210 C.2   354  GLU354      0.2617
     66  O        -35.7270  -15.6960   28.6360 O.2   354  GLU354     -0.2715
     67  CB       -32.9700  -14.5800   29.3440 C.3   354  GLU354      0.0429
     68  CG       -31.9020  -13.5370   29.6940 C.3   354  GLU354      0.1163
     69  CD       -30.9270  -13.1910   28.5560 C.2   354  GLU354      0.3649
     70  OE1      -31.0220  -13.7050   27.3990 O.co2 354  GLU354     -0.2457
     71  OE2      -30.0180  -12.3860   28.8330 O.co2 354  GLU354     -0.2457
     72  N        -34.6680  -15.6310   26.6850 N.am  355  SER355     -0.1950
     73  CA       -35.3620  -16.7890   26.1480 C.3   355  SER355      0.1924
     74  C        -34.6220  -18.0680   26.5290 C.2   355  SER355      0.2314
     75  O        -33.5290  -18.0210   27.0680 O.2   355  SER355     -0.2863
     76  CB       -35.4180  -16.7100   24.6190 C.3   355  SER355      0.2116
     77  OG       -34.1600  -17.1690   24.0870 O.3   355  SER355     -0.2180
     78  N        -38.6810  -15.8380   18.9400 N.3   375  THR375     -0.1203
     79  CA       -38.8730  -15.9880   20.3680 C.3   375  THR375      0.1994
     80  C        -40.3330  -15.5370   20.7200 C.2   375  THR375      0.2617
     81  O        -41.0400  -16.1920   21.4670 O.2   375  THR375     -0.2717
     82  CB       -37.7560  -15.1340   21.0270 C.3   375  THR375      0.1784
     83  OG1      -36.7320  -15.9690   21.5500 O.3   375  THR375     -0.2211
     84  CG2      -38.2420  -14.2360   22.0140 C.3   375  THR375      0.0376
     85  N        -40.7920  -14.4470   20.1240 N.am  376  ASN376     -0.1974
     86  CA       -42.2190  -14.0460   20.2580 C.3   376  ASN376      0.1688
     87  C        -43.1690  -15.1890   19.8220 C.2   376  ASN376      0.2292
     88  O        -44.0870  -15.5630   20.5490 O.2   376  ASN376     -0.2864
     89  CB       -42.4160  -12.7400   19.4840 C.3   376  ASN376      0.1181
     90  CG       -43.7850  -12.1160   19.6700 C.2   376  ASN376      0.2629
     91  OD1      -44.7690  -12.5670   19.0930 O.2   376  ASN376     -0.2716
     92  ND2      -43.8330  -11.0020   20.3970 N.am  376  ASN376     -0.0877
     93  N        -43.2620  -18.0690   22.2380 N.3   379  GLU379     -0.1245
     94  CA       -44.0740  -17.7560   23.3890 C.3   379  GLU379      0.1567
     95  C        -45.5800  -17.8230   23.1190 C.2   379  GLU379      0.2260
     96  O        -46.3330  -18.2330   23.9930 O.2   379  GLU379     -0.2867
     97  CB       -43.7130  -16.4040   23.9810 C.3   379  GLU379      0.0388
     98  CG       -43.4090  -16.5880   25.4690 C.3   379  GLU379      0.1160
     99  CD       -44.6090  -16.3780   26.3310 C.2   379  GLU379      0.3649
    100  OE1      -45.2400  -15.3060   26.1940 O.co2 379  GLU379     -0.2457
    101  OE2      -44.9150  -17.2870   27.1160 O.co2 379  GLU379     -0.2457
@<TRIPOS>BOND
     1    78    79    1
     2    91    90    2
     3    89    90    1
     4    89    86    1
     5    90    92   am
     6    87    86    1
     7    87    88    2
     8    85    86    1
     9    85    80   am
    10    79    80    1
    11    79    82    1
    12    80    81    2
    13    82    83    1
    14    82    84    1
    15    28    29    1
    16    35    33    1
    17    33    34    1
    18    33    32    1
    19    93    94    1
    20    29    32    1
    21    29    30    1
    22    95    94    1
    23    95    96    2
    24    94    97    1
    25    38    37    1
    26    38    39    2
    27    30    31    2
    28    37    36    1
    29    37    40    1
    30    97    98    1
    31    77    76    1
    32    76    73    1
    33    50    49    1
    34    41    42    1
    35    98    99    1
    36    73    74    1
    37    73    72    1
    38   100    99   ar
    39    99   101   ar
    40    49    51    1
    41    49    48    2
    42    74    75    2
    43    42    43    1
    44    42    45    1
    45    72    65   am
    46    43    44    2
    47    55    54    2
    48    47    46    1
    49    47    48    1
    50    70    69   ar
    51    46    45    1
    52    65    64    1
    53    65    66    2
    54    64    63    1
    55    64    67    1
    56    54    63   am
    57    54    53    1
    58    69    71   ar
    59    69    68    1
    60    56    53    1
    61    56    57    1
    62    15    14   ar
    63    67    68    1
    64    53    52    1
    65    57    58   ar
    66    57    59   ar
    67    58    60   ar
    68    14    16   ar
    69    14    13    1
    70    59    61   ar
    71    26    25    1
    72    60    62   ar
    73    25    27    1
    74    25    24    2
    75    13    12    1
    76    61    62   ar
    77    24    23    1
    78    12     9    1
    79    23    22    1
    80    11    10    2
    81     9    10    1
    82     9     8    1
    83    22    21    1
    84     8     3   am
    85    21    18    1
    86     4     3    2
    87     3     2    1
    88     5     6    1
    89     5     2    1
    90     6     7    1
    91     2     1    1
    92    18    19    1
    93    18    17    1
    94     7     1    1
    95    19    20    2
