@<TRIPOS>MOLECULE
tmp/4m6vD01.pdb
 86 80 0 0 0
SMALL
GASTEIGER

@<TRIPOS>ATOM
      1  N        -64.1400  -35.4070   64.2110 N.3    20  GLU20      -0.1245
      2  CA       -64.3640  -34.8290   65.5330 C.3    20  GLU20       0.1567
      3  C        -63.1210  -34.2750   66.1980 C.2    20  GLU20       0.2260
      4  O        -63.2460  -33.4180   67.0560 O.2    20  GLU20      -0.2867
      5  CB       -64.9810  -35.8690   66.4740 C.3    20  GLU20       0.0388
      6  CG       -66.3950  -36.2600   66.1010 C.3    20  GLU20       0.1160
      7  CD       -67.3650  -35.1210   66.3420 C.2    20  GLU20       0.3649
      8  OE1      -67.5730  -34.7730   67.5310 O.co2  20  GLU20      -0.2457
      9  OE2      -67.9000  -34.5910   65.3540 O.co2  20  GLU20      -0.2457
     10  N        -59.3350  -29.5480   66.1940 N.3    24  ARG24      -0.1245
     11  CA       -59.4230  -29.1790   67.6020 C.3    24  ARG24       0.1563
     12  C        -58.0650  -29.3080   68.3100 C.2    24  ARG24       0.2260
     13  O        -57.1180  -29.7890   67.7190 O.2    24  ARG24      -0.2867
     14  CB       -60.5130  -30.0390   68.2280 C.3    24  ARG24       0.0307
     15  CG       -61.8610  -29.8040   67.5380 C.3    24  ARG24       0.0489
     16  CD       -63.0510  -30.2890   68.3460 C.3    24  ARG24       0.2205
     17  NE       -63.1640  -29.5700   69.6180 N.pl3  24  ARG24      -0.0865
     18  CZ       -63.7680  -28.3970   69.7880 C.cat  24  ARG24       0.5346
     19  NH1      -63.7970  -27.8400   70.9850 N.pl3  24  ARG24       0.1354
     20  NH2      -64.3500  -27.7830   68.7790 N.pl3  24  ARG24       0.1354
     21  N        -67.9740  -33.5660   76.6140 N.3    83  ALA83      -0.1245
     22  CA       -68.9910  -33.7730   75.5920 C.3    83  ALA83       0.1562
     23  C        -69.2850  -35.2730   75.3190 C.2    83  ALA83       0.2260
     24  O        -69.5890  -35.6700   74.2010 O.2    83  ALA83      -0.2867
     25  CB       -68.5580  -33.0690   74.3150 C.3    83  ALA83       0.0290
     26  N        -67.4230  -37.8960   75.1140 N.3    85  ARG85      -0.1245
     27  CA       -66.5820  -38.5170   74.0980 C.3    85  ARG85       0.1563
     28  C        -65.7120  -39.6640   74.5920 C.2    85  ARG85       0.2260
     29  O        -65.0280  -40.3020   73.8060 O.2    85  ARG85      -0.2867
     30  CB       -65.7290  -37.4540   73.4220 C.3    85  ARG85       0.0307
     31  CG       -66.5410  -36.4630   72.6070 C.3    85  ARG85       0.0489
     32  CD       -67.5530  -37.1210   71.6840 C.3    85  ARG85       0.2205
     33  NE       -67.9890  -36.2280   70.6110 N.pl3  85  ARG85      -0.0865
     34  CZ       -69.0940  -35.4900   70.6100 C.cat  85  ARG85       0.5346
     35  NH1      -69.9130  -35.4860   71.6540 N.pl3  85  ARG85       0.1354
     36  NH2      -69.3800  -34.7280   69.5540 N.pl3  85  ARG85       0.1354
     37  N        -61.7440  -32.1380   73.3510 N.3   350  PHE350     -0.1227
     38  CA       -63.1050  -31.9660   73.7650 C.3   350  PHE350      0.1736
     39  C        -63.1810  -31.1790   75.0570 C.2   350  PHE350      0.2595
     40  O        -64.2360  -31.1340   75.6470 O.2   350  PHE350     -0.2718
     41  CB       -63.7670  -33.3450   73.9010 C.3   350  PHE350      0.0547
     42  CG       -63.6370  -34.2000   72.6630 C.ar  350  PHE350     -0.0202
     43  CD1      -64.2730  -33.8440   71.4930 C.ar  350  PHE350     -0.0042
     44  CD2      -62.8580  -35.3510   72.6640 C.ar  350  PHE350     -0.0042
     45  CE1      -64.1530  -34.6190   70.3460 C.ar  350  PHE350     -0.0003
     46  CE2      -62.7350  -36.1370   71.5300 C.ar  350  PHE350     -0.0003
     47  CZ       -63.3880  -35.7780   70.3710 C.ar  350  PHE350     -0.0000
     48  N        -62.0790  -30.5550   75.4880 N.am  351  GLU351     -0.1965
     49  CA       -62.0980  -29.7120   76.7110 C.3   351  GLU351      0.1733
     50  C        -62.7820  -28.3740   76.4420 C.2   351  GLU351      0.2617
     51  O        -62.4440  -27.6720   75.4840 O.2   351  GLU351     -0.2715
     52  CB       -60.6870  -29.4180   77.2370 C.3   351  GLU351      0.0429
     53  CG       -59.9410  -30.6270   77.7770 C.3   351  GLU351      0.1163
     54  CD       -60.3710  -31.0900   79.1660 C.2   351  GLU351      0.3649
     55  OE1      -61.1970  -30.4520   79.8470 O.co2 351  GLU351     -0.2457
     56  OE2      -59.8660  -32.1380   79.5880 O.co2 351  GLU351     -0.2457
     57  N        -63.7080  -27.9970   77.3150 N.am  352  SER352     -0.1950
     58  CA       -64.3770  -26.6890   77.1920 C.3   352  SER352      0.1924
     59  C        -63.4730  -25.6220   77.7810 C.2   352  SER352      0.2314
     60  O        -62.4300  -25.9260   78.3460 O.2   352  SER352     -0.2863
     61  CB       -65.6820  -26.6770   77.9640 C.3   352  SER352      0.2116
     62  OG       -65.4090  -26.6380   79.3750 O.3   352  SER352     -0.2180
     63  N        -72.2240  -26.9530   78.4820 N.3   372  THR372     -0.1203
     64  CA       -71.1110  -26.8260   77.5830 C.3   372  THR372      0.1994
     65  C        -71.6030  -27.0840   76.1420 C.2   372  THR372      0.2617
     66  O        -71.1570  -26.4430   75.1970 O.2   372  THR372     -0.2717
     67  CB       -69.9750  -27.7660   78.0940 C.3   372  THR372      0.1784
     68  OG1      -68.7700  -27.0190   78.2650 O.3   372  THR372     -0.2211
     69  CG2      -69.7320  -28.9720   77.2050 C.3   372  THR372      0.0376
     70  N        -72.5450  -28.0100   75.9980 N.am  373  ASN373     -0.1974
     71  CA       -73.2520  -28.2530   74.7330 C.3   373  ASN373      0.1688
     72  C        -73.8910  -26.9670   74.1820 C.2   373  ASN373      0.2292
     73  O        -73.7800  -26.6590   72.9930 O.2   373  ASN373     -0.2864
     74  CB       -74.3390  -29.3330   74.9480 C.3   373  ASN373      0.1181
     75  CG       -74.8880  -29.8940   73.6470 C.2   373  ASN373      0.2629
     76  OD1      -75.8190  -29.3450   73.0540 O.2   373  ASN373     -0.2716
     77  ND2      -74.3190  -30.9980   73.2020 N.am  373  ASN373     -0.0877
     78  N        -71.4390  -24.0290   73.0660 N.3   376  GLU376     -0.1245
     79  CA       -70.9480  -24.2840   71.7060 C.3   376  GLU376      0.1567
     80  C        -72.0410  -24.0580   70.6710 C.2   376  GLU376      0.2260
     81  O        -71.8090  -23.4480   69.6190 O.2   376  GLU376     -0.2867
     82  CB       -70.3560  -25.6970   71.5740 C.3   376  GLU376      0.0388
     83  CG       -68.8740  -25.6830   71.1960 C.3   376  GLU376      0.1160
     84  CD       -68.6030  -25.7790   69.6970 C.2   376  GLU376      0.3649
     85  OE1      -69.5020  -26.1750   68.9230 O.co2 376  GLU376     -0.2457
     86  OE2      -67.4640  -25.4670   69.2840 O.co2 376  GLU376     -0.2457
@<TRIPOS>BOND
     1     1     2    1
     2     9     7   ar
     3     2     3    1
     4     2     5    1
     5     6     7    1
     6     6     5    1
     7    10    11    1
     8     3     4    2
     9     7     8   ar
    10    15    14    1
    11    15    16    1
    12    11    14    1
    13    11    12    1
    14    13    12    2
    15    16    17    1
    16    20    18    1
    17    85    84   ar
    18    86    84   ar
    19    36    34    1
    20    17    18    2
    21    81    80    2
    22    84    83    1
    23    18    19    1
    24    45    47   ar
    25    45    43   ar
    26    47    46   ar
    27    34    33    2
    28    34    35    1
    29    33    32    1
    30    80    79    1
    31    83    82    1
    32    43    42   ar
    33    46    44   ar
    34    82    79    1
    35    32    31    1
    36    79    78    1
    37    31    30    1
    38    42    44   ar
    39    42    41    1
    40    73    72    2
    41    76    75    2
    42    77    75   am
    43    37    38    1
    44    30    27    1
    45    75    74    1
    46    38    41    1
    47    38    39    1
    48    29    28    2
    49    27    28    1
    50    27    26    1
    51    72    71    1
    52    24    23    2
    53    25    22    1
    54    71    74    1
    55    71    70    1
    56    39    48   am
    57    39    40    2
    58    66    65    2
    59    23    22    1
    60    51    50    2
    61    48    49    1
    62    22    21    1
    63    70    65   am
    64    65    64    1
    65    50    49    1
    66    50    57   am
    67    49    52    1
    68    58    57    1
    69    58    59    1
    70    58    61    1
    71    69    67    1
    72    52    53    1
    73    64    67    1
    74    64    63    1
    75    53    54    1
    76    59    60    2
    77    61    62    1
    78    67    68    1
    79    54    56   ar
    80    54    55   ar
