@<TRIPOS>MOLECULE
tmp/4m6vB01.pdb
 112 106 0 0 0
SMALL
GASTEIGER

@<TRIPOS>ATOM
      1  N        -25.1920  -35.8700   44.4440 N.3    19  PRO19      -0.2102
      2  CA       -24.2950  -34.7650   44.8430 C.3    19  PRO19       0.1504
      3  C        -24.0140  -33.6990   43.7800 C.2    19  PRO19       0.2575
      4  O        -23.8070  -32.5360   44.1160 O.2    19  PRO19      -0.2718
      5  CB       -22.9850  -35.4810   45.1900 C.3    19  PRO19       0.0282
      6  CG       -23.4100  -36.8380   45.6120 C.3    19  PRO19       0.0208
      7  CD       -24.5960  -37.1810   44.7480 C.3    19  PRO19       0.0893
      8  N        -23.9800  -34.1010   42.5210 N.am   20  GLU20      -0.1980
      9  CA       -23.7230  -33.1910   41.4240 C.3    20  GLU20       0.1602
     10  C        -24.9330  -32.3790   40.9560 C.2    20  GLU20       0.2287
     11  O        -24.7640  -31.3780   40.2510 O.2    20  GLU20      -0.2864
     12  CB       -23.1450  -33.9820   40.2460 C.3    20  GLU20       0.0415
     13  CG       -21.7300  -34.4790   40.5410 C.3    20  GLU20       0.1163
     14  CD       -20.7040  -33.3740   40.3770 C.2    20  GLU20       0.3649
     15  OE1      -20.5060  -32.9860   39.2080 O.co2  20  GLU20      -0.2457
     16  OE2      -20.1120  -32.8930   41.3790 O.co2  20  GLU20      -0.2457
     17  N        -28.2370  -29.5570   44.2510 N.3    23  ASP23      -0.1225
     18  CA       -28.2440  -28.1310   44.6020 C.3    23  ASP23       0.1805
     19  C        -28.1390  -27.1830   43.3960 C.2    23  ASP23       0.2597
     20  O        -27.9000  -25.9820   43.5610 O.2    23  ASP23      -0.2718
     21  CB       -27.1300  -27.8500   45.6110 C.3    23  ASP23       0.1424
     22  CG       -27.3390  -28.5790   46.9390 C.2    23  ASP23       0.3668
     23  OD1      -26.4250  -29.3340   47.3540 O.co2  23  ASP23      -0.2456
     24  OD2      -28.4100  -28.3960   47.5540 O.co2  23  ASP23      -0.2456
     25  N        -28.3610  -27.7240   42.1960 N.am   24  ARG24      -0.1979
     26  CA       -28.2420  -26.9780   40.9430 C.3    24  ARG24       0.1597
     27  C        -29.6020  -26.8520   40.2730 C.2    24  ARG24       0.2287
     28  O        -30.5740  -27.4530   40.7230 O.2    24  ARG24      -0.2864
     29  CB       -27.2590  -27.7150   40.0280 C.3    24  ARG24       0.0334
     30  CG       -25.9150  -27.9370   40.6980 C.3    24  ARG24       0.0492
     31  CD       -24.8120  -28.2400   39.7170 C.3    24  ARG24       0.2205
     32  NE       -24.5220  -27.1250   38.8130 N.pl3  24  ARG24      -0.0865
     33  CZ       -23.8560  -26.0230   39.1440 C.cat  24  ARG24       0.5346
     34  NH1      -23.6540  -25.0770   38.2270 N.pl3  24  ARG24       0.1354
     35  NH2      -23.3910  -25.8600   40.3790 N.pl3  24  ARG24       0.1354
     36  N        -20.0410  -29.6130   31.0950 N.3    82  ALA82      -0.1245
     37  CA       -19.0430  -30.1660   32.0390 C.3    82  ALA82       0.1562
     38  C        -18.7270  -31.6610   31.8040 C.2    82  ALA82       0.2260
     39  O        -18.2950  -32.3720   32.6950 O.2    82  ALA82      -0.2867
     40  CB       -19.5000  -29.9220   33.4800 C.3    82  ALA82       0.0290
     41  N        -20.8040  -34.0130   31.3890 N.3    84  ARG84      -0.1245
     42  CA       -21.6150  -34.8730   32.2350 C.3    84  ARG84       0.1563
     43  C        -22.5670  -35.7580   31.4360 C.2    84  ARG84       0.2260
     44  O        -23.3890  -36.4570   32.0190 O.2    84  ARG84      -0.2867
     45  CB       -22.3460  -34.0620   33.2890 C.3    84  ARG84       0.0307
     46  CG       -21.4400  -33.2910   34.2380 C.3    84  ARG84       0.0489
     47  CD       -20.5420  -34.2180   35.0190 C.3    84  ARG84       0.2205
     48  NE       -20.0550  -33.6000   36.2460 N.pl3  84  ARG84      -0.0865
     49  CZ       -18.9750  -32.8460   36.3390 C.cat  84  ARG84       0.5346
     50  NH1      -18.2000  -32.6120   35.2880 N.pl3  84  ARG84       0.1354
     51  NH2      -18.6450  -32.3450   37.5090 N.pl3  84  ARG84       0.1354
     52  N        -26.1250  -28.6560   34.7120 N.3   349  PHE349     -0.1227
     53  CA       -24.7560  -28.3870   34.3010 C.3   349  PHE349      0.1736
     54  C        -24.5860  -27.2860   33.2270 C.2   349  PHE349      0.2595
     55  O        -23.4810  -27.0970   32.7150 O.2   349  PHE349     -0.2718
     56  CB       -24.1280  -29.7160   33.8340 C.3   349  PHE349      0.0547
     57  CG       -24.3150  -30.8440   34.8160 C.ar  349  PHE349     -0.0202
     58  CD1      -23.6500  -30.8430   36.0230 C.ar  349  PHE349     -0.0042
     59  CD2      -25.1790  -31.8930   34.5410 C.ar  349  PHE349     -0.0042
     60  CE1      -23.8510  -31.8630   36.9440 C.ar  349  PHE349     -0.0003
     61  CE2      -25.3800  -32.9210   35.4450 C.ar  349  PHE349     -0.0003
     62  CZ       -24.7270  -32.9000   36.6570 C.ar  349  PHE349     -0.0000
     63  N        -25.6550  -26.5720   32.8780 N.am  350  GLU350     -0.1965
     64  CA       -25.5500  -25.3960   31.9740 C.3   350  GLU350      0.1733
     65  C        -24.6850  -24.2470   32.5630 C.2   350  GLU350      0.2617
     66  O        -24.7400  -23.9520   33.7340 O.2   350  GLU350     -0.2715
     67  CB       -26.9470  -24.8580   31.6160 C.3   350  GLU350      0.0429
     68  CG       -27.8080  -25.8210   30.7930 C.3   350  GLU350      0.1163
     69  CD       -27.3410  -25.9720   29.3430 C.2   350  GLU350      0.3649
     70  OE1      -26.4210  -25.2500   28.8990 O.co2 350  GLU350     -0.2457
     71  OE2      -27.8780  -26.8360   28.6280 O.co2 350  GLU350     -0.2457
     72  N        -23.8770  -23.5990   31.7440 N.am  351  SER351     -0.1950
     73  CA       -23.1630  -22.4260   32.2180 C.3   351  SER351      0.1924
     74  C        -24.0170  -21.2350   31.8670 C.2   351  SER351      0.2314
     75  O        -25.0920  -21.3870   31.3030 O.2   351  SER351     -0.2863
     76  CB       -21.8050  -22.3010   31.5390 C.3   351  SER351      0.2116
     77  OG       -21.9360  -21.5850   30.3100 O.3   351  SER351     -0.2180
     78  N        -15.3800  -22.8130   30.6270 N.3   371  THR371     -0.1203
     79  CA       -16.4020  -22.9110   31.6450 C.3   371  THR371      0.1994
     80  C        -15.9010  -23.5560   32.9500 C.2   371  THR371      0.2617
     81  O        -16.2950  -23.1360   34.0430 O.2   371  THR371     -0.2717
     82  CB       -17.6110  -23.6740   31.0840 C.3   371  THR371      0.1784
     83  OG1      -18.2500  -22.8640   30.0910 O.3   371  THR371     -0.2211
     84  CG2      -18.5940  -23.9430   32.1540 C.3   371  THR371      0.0376
     85  N        -15.0600  -24.5800   32.8330 N.am  372  ASN372     -0.1974
     86  CA       -14.4110  -25.1950   33.9950 C.3   372  ASN372      0.1688
     87  C        -13.6460  -24.1340   34.8060 C.2   372  ASN372      0.2292
     88  O        -13.6440  -24.1400   36.0510 O.2   372  ASN372     -0.2864
     89  CB       -13.4640  -26.3130   33.5360 C.3   372  ASN372      0.1181
     90  CG       -12.9890  -27.2040   34.6930 C.2   372  ASN372      0.2629
     91  OD1      -12.2080  -26.7830   35.5650 O.2   372  ASN372     -0.2716
     92  ND2      -13.4480  -28.4550   34.6930 N.am  372  ASN372     -0.0877
     93  N        -15.8450  -21.6700   36.6960 N.3   375  GLU375     -0.1245
     94  CA       -16.2590  -22.3220   37.9430 C.3   375  GLU375      0.1567
     95  C        -15.1660  -22.2380   39.0120 C.2   375  GLU375      0.2260
     96  O        -15.4340  -21.8340   40.1470 O.2   375  GLU375     -0.2867
     97  CB       -16.6400  -23.7900   37.6730 C.3   375  GLU375      0.0388
     98  CG       -17.1430  -24.5990   38.8680 C.3   375  GLU375      0.1160
     99  CD       -18.3710  -24.0190   39.5760 C.2   375  GLU375      0.3649
    100  OE1      -18.5910  -24.4360   40.7370 O.co2 375  GLU375     -0.2457
    101  OE2      -19.1180  -23.1820   38.9920 O.co2 375  GLU375     -0.2457
    102  N        -15.2040  -18.7640   40.3280 N.3   378  ARG378     -0.1245
    103  CA       -16.3430  -18.6090   41.2410 C.3   378  ARG378      0.1563
    104  C        -15.9670  -19.2140   42.5840 C.2   378  ARG378      0.2260
    105  O        -16.0840  -18.5610   43.6210 O.2   378  ARG378     -0.2867
    106  CB       -17.5950  -19.3130   40.6860 C.3   378  ARG378      0.0307
    107  CG       -18.8390  -19.0000   41.5530 C.3   378  ARG378      0.0489
    108  CD       -19.9610  -19.9510   41.2030 C.3   378  ARG378      0.2205
    109  NE       -19.8390  -21.2010   41.9750 N.pl3 378  ARG378     -0.0865
    110  CZ       -20.8490  -22.0910   41.9850 C.cat 378  ARG378      0.5346
    111  NH1      -21.9360  -21.8380   41.2350 N.pl3 378  ARG378      0.1354
    112  NH2      -20.7900  -23.1710   42.7600 N.pl3 378  ARG378      0.1354
@<TRIPOS>BOND
     1    71    69   ar
     2    70    69   ar
     3    69    68    1
     4    83    82    1
     5    77    76    1
     6    78    79    1
     7    68    67    1
     8    82    79    1
     9    82    84    1
    10    36    37    1
    11    75    74    2
    12    41    42    1
    13    43    44    2
    14    43    42    1
    15    76    73    1
    16    67    64    1
    17    79    80    1
    18    72    73    1
    19    72    65   am
    20    38    37    1
    21    38    39    2
    22    74    73    1
    23    64    65    1
    24    64    63    1
    25    37    40    1
    26    42    45    1
    27    65    66    2
    28    55    54    2
    29    85    80   am
    30    85    86    1
    31    63    54   am
    32    80    81    2
    33    54    53    1
    34    45    46    1
    35    89    86    1
    36    89    90    1
    37    56    53    1
    38    56    57    1
    39    86    87    1
    40    46    47    1
    41    53    52    1
    42    59    57   ar
    43    59    61   ar
    44    92    90   am
    45    90    91    2
    46    87    88    2
    47    57    58   ar
    48    47    48    1
    49    50    49    1
    50    61    62   ar
    51    58    60   ar
    52    48    49    2
    53    49    51    1
    54    62    60   ar
    55    93    94    1
    56    97    94    1
    57    97    98    1
    58    94    95    1
    59    34    33    1
    60    32    33    2
    61    32    31    1
    62    98    99    1
    63   101    99   ar
    64    95    96    2
    65    33    35    1
    66    15    14   ar
    67    99   100   ar
    68    31    30    1
    69    29    30    1
    70    29    26    1
    71    12    13    1
    72    12     9    1
    73    11    10    2
    74    27    28    2
    75    27    26    1
    76   102   103    1
    77    14    13    1
    78    14    16   ar
    79   106   103    1
    80   106   107    1
    81    26    25    1
    82    10     9    1
    83   108   107    1
    84   108   109    1
    85   111   110    1
    86   103   104    1
    87     9     8    1
    88   109   110    2
    89   110   112    1
    90    25    19   am
    91     8     3   am
    92   104   105    2
    93    19    20    2
    94    19    18    1
    95     3     4    2
    96     3     2    1
    97    17    18    1
    98     1     7    1
    99     1     2    1
   100    18    21    1
   101     7     6    1
   102     2     5    1
   103     5     6    1
   104    21    22    1
   105    22    23   ar
   106    22    24   ar
