@<TRIPOS>MOLECULE
tmp/4m6vC01.pdb
 93 88 0 0 0
SMALL
GASTEIGER

@<TRIPOS>ATOM
      1  N        -40.9280  -10.7370   77.3480 N.3    19  PRO19      -0.2102
      2  CA       -40.2910  -12.0360   77.7220 C.3    19  PRO19       0.1504
      3  C        -41.2390  -13.0070   78.4410 C.2    19  PRO19       0.2575
      4  O        -41.2080  -14.2130   78.2210 O.2    19  PRO19      -0.2718
      5  CB       -39.1510  -11.6170   78.6600 C.3    19  PRO19       0.0282
      6  CG       -38.8440  -10.2140   78.2690 C.3    19  PRO19       0.0208
      7  CD       -40.1600   -9.5920   77.8720 C.3    19  PRO19       0.0893
      8  N        -42.1230  -12.4680   79.2450 N.am   20  GLU20      -0.1980
      9  CA       -43.0920  -13.2900   79.9630 C.3    20  GLU20       0.1602
     10  C        -44.2380  -13.8550   79.1620 C.2    20  GLU20       0.2287
     11  O        -44.8810  -14.8080   79.6250 O.2    20  GLU20      -0.2864
     12  CB       -43.6510  -12.5040   81.1450 C.3    20  GLU20       0.0415
     13  CG       -42.6020  -12.2630   82.1890 C.3    20  GLU20       0.1163
     14  CD       -42.4400  -13.4880   83.0580 C.2    20  GLU20       0.3649
     15  OE1      -43.4550  -13.8620   83.7010 O.co2  20  GLU20      -0.2457
     16  OE2      -41.3300  -14.0500   83.1030 O.co2  20  GLU20      -0.2457
     17  N        -45.8640  -18.0740   75.0820 N.3    24  ARG24      -0.1245
     18  CA       -46.9410  -18.6920   75.8390 C.3    24  ARG24       0.1563
     19  C        -48.2570  -18.5470   75.0860 C.2    24  ARG24       0.2260
     20  O        -48.3440  -17.8110   74.1140 O.2    24  ARG24      -0.2867
     21  CB       -47.0210  -18.0110   77.2060 C.3    24  ARG24       0.0307
     22  CG       -45.7470  -18.1870   78.0290 C.3    24  ARG24       0.0489
     23  CD       -46.0020  -17.9890   79.4970 C.3    24  ARG24       0.2205
     24  NE       -46.0280  -19.1830   80.3550 N.pl3  24  ARG24      -0.0865
     25  CZ       -46.5100  -20.3960   80.0720 C.cat  24  ARG24       0.5346
     26  NH1      -46.4490  -21.3400   80.9910 N.pl3  24  ARG24       0.1354
     27  NH2      -47.0790  -20.6960   78.9280 N.pl3  24  ARG24       0.1354
     28  N        -50.1460  -16.9790   88.4830 N.3    85  ALA85      -0.1245
     29  CA       -48.7730  -16.6640   88.8480 C.3    85  ALA85       0.1562
     30  C        -48.5690  -15.2190   89.3160 C.2    85  ALA85       0.2260
     31  O        -47.5130  -14.6430   89.0740 O.2    85  ALA85      -0.2867
     32  CB       -47.8660  -16.9630   87.6750 C.3    85  ALA85       0.0290
     33  N        -49.5390  -12.4710   88.1780 N.3    87  ARG87      -0.1245
     34  CA       -49.1960  -11.5420   87.0920 C.3    87  ARG87       0.1563
     35  C        -50.2480  -10.4590   86.7810 C.2    87  ARG87       0.2260
     36  O        -50.1070   -9.6860   85.8340 O.2    87  ARG87      -0.2867
     37  CB       -48.8650  -12.3350   85.8320 C.3    87  ARG87       0.0307
     38  CG       -47.7030  -13.2780   85.9860 C.3    87  ARG87       0.0489
     39  CD       -46.4080  -12.5220   86.1520 C.3    87  ARG87       0.2205
     40  NE       -45.2020  -13.3320   85.8450 N.pl3  87  ARG87      -0.0865
     41  CZ       -44.6180  -14.1480   86.7090 C.cat  87  ARG87       0.5346
     42  NH1      -45.1400  -14.3220   87.9150 N.pl3  87  ARG87       0.1354
     43  NH2      -43.5260  -14.8010   86.3880 N.pl3  87  ARG87       0.1354
     44  N        -50.6340  -17.1370   81.2880 N.3   352  PHE352     -0.1227
     45  CA       -50.1980  -17.5050   82.6260 C.3   352  PHE352      0.1736
     46  C        -51.1610  -18.4690   83.2580 C.2   352  PHE352      0.2595
     47  O        -51.1000  -18.7100   84.4710 O.2   352  PHE352     -0.2718
     48  CB       -50.0460  -16.2510   83.5090 C.3   352  PHE352      0.0547
     49  CG       -49.1710  -15.1930   82.9030 C.ar  352  PHE352     -0.0202
     50  CD1      -47.8180  -15.4180   82.7170 C.ar  352  PHE352     -0.0042
     51  CD2      -49.7040  -13.9950   82.4680 C.ar  352  PHE352     -0.0042
     52  CE1      -47.0150  -14.4640   82.1150 C.ar  352  PHE352     -0.0003
     53  CE2      -48.9120  -13.0360   81.8550 C.ar  352  PHE352     -0.0003
     54  CZ       -47.5650  -13.2600   81.6790 C.ar  352  PHE352     -0.0000
     55  N        -52.0500  -19.0300   82.4460 N.am  353  GLU353     -0.1965
     56  CA       -52.9770  -20.0520   82.9220 C.3   353  GLU353      0.1733
     57  C        -52.2270  -21.3670   83.1540 C.2   353  GLU353      0.2617
     58  O        -51.3810  -21.7620   82.3630 O.2   353  GLU353     -0.2715
     59  CB       -54.1030  -20.2850   81.9000 C.3   353  GLU353      0.0429
     60  CG       -55.1320  -19.1550   81.7940 C.3   353  GLU353      0.1163
     61  CD       -56.0680  -19.0190   83.0130 C.2   353  GLU353      0.3649
     62  OE1      -56.0800  -19.8850   83.9280 O.co2 353  GLU353     -0.2457
     63  OE2      -56.8220  -18.0110   83.0440 O.co2 353  GLU353     -0.2457
     64  N        -52.5290  -22.0530   84.2440 N.am  354  SER354     -0.1950
     65  CA       -51.9340  -23.3580   84.4460 C.3   354  SER354      0.1924
     66  C        -52.8050  -24.4090   83.7870 C.2   354  SER354      0.2314
     67  O        -53.9060  -24.1210   83.3210 O.2   354  SER354     -0.2863
     68  CB       -51.8050  -23.6630   85.9170 C.3   354  SER354      0.2116
     69  OG       -53.0670  -24.0620   86.4210 O.3   354  SER354     -0.2180
     70  N        -48.9340  -24.3900   91.7120 N.3   374  THR374     -0.1203
     71  CA       -48.6440  -24.1430   90.3270 C.3   374  THR374      0.1994
     72  C        -47.1620  -23.7650   90.1090 C.2   374  THR374      0.2617
     73  O        -46.5300  -24.2550   89.2010 O.2   374  THR374     -0.2717
     74  CB       -49.5970  -23.0370   89.8390 C.3   374  THR374      0.1784
     75  OG1      -50.8200  -23.6380   89.4150 O.3   374  THR374     -0.2211
     76  CG2      -49.0410  -22.3320   88.7220 C.3   374  THR374      0.0376
     77  N        -46.6390  -22.8770   90.9450 N.am  375  ASN375     -0.1974
     78  CA       -45.2520  -22.4520   90.8770 C.3   375  ASN375      0.1688
     79  C        -44.2600  -23.6250   90.9930 C.2   375  ASN375      0.2292
     80  O        -43.3090  -23.7120   90.2100 O.2   375  ASN375     -0.2864
     81  CB       -44.9950  -21.4140   91.9710 C.3   375  ASN375      0.1181
     82  CG       -43.6060  -20.8160   91.8970 C.2   375  ASN375      0.2629
     83  OD1      -42.6200  -21.4620   92.2500 O.2   375  ASN375     -0.2716
     84  ND2      -43.5210  -19.5660   91.4510 N.am  375  ASN375     -0.0877
     85  N        -44.0900  -25.7120   87.7870 N.3   378  GLU378     -0.1245
     86  CA       -43.1040  -25.1810   86.8190 C.3   378  GLU378      0.1567
     87  C        -41.6970  -25.6020   87.1330 C.2   378  GLU378      0.2260
     88  O        -41.0070  -26.1200   86.2640 O.2   378  GLU378     -0.2867
     89  CB       -43.0710  -23.6580   86.7990 C.3   378  GLU378      0.0388
     90  CG       -43.7520  -23.0130   85.6210 C.3   378  GLU378      0.1160
     91  CD       -43.0540  -23.1800   84.2730 C.2   378  GLU378      0.3649
     92  OE1      -42.3970  -22.2190   83.8020 O.co2 378  GLU378     -0.2457
     93  OE2      -43.2090  -24.2540   83.6590 O.co2 378  GLU378     -0.2457
@<TRIPOS>BOND
     1    20    19    2
     2    17    18    1
     3    19    18    1
     4    18    21    1
     5    21    22    1
     6     1     2    1
     7     1     7    1
     8     2     3    1
     9     2     5    1
    10     7     6    1
    11    22    23    1
    12     4     3    2
    13     6     5    1
    14     3     8   am
    15    27    25    1
    16    10    11    2
    17    10     9    1
    18     8     9    1
    19    23    24    1
    20     9    12    1
    21    25    24    2
    22    25    26    1
    23    12    13    1
    24    44    45    1
    25    54    53   ar
    26    54    52   ar
    27    60    59    1
    28    60    61    1
    29    53    51   ar
    30    59    56    1
    31    52    50   ar
    32    13    14    1
    33    58    57    2
    34    55    56    1
    35    55    46   am
    36    51    49   ar
    37    45    46    1
    38    45    48    1
    39    50    49   ar
    40    49    48    1
    41    56    57    1
    42    61    63   ar
    43    61    62   ar
    44    14    16   ar
    45    14    15   ar
    46    57    64   am
    47    46    47    2
    48    67    66    2
    49    93    91   ar
    50    66    65    1
    51    92    91   ar
    52    64    65    1
    53    91    90    1
    54    65    68    1
    55    90    89    1
    56    37    38    1
    57    37    34    1
    58    36    35    2
    59    40    39    1
    60    40    41    2
    61    68    69    1
    62    38    39    1
    63    88    87    2
    64    43    41    1
    65    41    42    1
    66    35    34    1
    67    89    86    1
    68    86    87    1
    69    86    85    1
    70    34    33    1
    71    32    29    1
    72    28    29    1
    73    76    74    1
    74    29    30    1
    75    31    30    2
    76    73    72    2
    77    75    74    1
    78    74    71    1
    79    72    71    1
    80    72    77   am
    81    80    79    2
    82    71    70    1
    83    78    77    1
    84    78    79    1
    85    78    81    1
    86    84    82   am
    87    82    81    1
    88    82    83    2
