@<TRIPOS>MOLECULE
tmp/4m6vD00.pdb
 138 134 0 0 0
SMALL
GASTEIGER

@<TRIPOS>ATOM
      1  N        -59.5010  -48.8770   58.7520 N.3     9  TYR9       -0.1241
      2  CA       -59.7960  -47.7490   59.6100 C.3     9  TYR9        0.1605
      3  C        -58.5230  -46.9770   59.9410 C.2     9  TYR9        0.2264
      4  O        -58.4580  -45.7620   59.7590 O.2     9  TYR9       -0.2867
      5  CB       -60.4730  -48.1610   60.9240 C.3     9  TYR9        0.0534
      6  CG       -60.6930  -46.9460   61.8040 C.ar    9  TYR9       -0.0201
      7  CD1      -61.7450  -46.0730   61.5490 C.ar    9  TYR9       -0.0009
      8  CD2      -59.7990  -46.6120   62.8130 C.ar    9  TYR9       -0.0009
      9  CE1      -61.9400  -44.9320   62.3030 C.ar    9  TYR9        0.0417
     10  CE2      -59.9820  -45.4680   63.5800 C.ar    9  TYR9        0.0417
     11  CZ       -61.0590  -44.6240   63.3070 C.ar    9  TYR9        0.1957
     12  OH       -61.2790  -43.4820   64.0440 O.3     9  TYR9       -0.2866
     13  N        -57.3880  -45.0380   57.1950 N.3    12  ASP12      -0.1225
     14  CA       -58.3160  -43.9500   56.8630 C.3    12  ASP12       0.1805
     15  C        -58.1370  -42.7520   57.8090 C.2    12  ASP12       0.2597
     16  O        -58.1700  -41.5990   57.3760 O.2    12  ASP12      -0.2718
     17  CB       -59.7730  -44.4270   56.9210 C.3    12  ASP12       0.1424
     18  CG       -60.6780  -43.6420   55.9970 C.2    12  ASP12       0.3668
     19  OD1      -60.4100  -42.4420   55.7520 O.co2  12  ASP12      -0.2456
     20  OD2      -61.6630  -44.2250   55.5020 O.co2  12  ASP12      -0.2456
     21  N        -57.9420  -43.0350   59.0870 N.am   13  VAL13      -0.1980
     22  CA       -57.7740  -41.9770   60.0750 C.3    13  VAL13       0.1595
     23  C        -56.3480  -41.4050   60.0970 C.2    13  VAL13       0.2287
     24  O        -56.1720  -40.2320   60.3890 O.2    13  VAL13      -0.2864
     25  CB       -58.1840  -42.4530   61.4910 C.3    13  VAL13       0.0276
     26  CG1      -57.1820  -43.4360   62.0600 C.3    13  VAL13       0.0022
     27  CG2      -58.3490  -41.2690   62.4260 C.3    13  VAL13       0.0022
     28  N        -56.4780  -39.0890   56.9570 N.3    16  ASN16      -0.1225
     29  CA       -57.4870  -38.0090   56.9320 C.3    16  ASN16       0.1785
     30  C        -57.8340  -37.3890   58.2950 C.2    16  ASN16       0.2598
     31  O        -58.6430  -36.4600   58.3610 O.2    16  ASN16      -0.2718
     32  CB       -58.7870  -38.5460   56.3100 C.3    16  ASN16       0.1169
     33  CG       -58.5670  -39.1820   54.9470 C.2    16  ASN16       0.2627
     34  OD1      -58.8380  -40.3700   54.7300 O.2    16  ASN16      -0.2716
     35  ND2      -58.0650  -38.3870   54.0200 N.am   16  ASN16      -0.0877
     36  N        -57.2640  -37.9100   59.3830 N.am   17  GLY17      -0.1942
     37  CA       -57.6880  -37.5190   60.7380 C.3    17  GLY17       0.2014
     38  C        -59.1110  -37.9670   61.0590 C.2    17  GLY17       0.2639
     39  O        -59.8320  -38.4830   60.2030 O.2    17  GLY17      -0.2714
     40  N        -59.5210  -37.7850   62.3040 N.am   18  HIS18      -0.1959
     41  CA       -60.8910  -38.0400   62.6930 C.3    18  HIS18       0.1772
     42  C        -61.6600  -36.7230   62.6060 C.2    18  HIS18       0.2462
     43  O        -61.1710  -35.6990   63.0840 O.2    18  HIS18      -0.2730
     44  CB       -60.9070  -38.5610   64.1130 C.3    18  HIS18       0.0785
     45  CG       -62.1950  -39.2070   64.5030 C.ar   18  HIS18       0.0821
     46  ND1      -63.3350  -38.4830   64.7620 N.ar   18  HIS18      -0.2267
     47  CD2      -62.5210  -40.5050   64.7050 C.ar   18  HIS18       0.1154
     48  CE1      -64.3120  -39.3050   65.1040 C.ar   18  HIS18       0.1986
     49  NE2      -63.8420  -40.5390   65.0860 N.ar   18  HIS18      -0.2212
     50  N        -62.8710  -36.7340   62.0200 N.am   19  PRO19      -0.2716
     51  CA       -63.5910  -35.4480   61.8300 C.3    19  PRO19       0.1536
     52  C        -63.8710  -34.6750   63.1450 C.2    19  PRO19       0.2598
     53  O        -63.8270  -33.4450   63.1800 O.2    19  PRO19      -0.2715
     54  CB       -64.9080  -35.8670   61.1380 C.3    19  PRO19       0.0310
     55  CG       -64.6790  -37.2500   60.6250 C.3    19  PRO19       0.0237
     56  CD       -63.6360  -37.8870   61.5090 C.3    19  PRO19       0.0939
     57  N        -64.1400  -35.4070   64.2110 N.am   20  GLU20      -0.1978
     58  CA       -64.3640  -34.8290   65.5330 C.3    20  GLU20       0.1602
     59  C        -63.1210  -34.2750   66.1980 C.2    20  GLU20       0.2287
     60  O        -63.2460  -33.4180   67.0560 O.2    20  GLU20      -0.2864
     61  CB       -64.9810  -35.8690   66.4740 C.3    20  GLU20       0.0415
     62  CG       -66.3950  -36.2600   66.1010 C.3    20  GLU20       0.1163
     63  CD       -67.3650  -35.1210   66.3420 C.2    20  GLU20       0.3649
     64  OE1      -67.5730  -34.7730   67.5310 O.co2  20  GLU20      -0.2457
     65  OE2      -67.9000  -34.5910   65.3540 O.co2  20  GLU20      -0.2457
     66  N        -72.2620  -44.4370   69.2400 N.3   120  MET120     -0.1230
     67  CA       -72.4070  -44.8700   67.8540 C.3   120  MET120      0.1702
     68  C        -72.0630  -43.7710   66.8510 C.2   120  MET120      0.2592
     69  O        -71.2690  -43.9760   65.9250 O.2   120  MET120     -0.2718
     70  CB       -73.8270  -45.3700   67.6060 C.3   120  MET120      0.0401
     71  CG       -74.1010  -46.7280   68.2320 C.3   120  MET120      0.0596
     72  SD       -75.7620  -47.3370   67.8820 S.3   120  MET120     -0.1393
     73  CE       -76.7270  -46.2120   68.8800 C.3   120  MET120      0.0692
     74  N        -72.6700  -42.6050   67.0440 N.am  121  ARG121     -0.1966
     75  CA       -72.6100  -41.5210   66.0650 C.3   121  ARG121      0.1729
     76  C        -71.2240  -40.8900   65.9560 C.2   121  ARG121      0.2616
     77  O        -70.7600  -40.5690   64.8550 O.2   121  ARG121     -0.2715
     78  CB       -73.6220  -40.4380   66.4450 C.3   121  ARG121      0.0348
     79  CG       -73.7240  -39.3010   65.4450 C.3   121  ARG121      0.0492
     80  CD       -74.6560  -38.2010   65.9180 C.3   121  ARG121      0.2205
     81  NE       -74.6830  -37.1450   64.9020 N.pl3 121  ARG121     -0.0865
     82  CZ       -75.1870  -35.9200   65.0580 C.cat 121  ARG121      0.5346
     83  NH1      -75.1250  -35.0670   64.0430 N.pl3 121  ARG121      0.1354
     84  NH2      -75.7350  -35.5390   66.2100 N.pl3 121  ARG121      0.1354
     85  N        -70.5810  -40.6930   67.1010 N.am  122  PHE122     -0.1974
     86  CA       -69.3270  -39.9650   67.1580 C.3   122  PHE122      0.1639
     87  C        -68.1060  -40.8290   67.4680 C.2   122  PHE122      0.2290
     88  O        -67.0110  -40.4540   67.0650 O.2   122  PHE122     -0.2864
     89  CB       -69.4110  -38.8040   68.1750 C.3   122  PHE122      0.0560
     90  CG       -70.3670  -37.6960   67.7810 C.ar  122  PHE122     -0.0200
     91  CD1      -70.1800  -36.9670   66.6170 C.ar  122  PHE122     -0.0042
     92  CD2      -71.4320  -37.3450   68.6150 C.ar  122  PHE122     -0.0042
     93  CE1      -71.0450  -35.9370   66.2750 C.ar  122  PHE122     -0.0003
     94  CE2      -72.2980  -36.3190   68.2740 C.ar  122  PHE122     -0.0003
     95  CZ       -72.1040  -35.6200   67.1030 C.ar  122  PHE122     -0.0000
     96  N        -68.0100  -44.4350   66.7790 N.3   124  THR124     -0.1218
     97  CA       -68.0190  -45.6900   66.0290 C.3   124  THR124      0.1862
     98  C        -67.9800  -46.9410   66.9460 C.2   124  THR124      0.2287
     99  O        -67.2970  -47.9320   66.6240 O.2   124  THR124     -0.2866
    100  CB       -66.7930  -45.7870   65.0960 C.3   124  THR124      0.1770
    101  OG1      -66.4180  -44.4970   64.6310 O.3   124  THR124     -0.2211
    102  CG2      -67.0780  -46.6840   63.9050 C.3   124  THR124      0.0375
    103  N        -76.5560  -46.0370   60.2900 N.3   518  ASP518     -0.1239
    104  CA       -75.2490  -45.5460   59.8670 C.3   518  ASP518      0.1674
    105  C        -74.1130  -46.2550   60.6110 C.2   518  ASP518      0.2266
    106  O        -73.1200  -46.6590   60.0010 O.2   518  ASP518     -0.2867
    107  CB       -75.1600  -44.0320   60.0490 C.3   518  ASP518      0.1410
    108  CG       -76.1400  -43.2690   59.1520 C.2   518  ASP518      0.3668
    109  OD1      -76.5950  -43.8160   58.1270 O.co2 518  ASP518     -0.2456
    110  OD2      -76.4560  -42.1070   59.4700 O.co2 518  ASP518     -0.2456
    111  N        -71.0340  -48.5280   59.0860 N.3   522  ALA522     -0.1245
    112  CA       -69.6530  -48.1470   59.3630 C.3   522  ALA522      0.1562
    113  C        -68.9120  -49.2730   60.0650 C.2   522  ALA522      0.2260
    114  O        -67.7160  -49.4610   59.8380 O.2   522  ALA522     -0.2867
    115  CB       -69.6100  -46.8860   60.2080 C.3   522  ALA522      0.0290
    116  N        -65.4750  -50.8130   58.8140 N.3   526  TYR526     -0.1241
    117  CA       -64.2460  -50.5910   59.5650 C.3   526  TYR526      0.1605
    118  C        -63.9360  -51.6220   60.6460 C.2   526  TYR526      0.2264
    119  O        -62.8190  -51.6410   61.1610 O.2   526  TYR526     -0.2867
    120  CB       -64.2780  -49.1960   60.1800 C.3   526  TYR526      0.0534
    121  CG       -64.1830  -48.0910   59.1670 C.ar  526  TYR526     -0.0201
    122  CD1      -63.0050  -47.8600   58.5040 C.ar  526  TYR526     -0.0009
    123  CD2      -65.2660  -47.2640   58.8980 C.ar  526  TYR526     -0.0009
    124  CE1      -62.8970  -46.8470   57.5740 C.ar  526  TYR526      0.0417
    125  CE2      -65.1730  -46.2390   57.9730 C.ar  526  TYR526      0.0417
    126  CZ       -63.9800  -46.0370   57.3140 C.ar  526  TYR526      0.1957
    127  OH       -63.8420  -45.0340   56.3880 O.3   526  TYR526     -0.2866
    128  N        -59.5540  -37.7330   51.5090 N.3   591  ARG591     -0.1245
    129  CA       -60.7840  -36.9760   51.7380 C.3   591  ARG591      0.1563
    130  C        -60.5990  -35.4610   51.7230 C.2   591  ARG591      0.2260
    131  O        -61.5860  -34.7280   51.7740 O.2   591  ARG591     -0.2867
    132  CB       -61.4090  -37.4060   53.0730 C.3   591  ARG591      0.0307
    133  CG       -61.6700  -38.9030   53.1360 C.3   591  ARG591      0.0489
    134  CD       -62.3260  -39.3340   54.4270 C.3   591  ARG591      0.2205
    135  NE       -62.5080  -40.7780   54.4360 N.pl3 591  ARG591     -0.0865
    136  CZ       -63.5480  -41.4340   53.9240 C.cat 591  ARG591      0.5346
    137  NH1      -64.5610  -40.7930   53.3440 N.pl3 591  ARG591      0.1354
    138  NH2      -63.5710  -42.7610   53.9880 N.pl3 591  ARG591      0.1354
@<TRIPOS>BOND
     1   128   129    1
     2   130   129    1
     3   130   131    2
     4   129   132    1
     5   132   133    1
     6   133   134    1
     7   137   136    1
     8   136   138    1
     9   136   135    2
    10    35    33   am
    11   134   135    1
    12    34    33    2
    13    33    32    1
    14    20    18   ar
    15    19    18   ar
    16    18    17    1
    17    32    29    1
    18   127   126    1
    19    14    17    1
    20    14    13    1
    21    14    15    1
    22    29    28    1
    23    29    30    1
    24   126   124   ar
    25   126   125   ar
    26    16    15    2
    27   124   122   ar
    28    15    21   am
    29   125   123   ar
    30   109   108   ar
    31    30    31    2
    32    30    36   am
    33   122   121   ar
    34     1     2    1
    35   116   117    1
    36   123   121   ar
    37   111   112    1
    38    21    22    1
    39   108   110   ar
    40   108   107    1
    41   121   120    1
    42   112   113    1
    43   112   115    1
    44    36    37    1
    45   117   120    1
    46   117   118    1
    47     2     3    1
    48     2     5    1
    49     4     3    2
    50   114   113    2
    51   104   107    1
    52   104   103    1
    53   104   105    1
    54   106   105    2
    55    22    23    1
    56    22    25    1
    57    23    24    2
    58    39    38    2
    59    55    54    1
    60    55    56    1
    61   118   119    2
    62    37    38    1
    63     5     6    1
    64    38    40   am
    65    54    51    1
    66    25    26    1
    67    25    27    1
    68    56    50    1
    69     7     6   ar
    70     7     9   ar
    71     6     8   ar
    72    51    50    1
    73    51    52    1
    74    50    42   am
    75     9    11   ar
    76    40    41    1
    77    42    41    1
    78    42    43    2
    79    41    44    1
    80     8    10   ar
    81    52    53    2
    82    52    57   am
    83    11    10   ar
    84    11    12    1
    85   102   100    1
    86    83    82    1
    87    44    45    1
    88    57    58    1
    89    45    47   ar
    90    45    46   ar
    91   101   100    1
    92    47    49   ar
    93    46    48   ar
    94    77    76    2
    95    81    82    2
    96    81    80    1
    97    82    84    1
    98    49    48   ar
    99   100    97    1
   100    65    63   ar
   101    79    80    1
   102    79    78    1
   103    58    59    1
   104    58    61    1
   105    69    68    2
   106    76    75    1
   107    76    85   am
   108    97    96    1
   109    97    98    1
   110    75    78    1
   111    75    74    1
   112    62    63    1
   113    62    61    1
   114    59    60    2
   115    93    91   ar
   116    93    95   ar
   117    63    64   ar
   118    91    90   ar
   119    99    98    2
   120    68    74   am
   121    68    67    1
   122    88    87    2
   123    85    86    1
   124    95    94   ar
   125    86    87    1
   126    86    89    1
   127    70    67    1
   128    70    71    1
   129    90    89    1
   130    90    92   ar
   131    67    66    1
   132    72    71    1
   133    72    73    1
   134    94    92   ar
