@<TRIPOS>MOLECULE
tmp/4m6xA00.pdb
 184 175 0 0 0
SMALL
GASTEIGER

@<TRIPOS>ATOM
      1  N          1.5270  -11.8940   48.6950 N.3   134  ILE134     -0.1245
      2  CA         0.9350  -11.4320   49.9630 C.3   134  ILE134      0.1561
      3  C          2.0310  -10.8680   50.8770 C.2   134  ILE134      0.2260
      4  O          1.8470   -9.8390   51.5270 O.2   134  ILE134     -0.2867
      5  CB         0.1890  -12.5600   50.7110 C.3   134  ILE134      0.0252
      6  CG1       -1.0480  -12.9890   49.9330 C.3   134  ILE134      0.0019
      7  CG2       -0.2470  -12.1010   52.1130 C.3   134  ILE134      0.0019
      8  CD1       -1.5190  -14.3770   50.3260 C.3   134  ILE134      0.0001
      9  N          2.2130   -7.2040   52.4410 N.3   138  CYS138     -0.1221
     10  CA         2.1110   -7.0570   53.8990 C.3   138  CYS138      0.1808
     11  C          3.2530   -6.2460   54.5070 C.2   138  CYS138      0.2601
     12  O          3.0520   -5.5730   55.5120 O.2   138  CYS138     -0.2717
     13  CB         1.9840   -8.4320   54.5950 C.3   138  CYS138      0.0970
     14  SG         0.3620   -9.2320   54.3380 S.3   138  CYS138     -0.0800
     15  N          4.4310   -6.2720   53.8910 N.am  139  ARG139     -0.1979
     16  CA         5.5450   -5.4730   54.3810 C.3   139  ARG139      0.1597
     17  C          5.1430   -4.0160   54.4200 C.2   139  ARG139      0.2287
     18  O          5.3410   -3.3430   55.4320 O.2   139  ARG139     -0.2864
     19  CB         6.8030   -5.6570   53.5140 C.3   139  ARG139      0.0334
     20  CG         7.8270   -4.5270   53.6310 C.3   139  ARG139      0.0492
     21  CD         9.1740   -4.8460   52.9760 C.3   139  ARG139      0.2205
     22  NE        10.1310   -5.4580   53.9130 N.pl3 139  ARG139     -0.0865
     23  CZ        10.3440   -6.7730   54.0740 C.cat 139  ARG139      0.5346
     24  NH1        9.6760   -7.6880   53.3620 N.pl3 139  ARG139      0.1354
     25  NH2       11.2450   -7.1800   54.9670 N.pl3 139  ARG139      0.1354
     26  N          2.1290   -3.3520   56.8210 N.3   142  SER142     -0.1217
     27  CA         2.6520   -3.2480   58.1880 C.3   142  SER142      0.1889
     28  C          3.2900   -1.8870   58.4670 C.2   142  SER142      0.2288
     29  O          3.0010   -1.2530   59.4760 O.2   142  SER142     -0.2866
     30  CB         3.6960   -4.3330   58.4560 C.3   142  SER142      0.2089
     31  OG         3.9790   -4.3640   59.8400 O.3   142  SER142     -0.2183
     32  N          7.5720  -12.7130   68.8240 N.3   166  ASP166     -0.1225
     33  CA         6.6620  -12.1950   67.8240 C.3   166  ASP166      0.1805
     34  C          5.8870  -13.3680   67.2240 C.2   166  ASP166      0.2598
     35  O          6.4780  -14.2960   66.6950 O.2   166  ASP166     -0.2718
     36  CB         7.4600  -11.4320   66.7570 C.3   166  ASP166      0.1424
     37  CG         6.5760  -10.7560   65.7240 C.2   166  ASP166      0.3668
     38  OD1        5.4460  -10.3500   66.0680 O.co2 166  ASP166     -0.2456
     39  OD2        7.0190  -10.6290   64.5560 O.co2 166  ASP166     -0.2456
     40  N          4.5620  -13.3120   67.3130 N.am  167  LEU167     -0.1966
     41  CA         3.6890  -14.3740   66.8410 C.3   167  LEU167      0.1728
     42  C          3.1960  -14.1170   65.4050 C.2   167  LEU167      0.2617
     43  O          2.4540  -13.1680   65.1570 O.2   167  LEU167     -0.2715
     44  CB         2.4800  -14.4960   67.7660 C.3   167  LEU167      0.0311
     45  CG         2.8240  -14.6060   69.2390 C.3   167  LEU167      0.0022
     46  CD1        1.5420  -14.5550   70.0460 C.3   167  LEU167      0.0001
     47  CD2        3.5870  -15.8930   69.5070 C.3   167  LEU167      0.0001
     48  N          3.5480  -15.0320   64.5020 N.am  168  GLY168     -0.1940
     49  CA         3.3120  -14.8920   63.0690 C.3   168  GLY168      0.2014
     50  C          4.3820  -13.9710   62.5320 C.2   168  GLY168      0.2640
     51  O          4.0670  -12.9510   61.9520 O.2   168  GLY168     -0.2714
     52  N          5.6510  -14.3270   62.7430 N.am  169  SER169     -0.1935
     53  CA         6.7760  -13.4120   62.4830 C.3   169  SER169      0.2055
     54  C          6.9930  -13.0320   61.0060 C.2   169  SER169      0.2644
     55  O          7.6470  -12.0200   60.7280 O.2   169  SER169     -0.2714
     56  CB         8.0910  -13.9550   63.0820 C.3   169  SER169      0.2130
     57  OG         8.0810  -15.3700   63.2490 O.3   169  SER169     -0.2179
     58  N          6.4330  -13.8220   60.0810 N.am  170  GLY170     -0.1939
     59  CA         6.5670  -13.5650   58.6380 C.3   170  GLY170      0.2014
     60  C          8.0310  -13.4080   58.1990 C.2   170  GLY170      0.2639
     61  O          8.8430  -14.3190   58.3660 O.2   170  GLY170     -0.2714
     62  N          8.3640  -12.2370   57.6680 N.am  171  SER171     -0.1949
     63  CA         9.7030  -11.9480   57.1490 C.3   171  SER171      0.1924
     64  C         10.7440  -11.7790   58.2510 C.2   171  SER171      0.2314
     65  O         11.9610  -11.7910   57.9900 O.2   171  SER171     -0.2863
     66  CB         9.6530  -10.6540   56.3240 C.3   171  SER171      0.2116
     67  OG         9.2740   -9.5390   57.1310 O.3   171  SER171     -0.2180
     68  N         10.9670   -8.9730   59.8960 N.3   173  GLU173     -0.1231
     69  CA        11.3510   -7.5660   59.9020 C.3   173  GLU173      0.1699
     70  C         10.9920   -6.8820   61.2130 C.2   173  GLU173      0.2592
     71  O         11.7910   -6.0890   61.7190 O.2   173  GLU173     -0.2718
     72  CB        10.7290   -6.8000   58.7180 C.3   173  GLU173      0.0402
     73  CG        11.3380   -5.4140   58.4640 C.3   173  GLU173      0.1161
     74  CD        12.8240   -5.4580   58.0800 C.2   173  GLU173      0.3649
     75  OE1       13.3210   -6.5480   57.7290 O.co2 173  GLU173     -0.2457
     76  OE2       13.5040   -4.4000   58.1280 O.co2 173  GLU173     -0.2457
     77  N          9.8100   -7.1840   61.7650 N.am  174  ARG174     -0.1980
     78  CA         9.4060   -6.5990   63.0460 C.3   174  ARG174      0.1597
     79  C         10.4650   -6.8670   64.1260 C.2   174  ARG174      0.2287
     80  O         10.9360   -5.9240   64.7950 O.2   174  ARG174     -0.2864
     81  CB         8.0290   -7.1130   63.4850 C.3   174  ARG174      0.0334
     82  CG         7.4710   -6.4410   64.7280 C.3   174  ARG174      0.0492
     83  CD         6.0270   -6.8720   64.9900 C.3   174  ARG174      0.2205
     84  NE         5.1810   -6.6450   63.8100 N.pl3 174  ARG174     -0.0865
     85  CZ         4.7200   -5.4640   63.4240 C.cat 174  ARG174      0.5346
     86  NH1        4.9910   -4.3670   64.1150 N.pl3 174  ARG174      0.1354
     87  NH2        3.9760   -5.3750   62.3400 N.pl3 174  ARG174      0.1354
     88  N          7.8310  -16.8190   65.8630 N.3   190  VAL190     -0.1231
     89  CA         7.0290  -18.0310   65.8040 C.3   190  VAL190      0.1692
     90  C          6.1560  -17.9140   64.5650 C.2   190  VAL190      0.2592
     91  O          5.4440  -16.9150   64.3970 O.2   190  VAL190     -0.2718
     92  CB         6.1170  -18.1690   67.0450 C.3   190  VAL190      0.0266
     93  CG1        5.1100  -19.3020   66.8790 C.3   190  VAL190      0.0020
     94  CG2        6.9400  -18.3660   68.3020 C.3   190  VAL190      0.0020
     95  N          6.2030  -18.9300   63.7050 N.am  191  ASP191     -0.1960
     96  CA         5.4080  -18.9360   62.4830 C.3   191  ASP191      0.1840
     97  C          5.0090  -20.3650   62.1330 C.2   191  ASP191      0.2622
     98  O          5.7870  -21.3030   62.3460 O.2   191  ASP191     -0.2715
     99  CB         6.1970  -18.2760   61.3380 C.3   191  ASP191      0.1450
    100  CG         5.2940  -17.7310   60.2450 C.2   191  ASP191      0.3671
    101  OD1        4.7240  -18.5500   59.5130 O.co2 191  ASP191     -0.2456
    102  OD2        5.1500  -16.4930   60.1100 O.co2 191  ASP191     -0.2456
    103  N          3.7930  -20.5210   61.6070 N.am  192  ILE192     -0.1963
    104  CA         3.2440  -21.8290   61.2710 C.3   192  ILE192      0.1727
    105  C          3.6820  -22.3100   59.8750 C.2   192  ILE192      0.2616
    106  O          3.3960  -23.4450   59.5190 O.2   192  ILE192     -0.2715
    107  CB         1.6910  -21.8180   61.3640 C.3   192  ILE192      0.0290
    108  CG1        1.1480  -23.2370   61.5480 C.3   192  ILE192      0.0022
    109  CG2        1.0460  -21.1570   60.1340 C.3   192  ILE192      0.0023
    110  CD1       -0.3440  -23.2910   61.8140 C.3   192  ILE192      0.0001
    111  N          4.3790  -21.4700   59.1010 N.am  193  ALA193     -0.1977
    112  CA         4.7320  -21.7860   57.6940 C.3   193  ALA193      0.1597
    113  C          6.2520  -21.8430   57.3920 C.2   193  ALA193      0.2287
    114  O          7.0100  -20.9510   57.7970 O.2   193  ALA193     -0.2864
    115  CB         4.0600  -20.7860   56.7630 C.3   193  ALA193      0.0319
    116  N          8.0000  -18.8890   55.5300 N.3   196  ALA196     -0.1245
    117  CA         8.1670  -17.7300   56.3980 C.3   196  ALA196      0.1562
    118  C          9.4460  -17.8960   57.2090 C.2   196  ALA196      0.2260
    119  O         10.3370  -17.0410   57.1750 O.2   196  ALA196     -0.2867
    120  CB         6.9530  -17.5580   57.3080 C.3   196  ALA196      0.0290
    121  N          5.7840  -23.2530   64.4240 N.3   218  GLY218     -0.1210
    122  CA         4.7740  -23.6640   65.3820 C.3   218  GLY218      0.1956
    123  C          3.4720  -22.9320   65.1470 C.2   218  GLY218      0.2612
    124  O          3.4320  -21.9040   64.4690 O.2   218  GLY218     -0.2717
    125  N          2.4060  -23.4780   65.7130 N.am  219  ASP219     -0.1959
    126  CA         1.0930  -22.8760   65.6500 C.3   219  ASP219      0.1840
    127  C          0.9050  -22.0540   66.9210 C.2   219  ASP219      0.2622
    128  O          0.9470  -22.5980   68.0260 O.2   219  ASP219     -0.2715
    129  CB         0.0440  -23.9870   65.5630 C.3   219  ASP219      0.1450
    130  CG        -1.3200  -23.4870   65.1480 C.2   219  ASP219      0.3671
    131  OD1       -1.5350  -22.2550   65.1050 O.co2 219  ASP219     -0.2456
    132  OD2       -2.1890  -24.3430   64.8620 O.co2 219  ASP219     -0.2456
    133  N          0.6880  -20.7510   66.7810 N.am  220  ALA220     -0.1963
    134  CA         0.5180  -19.8930   67.9500 C.3   220  ALA220      0.1728
    135  C         -0.7580  -20.2240   68.7230 C.2   220  ALA220      0.2616
    136  O         -0.8830  -19.8830   69.9010 O.2   220  ALA220     -0.2715
    137  CB         0.5100  -18.4340   67.5330 C.3   220  ALA220      0.0334
    138  N         -1.7110  -20.8720   68.0560 N.am  221  ARG221     -0.1977
    139  CA        -2.9770  -21.2400   68.6800 C.3   221  ARG221      0.1597
    140  C         -2.7800  -22.3860   69.6550 C.2   221  ARG221      0.2287
    141  O         -3.5320  -22.5280   70.6190 O.2   221  ARG221     -0.2864
    142  CB        -4.0000  -21.6400   67.6170 C.3   221  ARG221      0.0334
    143  CG        -4.3360  -20.5380   66.6350 C.3   221  ARG221      0.0492
    144  CD        -5.1480  -21.0730   65.4680 C.3   221  ARG221      0.2205
    145  NE        -4.3840  -22.0080   64.6440 N.pl3 221  ARG221     -0.0865
    146  CZ        -4.8840  -22.6890   63.6120 C.cat 221  ARG221      0.5346
    147  NH1       -6.1570  -22.5460   63.2530 N.pl3 221  ARG221      0.1354
    148  NH2       -4.1060  -23.5210   62.9280 N.pl3 221  ARG221      0.1354
    149  N          0.9480   -9.2200   65.1120 N.3   241  PHE241     -0.1227
    150  CA         0.4080   -8.3040   64.1260 C.3   241  PHE241      0.1736
    151  C         -0.1680   -8.9880   62.8770 C.2   241  PHE241      0.2595
    152  O          0.4580   -9.8650   62.2640 O.2   241  PHE241     -0.2718
    153  CB         1.4660   -7.2770   63.7520 C.3   241  PHE241      0.0547
    154  CG         1.5660   -6.1470   64.7430 C.ar  241  PHE241     -0.0202
    155  CD1        2.1650   -6.3410   65.9820 C.ar  241  PHE241     -0.0042
    156  CD2        1.0610   -4.8970   64.4430 C.ar  241  PHE241     -0.0042
    157  CE1        2.2560   -5.3090   66.8970 C.ar  241  PHE241     -0.0003
    158  CE2        1.1460   -3.8570   65.3510 C.ar  241  PHE241     -0.0003
    159  CZ         1.7360   -4.0650   66.5860 C.ar  241  PHE241     -0.0000
    160  N         -1.3910   -8.5800   62.5410 N.am  242  MET242     -0.1965
    161  CA        -2.0690   -8.9520   61.3000 C.3   242  MET242      0.1736
    162  C         -2.5090  -10.4150   61.2330 C.2   242  MET242      0.2616
    163  O         -2.8040  -10.9220   60.1470 O.2   242  MET242     -0.2715
    164  CB        -1.2310   -8.5250   60.0760 C.3   242  MET242      0.0427
    165  CG        -1.1430   -6.9970   59.9450 C.3   242  MET242      0.0599
    166  SD         0.0330   -6.3880   58.7080 S.3   242  MET242     -0.1393
    167  CE         1.4940   -6.4640   59.7080 C.3   242  MET242      0.0692
    168  N         -2.6130  -11.0790   62.3880 N.am  243  MET243     -0.1977
    169  CA        -2.9850  -12.5030   62.4030 C.3   243  MET243      0.1605
    170  C         -3.9120  -12.9310   63.5430 C.2   243  MET243      0.2287
    171  O         -4.3510  -14.0850   63.5770 O.2   243  MET243     -0.2864
    172  CB        -1.7210  -13.3690   62.4320 C.3   243  MET243      0.0413
    173  CG        -0.9920  -13.3760   63.7700 C.3   243  MET243      0.0598
    174  SD        -0.1950  -14.9550   64.1480 S.3   243  MET243     -0.1393
    175  CE        -1.6070  -16.0440   64.3150 C.3   243  MET243      0.0692
    176  N         -7.0230  -15.2130   63.3900 N.3   246  GLU246     -0.1245
    177  CA        -6.8300  -16.6610   63.2380 C.3   246  GLU246      0.1567
    178  C         -7.0800  -17.4260   64.5700 C.2   246  GLU246      0.2260
    179  O         -7.3170  -18.6250   64.5610 O.2   246  GLU246     -0.2867
    180  CB        -5.4110  -16.9500   62.7160 C.3   246  GLU246      0.0388
    181  CG        -5.3350  -17.8640   61.4960 C.3   246  GLU246      0.1160
    182  CD        -5.4080  -17.1330   60.1640 C.2   246  GLU246      0.3649
    183  OE1       -4.4770  -16.3620   59.8180 O.co2 246  GLU246     -0.2457
    184  OE2       -6.4010  -17.3510   59.4480 O.co2 246  GLU246     -0.2457
@<TRIPOS>BOND
     1     1     2    1
     2     6     8    1
     3     6     5    1
     4     2     5    1
     5     2     3    1
     6     5     7    1
     7     3     4    2
     8     9    10    1
     9    21    20    1
    10    21    22    1
    11    24    23    1
    12    19    20    1
    13    19    16    1
    14    15    16    1
    15    15    11   am
    16    10    11    1
    17    10    13    1
    18    22    23    2
    19    23    25    1
    20    14    13    1
    21    16    17    1
    22    17    18    2
    23    11    12    2
    24   116   117    1
    25    66    67    1
    26    66    63    1
    27   117   118    1
    28   117   120    1
    29   115   112    1
    30    26    27    1
    31    63    62    1
    32    63    64    1
    33   119   118    2
    34   113   112    1
    35   113   114    2
    36    62    60   am
    37   112   111    1
    38    75    74   ar
    39    65    64    2
    40    74    76   ar
    41    74    73    1
    42    27    30    1
    43    27    28    1
    44    60    61    2
    45    60    59    1
    46    30    31    1
    47    73    72    1
    48    28    29    2
    49    59    58    1
    50   166   167    1
    51   166   165    1
    52    72    69    1
    53   111   105   am
    54   184   182   ar
    55   101   100   ar
    56   106   105    2
    57   183   182   ar
    58   105   104    1
    59    68    69    1
    60    69    70    1
    61   165   164    1
    62   164   161    1
    63    58    54   am
    64   102   100   ar
    65   109   107    1
    66   163   162    2
    67   182   181    1
    68   100    99    1
    69    55    54    2
    70    54    53    1
    71    70    71    2
    72    70    77   am
    73   162   161    1
    74   162   168   am
    75   104   107    1
    76   104   103    1
    77   161   160    1
    78    99    96    1
    79   107   108    1
    80   181   180    1
    81   108   110    1
    82   103    97   am
    83    77    78    1
    84    51    50    2
    85    97    98    2
    86    97    96    1
    87   152   151    2
    88    87    85    1
    89   168   169    1
    90   169   172    1
    91   169   170    1
    92   172   173    1
    93    96    95    1
    94    53    52    1
    95    53    56    1
    96    50    52   am
    97    50    49    1
    98   160   151   am
    99   180   177    1
   100   151   150    1
   101   148   146    1
   102    78    81    1
   103    78    79    1
   104    49    48    1
   105    56    57    1
   106   177   176    1
   107   177   178    1
   108   147   146    1
   109    85    84    2
   110    85    86    1
   111    81    82    1
   112   170   171    2
   113   146   145    2
   114    95    90   am
   115   153   150    1
   116   153   154    1
   117   173   174    1
   118    84    83    1
   119    79    80    2
   120   150   149    1
   121   174   175    1
   122    91    90    2
   123   121   122    1
   124   156   154   ar
   125   156   158   ar
   126   124   123    2
   127    48    42   am
   128    39    37   ar
   129   179   178    2
   130    90    89    1
   131   145   144    1
   132    82    83    1
   133   154   155   ar
   134   132   130   ar
   135   131   130   ar
   136   123   122    1
   137   123   125   am
   138   130   129    1
   139    43    42    2
   140   158   159   ar
   141    42    41    1
   142   144   143    1
   143   129   126    1
   144   126   125    1
   145   126   127    1
   146    37    38   ar
   147    37    36    1
   148    89    88    1
   149    89    92    1
   150   155   157   ar
   151   159   157   ar
   152   143   142    1
   153    35    34    2
   154    36    33    1
   155   133   127   am
   156   133   134    1
   157    41    40    1
   158    41    44    1
   159    93    92    1
   160   127   128    2
   161    92    94    1
   162    34    40   am
   163    34    33    1
   164   137   134    1
   165   142   139    1
   166    44    45    1
   167    33    32    1
   168   134   135    1
   169   138   139    1
   170   138   135   am
   171   139   140    1
   172   135   136    2
   173    45    47    1
   174    45    46    1
   175   140   141    2
