@<TRIPOS>MOLECULE
tmp/4m6xA01.pdb
 137 130 0 0 0
SMALL
GASTEIGER

@<TRIPOS>ATOM
      1  N         -2.4900   -6.3580   47.4320 N.3   101  TRP101     -0.1241
      2  CA        -3.0730   -7.4200   48.2160 C.3   101  TRP101      0.1605
      3  C         -4.3180   -7.9740   47.5270 C.2   101  TRP101      0.2264
      4  O         -4.4650   -9.1950   47.3770 O.2   101  TRP101     -0.2867
      5  CB        -3.4440   -6.9210   49.6150 C.3   101  TRP101      0.0550
      6  CG        -4.0520   -7.9580   50.4530 C.ar  101  TRP101      0.0003
      7  CD1       -3.3890   -8.8500   51.2390 C.ar  101  TRP101      0.0946
      8  CD2       -5.4410   -8.2670   50.5920 C.ar  101  TRP101      0.0152
      9  NE1       -4.2710   -9.6800   51.8730 N.ar  101  TRP101     -0.2442
     10  CE2       -5.5380   -9.3540   51.4930 C.ar  101  TRP101      0.0810
     11  CE3       -6.6170   -7.7280   50.0550 C.ar  101  TRP101      0.0012
     12  CZ2       -6.7650   -9.9070   51.8810 C.ar  101  TRP101      0.0191
     13  CZ3       -7.8330   -8.2810   50.4300 C.ar  101  TRP101      0.0001
     14  CH2       -7.9000   -9.3660   51.3290 C.ar  101  TRP101      0.0015
     15  N         -3.8060  -18.8970   46.8550 N.3   129  ARG129     -0.1245
     16  CA        -3.3030  -17.5220   46.7990 C.3   129  ARG129      0.1563
     17  C         -1.7850  -17.4930   46.5580 C.2   129  ARG129      0.2260
     18  O         -1.1220  -18.5330   46.5900 O.2   129  ARG129     -0.2867
     19  CB        -3.6290  -16.7650   48.0840 C.3   129  ARG129      0.0307
     20  CG        -5.1140  -16.6500   48.3910 C.3   129  ARG129      0.0489
     21  CD        -5.3590  -16.3690   49.8700 C.3   129  ARG129      0.2205
     22  NE        -5.4590  -14.9470   50.1600 N.pl3 129  ARG129     -0.0865
     23  CZ        -5.1500  -14.3870   51.3270 C.cat 129  ARG129      0.5346
     24  NH1       -4.7030  -15.1200   52.3490 N.pl3 129  ARG129      0.1354
     25  NH2       -5.2900  -13.0720   51.4720 N.pl3 129  ARG129      0.1354
     26  N          1.5270  -11.8940   48.6950 N.3   134  ILE134     -0.1245
     27  CA         0.9350  -11.4320   49.9630 C.3   134  ILE134      0.1561
     28  C          2.0310  -10.8680   50.8770 C.2   134  ILE134      0.2260
     29  O          1.8470   -9.8390   51.5270 O.2   134  ILE134     -0.2867
     30  CB         0.1890  -12.5600   50.7110 C.3   134  ILE134      0.0252
     31  CG1       -1.0480  -12.9890   49.9330 C.3   134  ILE134      0.0019
     32  CG2       -0.2470  -12.1010   52.1130 C.3   134  ILE134      0.0019
     33  CD1       -1.5190  -14.3770   50.3260 C.3   134  ILE134      0.0001
     34  N          2.2130   -7.2040   52.4410 N.3   138  CYS138     -0.1235
     35  CA         2.1110   -7.0570   53.8990 C.3   138  CYS138      0.1677
     36  C          3.2530   -6.2460   54.5070 C.2   138  CYS138      0.2270
     37  O          3.0520   -5.5730   55.5120 O.2   138  CYS138     -0.2867
     38  CB         1.9840   -8.4320   54.5950 C.3   138  CYS138      0.0956
     39  SG         0.3620   -9.2320   54.3380 S.3   138  CYS138     -0.0801
     40  N          1.9570   -2.8950   54.0630 N.3   141  ILE141     -0.1245
     41  CA         0.7730   -2.7250   54.8840 C.3   141  ILE141      0.1561
     42  C          1.2190   -2.5010   56.3530 C.2   141  ILE141      0.2260
     43  O          0.7660   -1.5510   57.0230 O.2   141  ILE141     -0.2867
     44  CB        -0.2320   -3.8800   54.7780 C.3   141  ILE141      0.0252
     45  CG1       -0.8910   -3.9020   53.3820 C.3   141  ILE141      0.0019
     46  CG2       -1.3040   -3.7090   55.8420 C.3   141  ILE141      0.0019
     47  CD1       -1.7730   -5.1190   53.1110 C.3   141  ILE141      0.0001
     48  N          0.3520    0.1920   60.2700 N.3   146  PHE146     -0.1241
     49  CA         0.5130   -0.2860   61.6450 C.3   146  PHE146      0.1605
     50  C          1.6840    0.3050   62.4380 C.2   146  PHE146      0.2264
     51  O          1.6150    0.3630   63.6640 O.2   146  PHE146     -0.2867
     52  CB         0.5940   -1.8120   61.6500 C.3   146  PHE146      0.0534
     53  CG        -0.7450   -2.4810   61.5190 C.ar  146  PHE146     -0.0203
     54  CD1       -1.6120   -2.5570   62.6140 C.ar  146  PHE146     -0.0042
     55  CD2       -1.1630   -3.0170   60.2970 C.ar  146  PHE146     -0.0042
     56  CE1       -2.8600   -3.1600   62.4870 C.ar  146  PHE146     -0.0003
     57  CE2       -2.4090   -3.6090   60.1740 C.ar  146  PHE146     -0.0003
     58  CZ        -3.2540   -3.6710   61.2650 C.ar  146  PHE146     -0.0000
     59  N         -1.3910   -8.5800   62.5410 N.3   242  MET242     -0.1245
     60  CA        -2.0690   -8.9520   61.3000 C.3   242  MET242      0.1570
     61  C         -2.5090  -10.4150   61.2330 C.2   242  MET242      0.2261
     62  O         -2.8040  -10.9220   60.1470 O.2   242  MET242     -0.2867
     63  CB        -1.2310   -8.5250   60.0760 C.3   242  MET242      0.0387
     64  CG        -1.1430   -6.9970   59.9450 C.3   242  MET242      0.0595
     65  SD         0.0330   -6.3880   58.7080 S.3   242  MET242     -0.1393
     66  CE         1.4940   -6.4640   59.7080 C.3   242  MET242      0.0692
     67  N         -6.9700  -12.5280   64.2290 N.3   245  HIS245     -0.1241
     68  CA        -8.2620  -13.1250   63.8150 C.3   245  HIS245      0.1621
     69  C         -8.2110  -14.6720   63.6120 C.2   245  HIS245      0.2264
     70  O         -9.2310  -15.3440   63.7040 O.2   245  HIS245     -0.2867
     71  CB        -8.8460  -12.4110   62.5860 C.3   245  HIS245      0.0745
     72  CG        -7.9620  -12.4550   61.3750 C.ar  245  HIS245      0.0817
     73  ND1       -6.9150  -11.5760   61.1770 N.ar  245  HIS245     -0.2268
     74  CD2       -7.9590  -13.2830   60.3060 C.ar  245  HIS245      0.1154
     75  CE1       -6.3060  -11.8580   60.0430 C.ar  245  HIS245      0.1986
     76  NE2       -6.9230  -12.8890   59.4930 N.ar  245  HIS245     -0.2212
     77  N         -4.3550   -5.7820   64.6390 N.3   274  ASP274     -0.1225
     78  CA        -5.1000   -6.4740   63.5840 C.3   274  ASP274      0.1805
     79  C         -6.2010   -5.6080   62.9930 C.2   274  ASP274      0.2597
     80  O         -6.5760   -4.6110   63.5810 O.2   274  ASP274     -0.2718
     81  CB        -5.7210   -7.7620   64.1400 C.3   274  ASP274      0.1424
     82  CG        -5.9250   -8.8270   63.0760 C.2   274  ASP274      0.3668
     83  OD1       -5.3980   -8.6830   61.9410 O.co2 274  ASP274     -0.2456
     84  OD2       -6.6210   -9.8130   63.4030 O.co2 274  ASP274     -0.2456
     85  N         -6.6900   -6.0090   61.8210 N.am  275  ALA275     -0.1979
     86  CA        -7.9030   -5.4610   61.2100 C.3   275  ALA275      0.1597
     87  C         -9.1120   -6.2320   61.7310 C.2   275  ALA275      0.2287
     88  O         -8.9900   -7.3800   62.1090 O.2   275  ALA275     -0.2864
     89  CB        -7.8110   -5.5620   59.7020 C.3   275  ALA275      0.0319
     90  N        -10.4900   -1.3370   51.0680 N.3   289  PHE289     -0.1241
     91  CA       -10.0630   -2.5290   51.8060 C.3   289  PHE289      0.1605
     92  C        -11.1820   -3.3080   52.5150 C.2   289  PHE289      0.2264
     93  O        -11.2470   -4.5350   52.3730 O.2   289  PHE289     -0.2867
     94  CB        -8.9630   -2.1980   52.7970 C.3   289  PHE289      0.0534
     95  CG        -8.2490   -3.4050   53.3330 C.ar  289  PHE289     -0.0203
     96  CD1       -7.6460   -4.3130   52.4710 C.ar  289  PHE289     -0.0042
     97  CD2       -8.1600   -3.6310   54.7060 C.ar  289  PHE289     -0.0042
     98  CE1       -6.9790   -5.4230   52.9640 C.ar  289  PHE289     -0.0003
     99  CE2       -7.4910   -4.7470   55.2050 C.ar  289  PHE289     -0.0003
    100  CZ        -6.9070   -5.6450   54.3320 C.ar  289  PHE289     -0.0000
    101  N        -11.2440   -7.3860   52.4590 N.3   293  PHE293     -0.1241
    102  CA       -10.8860   -8.0730   53.7030 C.3   293  PHE293      0.1605
    103  C        -11.9980   -8.9990   54.2300 C.2   293  PHE293      0.2264
    104  O        -11.7590  -10.1640   54.5410 O.2   293  PHE293     -0.2867
    105  CB       -10.5080   -7.0270   54.7620 C.3   293  PHE293      0.0534
    106  CG        -9.9470   -7.6160   56.0270 C.ar  293  PHE293     -0.0203
    107  CD1       -8.7140   -8.2340   56.0220 C.ar  293  PHE293     -0.0042
    108  CD2      -10.6480   -7.5380   57.2170 C.ar  293  PHE293     -0.0042
    109  CE1       -8.1870   -8.7730   57.1670 C.ar  293  PHE293     -0.0003
    110  CE2      -10.1200   -8.0620   58.3780 C.ar  293  PHE293     -0.0003
    111  CZ        -8.8910   -8.7000   58.3490 C.ar  293  PHE293     -0.0000
    112  N        -12.1900  -13.1440   53.6310 N.3   297  HIS297     -0.1241
    113  CA       -12.2130  -14.0870   54.7580 C.3   297  HIS297      0.1621
    114  C        -13.4560  -14.9460   54.7970 C.2   297  HIS297      0.2264
    115  O        -13.3610  -16.1290   55.0690 O.2   297  HIS297     -0.2867
    116  CB       -11.9570  -13.3800   56.0800 C.3   297  HIS297      0.0745
    117  CG       -10.5290  -13.0130   56.2390 C.ar  297  HIS297      0.0817
    118  ND1       -9.9950  -11.8680   55.6940 N.ar  297  HIS297     -0.2268
    119  CD2       -9.4950  -13.6970   56.7750 C.ar  297  HIS297      0.1154
    120  CE1       -8.6950  -11.8480   55.9220 C.ar  297  HIS297      0.1986
    121  NE2       -8.3720  -12.9440   56.5830 N.ar  297  HIS297     -0.2212
    122  N        -12.7060  -17.6770   52.4840 N.3   300  MET300     -0.1245
    123  CA       -11.7520  -18.6700   52.9790 C.3   300  MET300      0.1570
    124  C        -12.3100  -19.4560   54.1610 C.2   300  MET300      0.2261
    125  O        -11.6930  -20.4060   54.5970 O.2   300  MET300     -0.2867
    126  CB       -10.3980  -18.0280   53.3340 C.3   300  MET300      0.0387
    127  CG        -9.6740  -17.4400   52.1190 C.3   300  MET300      0.0595
    128  SD        -8.0880  -16.6290   52.4920 S.3   300  MET300     -0.1393
    129  CE        -8.6090  -15.0040   53.0140 C.3   300  MET300      0.0692
    130  N         -7.4290    1.5680   57.7040 N.3   330  LEU330     -0.1245
    131  CA        -7.3040    0.3120   57.0660 C.3   330  LEU330      0.1561
    132  C         -8.5620   -0.3730   57.5540 C.2   330  LEU330      0.2260
    133  O         -8.4980   -1.2640   58.4230 O.2   330  LEU330     -0.2867
    134  CB        -6.0450   -0.3660   57.5960 C.3   330  LEU330      0.0270
    135  CG        -5.7270   -1.7550   57.0950 C.3   330  LEU330      0.0019
    136  CD1       -5.4810   -1.7140   55.6020 C.3   330  LEU330      0.0001
    137  CD2       -4.5230   -2.2760   57.8480 C.3   330  LEU330      0.0001
@<TRIPOS>BOND
     1    17    18    2
     2    17    16    1
     3    16    15    1
     4    16    19    1
     5     4     3    2
     6     1     2    1
     7     3     2    1
     8    19    20    1
     9     2     5    1
    10    20    21    1
    11    26    27    1
    12     5     6    1
    13    21    22    1
    14    31    33    1
    15    31    30    1
    16    27    30    1
    17    27    28    1
    18    11    13   ar
    19    11     8   ar
    20    22    23    2
    21    13    14   ar
    22     6     8   ar
    23     6     7   ar
    24     8    10   ar
    25    30    32    1
    26    28    29    2
    27    90    91    1
    28     7     9   ar
    29    23    25    1
    30    23    24    1
    31    14    12   ar
    32    10     9   ar
    33    10    12   ar
    34    91    92    1
    35    91    94    1
    36   127   128    1
    37   127   126    1
    38    93    92    2
    39    34    35    1
    40   101   102    1
    41    96    98   ar
    42    96    95   ar
    43   122   123    1
    44   128   129    1
    45    94    95    1
    46    98   100   ar
    47   123   126    1
    48   123   124    1
    49    47    45    1
    50    95    97   ar
    51    45    44    1
    52   112   113    1
    53   102   103    1
    54   102   105    1
    55    35    36    1
    56    35    38    1
    57    40    41    1
    58   124   125    2
    59   103   104    2
    60   100    99   ar
    61    39    38    1
    62    36    37    2
    63    97    99   ar
    64   113   114    1
    65   113   116    1
    66   105   106    1
    67    44    41    1
    68    44    46    1
    69   114   115    2
    70    41    42    1
    71   136   135    1
    72   118   120   ar
    73   118   117   ar
    74   120   121   ar
    75   107   106   ar
    76   107   109   ar
    77   106   108   ar
    78   116   117    1
    79   117   119   ar
    80    42    43    2
    81   121   119   ar
    82   131   132    1
    83   131   134    1
    84   131   130    1
    85   135   134    1
    86   135   137    1
    87   109   111   ar
    88   108   110   ar
    89   132   133    2
    90   111   110   ar
    91    65    66    1
    92    65    64    1
    93    76    75   ar
    94    76    74   ar
    95    89    86    1
    96    64    63    1
    97    75    73   ar
    98    63    60    1
    99    62    61    2
   100    57    55   ar
   101    57    58   ar
   102    48    49    1
   103    55    53   ar
   104    74    72   ar
   105    73    72   ar
   106    86    87    1
   107    86    85    1
   108    61    60    1
   109    58    56   ar
   110    60    59    1
   111    72    71    1
   112    53    52    1
   113    53    54   ar
   114    49    52    1
   115    49    50    1
   116    87    88    2
   117    85    79   am
   118    83    82   ar
   119    50    51    2
   120    56    54   ar
   121    71    68    1
   122    79    80    2
   123    79    78    1
   124    82    84   ar
   125    82    81    1
   126    78    81    1
   127    78    77    1
   128    69    70    2
   129    69    68    1
   130    68    67    1
