@<TRIPOS>MOLECULE
tmp/4m73A01.pdb
 142 135 0 0 0
SMALL
GASTEIGER

@<TRIPOS>ATOM
      1  N        -13.7560   13.5380  -31.2860 N.3    94  TRP94      -0.1241
      2  CA       -12.6040   13.5130  -30.4390 C.3    94  TRP94       0.1605
      3  C        -11.5430   12.6310  -31.0560 C.2    94  TRP94       0.2264
      4  O        -10.3560   12.9520  -31.0760 O.2    94  TRP94      -0.2867
      5  CB       -12.9930   12.9930  -29.0200 C.3    94  TRP94       0.0550
      6  CG       -11.8810   12.7720  -28.1190 C.ar   94  TRP94       0.0003
      7  CD1      -11.3490   13.6630  -27.2210 C.ar   94  TRP94       0.0946
      8  CD2      -11.1410   11.5610  -27.9600 C.ar   94  TRP94       0.0152
      9  NE1      -10.2760   13.1180  -26.5790 N.ar   94  TRP94      -0.2442
     10  CE2      -10.1150   11.8250  -27.0110 C.ar   94  TRP94       0.0810
     11  CE3      -11.2010   10.3060  -28.5710 C.ar   94  TRP94       0.0012
     12  CZ2       -9.1950   10.8570  -26.6120 C.ar   94  TRP94       0.0191
     13  CZ3      -10.2440    9.3470  -28.2260 C.ar   94  TRP94       0.0001
     14  CH2       -9.2340    9.6420  -27.2650 C.ar   94  TRP94       0.0015
     15  N         -1.9470   17.2730  -30.8990 N.3   122  LEU122     -0.1245
     16  CA        -3.4110   17.2610  -30.8490 C.3   122  LEU122      0.1561
     17  C         -3.9760   18.5520  -31.4150 C.2   122  LEU122      0.2260
     18  O         -3.2900   19.5360  -31.5260 O.2   122  LEU122     -0.2867
     19  CB        -3.8890   17.1330  -29.4310 C.3   122  LEU122      0.0270
     20  CG        -3.4110   15.9050  -28.6970 C.3   122  LEU122      0.0019
     21  CD1       -3.9930   15.9690  -27.2970 C.3   122  LEU122      0.0001
     22  CD2       -3.8160   14.6150  -29.3670 C.3   122  LEU122      0.0001
     23  N        -10.5660   19.4270  -29.8970 N.3   127  ILE127     -0.1245
     24  CA       -10.7620   18.6740  -28.6310 C.3   127  ILE127      0.1561
     25  C        -11.7320   19.4330  -27.7500 C.2   127  ILE127      0.2260
     26  O        -12.6890   18.8360  -27.1530 O.2   127  ILE127     -0.2867
     27  CB        -9.4270   18.5620  -27.8160 C.3   127  ILE127      0.0252
     28  CG1       -8.3000   17.7970  -28.5690 C.3   127  ILE127      0.0019
     29  CG2       -9.6770   17.9720  -26.4310 C.3   127  ILE127      0.0019
     30  CD1       -8.4380   16.3070  -28.5750 C.3   127  ILE127      0.0001
     31  N        -15.1450   18.1250  -26.3540 N.3   131  CYS131     -0.1235
     32  CA       -15.3090   18.0690  -24.8680 C.3   131  CYS131      0.1677
     33  C        -16.5500   18.8350  -24.3690 C.2   131  CYS131      0.2270
     34  O        -17.2680   18.3580  -23.4810 O.2   131  CYS131     -0.2867
     35  CB       -14.0120   18.4810  -24.1470 C.3   131  CYS131      0.0956
     36  SG       -12.7630   17.1340  -24.1010 S.3   131  CYS131     -0.0801
     37  N        -19.1830   16.3690  -24.7790 N.3   134  ILE134     -0.1245
     38  CA       -18.9110   15.1490  -23.9670 C.3   134  ILE134      0.1561
     39  C        -19.3210   15.5170  -22.5390 C.2   134  ILE134      0.2260
     40  O        -19.9930   14.7620  -21.8680 O.2   134  ILE134     -0.2867
     41  CB       -17.4460   14.6860  -23.9900 C.3   134  ILE134      0.0252
     42  CG1      -17.0450   14.1740  -25.3790 C.3   134  ILE134      0.0019
     43  CG2      -17.2290   13.5180  -23.0210 C.3   134  ILE134      0.0019
     44  CD1      -15.5740   13.8050  -25.5270 C.3   134  ILE134      0.0001
     45  N        -21.6640   13.6310  -18.7100 N.3   139  PHE139     -0.1241
     46  CA       -21.4280   13.9500  -17.3050 C.3   139  PHE139      0.1605
     47  C        -22.5370   14.7720  -16.6660 C.2   139  PHE139      0.2264
     48  O        -22.6890   14.7220  -15.4620 O.2   139  PHE139     -0.2867
     49  CB       -20.0930   14.6610  -17.1160 C.3   139  PHE139      0.0534
     50  CG       -18.8880   13.7160  -17.1900 C.ar  139  PHE139     -0.0203
     51  CD1      -18.4990   12.9390  -16.0940 C.ar  139  PHE139     -0.0042
     52  CD2      -18.1880   13.5830  -18.3820 C.ar  139  PHE139     -0.0042
     53  CE1      -17.4030   12.0790  -16.2200 C.ar  139  PHE139     -0.0003
     54  CE2      -17.1190   12.7020  -18.5030 C.ar  139  PHE139     -0.0003
     55  CZ       -16.7570   11.9360  -17.3950 C.ar  139  PHE139     -0.0000
     56  N        -13.1750   15.8640  -15.9920 N.3   235  MET235     -0.1230
     57  CA       -12.4890   15.3560  -17.1490 C.3   235  MET235      0.1702
     58  C        -10.9650   15.6350  -17.1420 C.2   235  MET235      0.2592
     59  O        -10.3540   15.6150  -18.1800 O.2   235  MET235     -0.2718
     60  CB       -13.1740   15.8720  -18.4400 C.3   235  MET235      0.0401
     61  CG       -14.6490   15.3700  -18.5620 C.3   235  MET235      0.0596
     62  SD       -15.4720   15.9680  -20.0790 S.3   235  MET235     -0.1393
     63  CE       -15.2700   17.6570  -19.9490 C.3   235  MET235      0.0692
     64  N        -10.3760   15.8600  -16.0060 N.am  236  MET236     -0.1979
     65  CA        -8.9130   16.0830  -15.9690 C.3   236  MET236      0.1605
     66  C         -8.1960   15.3680  -14.8400 C.2   236  MET236      0.2287
     67  O         -6.9710   15.3850  -14.8180 O.2   236  MET236     -0.2864
     68  CB        -8.6010   17.5850  -15.9240 C.3   236  MET236      0.0413
     69  CG        -8.9690   18.1800  -14.5790 C.3   236  MET236      0.0598
     70  SD        -7.8060   19.3870  -14.0280 S.3   236  MET236     -0.1393
     71  CE        -6.4060   18.3840  -13.6810 C.3   236  MET236      0.0692
     72  N         -7.3260   12.3960  -14.0840 N.3   238  HIS238     -0.1241
     73  CA        -6.3280   11.4640  -14.4070 C.3   238  HIS238      0.1621
     74  C         -4.9430   12.1340  -14.5030 C.2   238  HIS238      0.2264
     75  O         -3.9520   11.4810  -14.2490 O.2   238  HIS238     -0.2867
     76  CB        -6.6710   10.6540  -15.6550 C.3   238  HIS238      0.0745
     77  CG        -6.8200   11.4390  -16.9220 C.ar  238  HIS238      0.0817
     78  ND1       -8.0440   11.8920  -17.3570 N.ar  238  HIS238     -0.2268
     79  CD2       -5.9270   11.7530  -17.8910 C.ar  238  HIS238      0.1154
     80  CE1       -7.8940   12.4860  -18.5330 C.ar  238  HIS238      0.1986
     81  NE2       -6.6210   12.3900  -18.8910 N.ar  238  HIS238     -0.2212
     82  N        -14.4960   11.7890  -14.0340 N.3   267  ASP267     -0.1225
     83  CA       -13.5480   11.4490  -15.0590 C.3   267  ASP267      0.1805
     84  C        -13.8730   10.1250  -15.6840 C.2   267  ASP267      0.2597
     85  O        -14.6830    9.3590  -15.1560 O.2   267  ASP267     -0.2718
     86  CB       -12.1100   11.4390  -14.5130 C.3   267  ASP267      0.1424
     87  CG       -11.0540   11.7930  -15.5830 C.2   267  ASP267      0.3668
     88  OD1      -11.3820   12.0780  -16.7610 O.co2 267  ASP267     -0.2456
     89  OD2       -9.8680   11.7780  -15.2020 O.co2 267  ASP267     -0.2456
     90  N        -13.2340    9.8720  -16.8210 N.am  268  ALA268     -0.1979
     91  CA       -13.2320    8.5860  -17.4220 C.3   268  ALA268      0.1597
     92  C        -12.0150    7.8050  -16.8840 C.2   268  ALA268      0.2287
     93  O        -10.9960    8.4320  -16.4920 O.2   268  ALA268     -0.2864
     94  CB       -13.1330    8.7570  -18.8920 C.3   268  ALA268      0.0319
     95  N        -15.2940    4.4290  -27.6030 N.3   282  PHE282     -0.1241
     96  CA       -14.3670    5.2680  -26.8430 C.3   282  PHE282      0.1605
     97  C        -13.2410    4.5660  -26.1240 C.2   282  PHE282      0.2264
     98  O        -12.1590    5.0800  -26.1320 O.2   282  PHE282     -0.2867
     99  CB       -15.1110    6.1440  -25.8520 C.3   282  PHE282      0.0534
    100  CG       -14.3210    7.2920  -25.2960 C.ar  282  PHE282     -0.0203
    101  CD1      -13.7500    8.2260  -26.1160 C.ar  282  PHE282     -0.0042
    102  CD2      -14.1850    7.4380  -23.9270 C.ar  282  PHE282     -0.0042
    103  CE1      -13.0810    9.3340  -25.5560 C.ar  282  PHE282     -0.0003
    104  CE2      -13.4930    8.5120  -23.3600 C.ar  282  PHE282     -0.0003
    105  CZ       -12.9420    9.4430  -24.2000 C.ar  282  PHE282     -0.0000
    106  N         -9.3730    6.1170  -25.9460 N.3   286  PHE286     -0.1241
    107  CA        -8.9850    6.8610  -24.7400 C.3   286  PHE286      0.1605
    108  C         -7.7380    6.2160  -24.1310 C.2   286  PHE286      0.2264
    109  O         -6.7510    6.8820  -23.8680 O.2   286  PHE286     -0.2867
    110  CB       -10.1410    6.8220  -23.7340 C.3   286  PHE286      0.0534
    111  CG        -9.9480    7.7620  -22.5620 C.ar  286  PHE286     -0.0203
    112  CD1       -9.7850    9.1180  -22.7670 C.ar  286  PHE286     -0.0042
    113  CD2       -9.9520    7.2780  -21.3080 C.ar  286  PHE286     -0.0042
    114  CE1       -9.6300    9.9770  -21.6930 C.ar  286  PHE286     -0.0003
    115  CE2       -9.8090    8.1090  -20.1940 C.ar  286  PHE286     -0.0003
    116  CZ        -9.6430    9.4560  -20.4050 C.ar  286  PHE286     -0.0000
    117  N         -3.8780    7.6150  -24.5230 N.3   290  HIS290     -0.1241
    118  CA        -3.0610    7.9880  -23.3000 C.3   290  HIS290      0.1621
    119  C         -1.7570    7.1800  -23.2220 C.2   290  HIS290      0.2264
    120  O         -0.7290    7.7480  -22.8880 O.2   290  HIS290     -0.2867
    121  CB        -3.8620    7.8870  -22.0070 C.3   290  HIS290      0.0745
    122  CG        -4.7510    9.0640  -21.8330 C.ar  290  HIS290      0.0817
    123  ND1       -5.8280    9.2710  -22.6600 N.ar  290  HIS290     -0.2268
    124  CD2       -4.6290   10.1810  -21.0850 C.ar  290  HIS290      0.1154
    125  CE1       -6.3700   10.4500  -22.4040 C.ar  290  HIS290      0.1986
    126  NE2       -5.6660   11.0190  -21.4390 N.ar  290  HIS290     -0.2212
    127  N          0.5650    8.7780  -25.6960 N.3   293  MET293     -0.1245
    128  CA         1.0430   10.0320  -25.1550 C.3   293  MET293      0.1570
    129  C          1.9430    9.8490  -23.9450 C.2   293  MET293      0.2261
    130  O          2.4550   10.8270  -23.4550 O.2   293  MET293     -0.2867
    131  CB        -0.1360   10.9960  -24.8010 C.3   293  MET293      0.0387
    132  CG        -0.8650   11.4650  -26.0340 C.3   293  MET293      0.0595
    133  SD        -2.2220   12.5940  -25.7110 S.3   293  MET293     -0.1393
    134  CE        -3.4170   11.5190  -24.9800 C.3   293  MET293      0.0692
    135  N        -19.7500    5.9590  -21.4430 N.3   323  LEU323     -0.1245
    136  CA       -18.5060    6.6580  -21.7470 C.3   323  LEU323      0.1561
    137  C        -17.3760    5.8050  -21.2310 C.2   323  LEU323      0.2260
    138  O        -16.7530    6.1370  -20.1780 O.2   323  LEU323     -0.2867
    139  CB       -18.5460    8.0850  -21.1890 C.3   323  LEU323      0.0270
    140  CG       -17.2870    8.8440  -21.6130 C.3   323  LEU323      0.0019
    141  CD1      -17.2790    9.1140  -23.0970 C.3   323  LEU323      0.0001
    142  CD2      -17.1670   10.1620  -20.9230 C.3   323  LEU323      0.0001
@<TRIPOS>BOND
     1    18    17    2
     2    17    16    1
     3     1     2    1
     4     4     3    2
     5     3     2    1
     6    15    16    1
     7    16    19    1
     8     2     5    1
     9    23    24    1
    10    19    20    1
    11    22    20    1
    12     5     6    1
    13    20    21    1
    14    24    27    1
    15    24    25    1
    16    30    28    1
    17    11    13   ar
    18    11     8   ar
    19    28    27    1
    20    13    14   ar
    21     6     8   ar
    22     6     7   ar
    23     8    10   ar
    24    27    29    1
    25    25    26    2
    26    95    96    1
    27    14    12   ar
    28     7     9   ar
    29    10    12   ar
    30    10     9   ar
    31    96    97    1
    32    96    99    1
    33    31    32    1
    34    98    97    2
    35   101   103   ar
    36   101   100   ar
    37   132   133    1
    38   132   131    1
    39   106   107    1
    40    99   100    1
    41   133   134    1
    42   127   128    1
    43   103   105   ar
    44    44    42    1
    45    42    41    1
    46   100   102   ar
    47   128   131    1
    48   128   129    1
    49    32    33    1
    50    32    35    1
    51    37    38    1
    52   107   108    1
    53   107   110    1
    54   117   118    1
    55    33    34    2
    56   105   104   ar
    57    35    36    1
    58   108   109    2
    59    41    38    1
    60    41    43    1
    61    38    39    1
    62   129   130    2
    63   102   104   ar
    64   110   111    1
    65   118   119    1
    66   118   121    1
    67   119   120    2
    68   141   140    1
    69   112   111   ar
    70   112   114   ar
    71   123   125   ar
    72   123   122   ar
    73   111   113   ar
    74    39    40    2
    75   125   126   ar
    76   121   122    1
    77   122   124   ar
    78   136   135    1
    79   136   137    1
    80   136   139    1
    81   114   116   ar
    82   140   139    1
    83   140   142    1
    84   126   124   ar
    85   113   115   ar
    86   137   138    2
    87   116   115   ar
    88    62    63    1
    89    62    61    1
    90    94    91    1
    91    81    80   ar
    92    81    79   ar
    93    45    46    1
    94    61    60    1
    95    80    78   ar
    96    54    52   ar
    97    54    55   ar
    98    60    57    1
    99    52    50   ar
   100    59    58    2
   101    79    77   ar
   102    91    92    1
   103    91    90    1
   104    55    53   ar
   105    78    77   ar
   106    46    49    1
   107    46    47    1
   108    50    49    1
   109    50    51   ar
   110    57    58    1
   111    57    56    1
   112    58    64   am
   113    77    76    1
   114    92    93    2
   115    90    84   am
   116    88    87   ar
   117    47    48    2
   118    53    51   ar
   119    64    65    1
   120    65    68    1
   121    65    66    1
   122    68    69    1
   123    84    85    2
   124    84    83    1
   125    76    73    1
   126    87    89   ar
   127    87    86    1
   128    83    86    1
   129    83    82    1
   130    66    67    2
   131    69    70    1
   132    74    73    1
   133    74    75    2
   134    73    72    1
   135    70    71    1
