@<TRIPOS>MOLECULE
tmp/4m74A01.pdb
 134 128 0 0 0
SMALL
GASTEIGER

@<TRIPOS>ATOM
      1  N         15.0600  -13.3300  -31.4010 N.3    95  TRP95      -0.1241
      2  CA        13.8750  -13.3510  -30.5420 C.3    95  TRP95       0.1605
      3  C         12.7000  -12.6250  -31.1830 C.2    95  TRP95       0.2264
      4  O         11.5760  -13.1020  -31.1550 O.2    95  TRP95      -0.2867
      5  CB        14.2030  -12.6820  -29.2050 C.3    95  TRP95       0.0550
      6  CG        13.0430  -12.4780  -28.3040 C.ar   95  TRP95       0.0003
      7  CD1       12.5450  -13.3820  -27.4460 C.ar   95  TRP95       0.0946
      8  CD2       12.2420  -11.3050  -28.1490 C.ar   95  TRP95       0.0152
      9  NE1       11.4810  -12.8610  -26.7470 N.ar   95  TRP95      -0.2442
     10  CE2       11.2560  -11.5960  -27.1810 C.ar   95  TRP95       0.0810
     11  CE3       12.2420  -10.0400  -28.7390 C.ar   95  TRP95       0.0012
     12  CZ2       10.3080  -10.6940  -26.7990 C.ar   95  TRP95       0.0191
     13  CZ3       11.2660   -9.1390  -28.3660 C.ar   95  TRP95       0.0001
     14  CH2       10.3320   -9.4540  -27.4120 C.ar   95  TRP95       0.0015
     15  N         12.5580  -19.3970  -29.7490 N.3   128  ILE128     -0.1245
     16  CA        12.6480  -18.6370  -28.5230 C.3   128  ILE128      0.1561
     17  C         13.7100  -19.2130  -27.6060 C.2   128  ILE128      0.2260
     18  O         14.5580  -18.4730  -27.1070 O.2   128  ILE128     -0.2867
     19  CB        11.2970  -18.6630  -27.8180 C.3   128  ILE128      0.0252
     20  CG1       10.2360  -18.0170  -28.7010 C.3   128  ILE128      0.0019
     21  CG2       11.3530  -18.0100  -26.4170 C.3   128  ILE128      0.0019
     22  CD1       10.0870  -16.5370  -28.4890 C.3   128  ILE128      0.0001
     23  N         17.0300  -17.3940  -26.2370 N.3   132  CYS132     -0.1235
     24  CA        17.0760  -17.0590  -24.8060 C.3   132  CYS132      0.1677
     25  C         18.3770  -17.5590  -24.1360 C.2   132  CYS132      0.2270
     26  O         18.8700  -16.9200  -23.2310 O.2   132  CYS132     -0.2867
     27  CB        15.7720  -17.4370  -24.0580 C.3   132  CYS132      0.0956
     28  SG        14.3750  -16.2520  -24.3150 S.3   132  CYS132     -0.0801
     29  N         20.7440  -14.7340  -24.8260 N.3   135  ILE135     -0.1245
     30  CA        20.2960  -13.5440  -24.0990 C.3   135  ILE135      0.1561
     31  C         20.7260  -13.7170  -22.6420 C.2   135  ILE135      0.2260
     32  O         21.3420  -12.8480  -22.0830 O.2   135  ILE135     -0.2867
     33  CB        18.7790  -13.3920  -24.2150 C.3   135  ILE135      0.0252
     34  CG1       18.3850  -13.0060  -25.6470 C.3   135  ILE135      0.0019
     35  CG2       18.2430  -12.3090  -23.2900 C.3   135  ILE135      0.0019
     36  CD1       16.8910  -12.9050  -25.8530 C.3   135  ILE135      0.0001
     37  N         22.7990  -11.2650  -18.9060 N.3   140  PHE140     -0.1241
     38  CA        22.6510  -11.5470  -17.4550 C.3   140  PHE140      0.1605
     39  C         23.8490  -12.1370  -16.6920 C.2   140  PHE140      0.2264
     40  O         23.9550  -11.9650  -15.4830 O.2   140  PHE140     -0.2867
     41  CB        21.4000  -12.3940  -17.1860 C.3   140  PHE140      0.0534
     42  CG        20.1190  -11.6470  -17.4170 C.ar  140  PHE140     -0.0203
     43  CD1       19.5400  -11.6240  -18.6980 C.ar  140  PHE140     -0.0042
     44  CD2       19.4920  -10.9540  -16.3730 C.ar  140  PHE140     -0.0042
     45  CE1       18.3650  -10.9700  -18.9270 C.ar  140  PHE140     -0.0003
     46  CE2       18.3110  -10.2730  -16.6100 C.ar  140  PHE140     -0.0003
     47  CZ        17.7460  -10.2760  -17.9070 C.ar  140  PHE140     -0.0000
     48  N         14.7950  -14.4840  -16.1550 N.3   236  MET236     -0.1230
     49  CA        14.0340  -14.2550  -17.3580 C.3   236  MET236      0.1702
     50  C         12.6230  -14.7940  -17.3760 C.2   236  MET236      0.2592
     51  O         12.0600  -14.8750  -18.4430 O.2   236  MET236     -0.2718
     52  CB        14.8030  -14.7110  -18.6100 C.3   236  MET236      0.0401
     53  CG        16.1660  -14.0490  -18.6550 C.3   236  MET236      0.0596
     54  SD        17.0950  -14.5200  -20.0990 S.3   236  MET236     -0.1393
     55  CE        16.5100  -16.1430  -20.5120 C.3   236  MET236      0.0692
     56  N         12.0380  -15.1100  -16.2210 N.am  237  MET237     -0.1979
     57  CA        10.6580  -15.5720  -16.2150 C.3   237  MET237      0.1605
     58  C          9.7730  -14.9200  -15.1610 C.2   237  MET237      0.2287
     59  O          8.5450  -15.0580  -15.2490 O.2   237  MET237     -0.2864
     60  CB        10.6060  -17.1050  -16.0780 C.3   237  MET237      0.0413
     61  CG        11.0230  -17.6480  -14.7440 C.3   237  MET237      0.0598
     62  SD         9.9990  -19.0340  -14.1980 S.3   237  MET237     -0.1393
     63  CE         8.3890  -18.2850  -14.0250 C.3   237  MET237      0.0692
     64  N          8.4860  -12.1000  -14.4790 N.3   239  HIS239     -0.1241
     65  CA         7.3780  -11.2570  -14.8010 C.3   239  HIS239      0.1621
     66  C          6.1290  -12.1170  -14.9360 C.2   239  HIS239      0.2264
     67  O          5.0170  -11.6000  -14.7560 O.2   239  HIS239     -0.2867
     68  CB         7.6580  -10.3820  -16.0290 C.3   239  HIS239      0.0745
     69  CG         7.8960  -11.1540  -17.2530 C.ar  239  HIS239      0.0817
     70  ND1        9.1580  -11.5330  -17.6420 N.ar  239  HIS239     -0.2268
     71  CD2        7.0370  -11.7000  -18.1390 C.ar  239  HIS239      0.1154
     72  CE1        9.0650  -12.2910  -18.7190 C.ar  239  HIS239      0.1986
     73  NE2        7.7890  -12.3960  -19.0440 N.ar  239  HIS239     -0.2212
     74  N         15.4010  -10.2650  -14.2770 N.3   268  ASP268     -0.1225
     75  CA        14.4370  -10.0830  -15.3360 C.3   268  ASP268      0.1805
     76  C         14.5880   -8.7290  -16.0410 C.2   268  ASP268      0.2597
     77  O         15.2790   -7.8020  -15.5610 O.2   268  ASP268     -0.2718
     78  CB        12.9870  -10.2220  -14.8010 C.3   268  ASP268      0.1424
     79  CG        12.0230  -10.8310  -15.8590 C.2   268  ASP268      0.3668
     80  OD1       12.5140  -11.1010  -16.9920 O.co2 268  ASP268     -0.2456
     81  OD2       10.7890  -11.0350  -15.5830 O.co2 268  ASP268     -0.2456
     82  N         13.9480   -8.6340  -17.1890 N.am  269  ALA269     -0.1979
     83  CA        13.7340   -7.3710  -17.8390 C.3   269  ALA269      0.1597
     84  C         12.3740   -6.8340  -17.3750 C.2   269  ALA269      0.2287
     85  O         11.4700   -7.6070  -16.9470 O.2   269  ALA269     -0.2864
     86  CB        13.7990   -7.5430  -19.3230 C.3   269  ALA269      0.0319
     87  N         15.3630   -3.7530  -28.0140 N.3   283  PHE283     -0.1241
     88  CA        14.5370   -4.6500  -27.1620 C.3   283  PHE283      0.1605
     89  C         13.2940   -4.0180  -26.5180 C.2   283  PHE283      0.2264
     90  O         12.1850   -4.5560  -26.6020 O.2   283  PHE283     -0.2867
     91  CB        15.3910   -5.3230  -26.1020 C.3   283  PHE283      0.0534
     92  CG        14.7330   -6.5150  -25.4550 C.ar  283  PHE283     -0.0203
     93  CD1       14.3320   -7.5870  -26.2120 C.ar  283  PHE283     -0.0042
     94  CD2       14.5580   -6.5620  -24.1060 C.ar  283  PHE283     -0.0042
     95  CE1       13.7270   -8.6770  -25.6350 C.ar  283  PHE283     -0.0003
     96  CE2       13.9490   -7.6190  -23.5330 C.ar  283  PHE283     -0.0003
     97  CZ        13.5390   -8.6780  -24.2870 C.ar  283  PHE283     -0.0000
     98  N          9.6700   -6.0660  -26.3030 N.3   287  PHE287     -0.1241
     99  CA         9.2570   -6.7160  -25.0340 C.3   287  PHE287      0.1605
    100  C          7.9230   -6.1910  -24.5110 C.2   287  PHE287      0.2264
    101  O          6.9830   -6.9550  -24.2100 O.2   287  PHE287     -0.2867
    102  CB        10.3580   -6.4810  -24.0380 C.3   287  PHE287      0.0534
    103  CG        10.2700   -7.2950  -22.8110 C.ar  287  PHE287     -0.0203
    104  CD1       10.3360   -8.6740  -22.8740 C.ar  287  PHE287     -0.0042
    105  CD2       10.2560   -6.6860  -21.5910 C.ar  287  PHE287     -0.0042
    106  CE1       10.3230   -9.4380  -21.7460 C.ar  287  PHE287     -0.0003
    107  CE2       10.2180   -7.4550  -20.4520 C.ar  287  PHE287     -0.0003
    108  CZ        10.2590   -8.8290  -20.5250 C.ar  287  PHE287     -0.0000
    109  N          4.2490   -8.3370  -24.9610 N.3   291  HIS291     -0.1241
    110  CA         3.4690   -8.7200  -23.7840 C.3   291  HIS291      0.1621
    111  C          2.1220   -8.0160  -23.7730 C.2   291  HIS291      0.2264
    112  O          1.1640   -8.6150  -23.3760 O.2   291  HIS291     -0.2867
    113  CB         4.2170   -8.4450  -22.4590 C.3   291  HIS291      0.0745
    114  CG         5.3080   -9.4160  -22.2200 C.ar  291  HIS291      0.0817
    115  ND1        6.4880   -9.3770  -22.9180 N.ar  291  HIS291     -0.2268
    116  CD2        5.3720  -10.5190  -21.4400 C.ar  291  HIS291      0.1154
    117  CE1        7.2410  -10.4020  -22.5630 C.ar  291  HIS291      0.1986
    118  NE2        6.5800  -11.1160  -21.6800 N.ar  291  HIS291     -0.2212
    119  N          0.0300  -10.0760  -25.9510 N.3   294  MET294     -0.1245
    120  CA        -0.2830  -11.3970  -25.4270 C.3   294  MET294      0.1570
    121  C         -1.1800  -11.3170  -24.2240 C.2   294  MET294      0.2261
    122  O         -1.6030  -12.3200  -23.7290 O.2   294  MET294     -0.2867
    123  CB         0.9880  -12.1590  -25.0320 C.3   294  MET294      0.0387
    124  CG         1.7670  -12.6140  -26.2210 C.3   294  MET294      0.0595
    125  SD         3.2530  -13.4720  -25.7290 S.3   294  MET294     -0.1393
    126  CE         4.1870  -12.2230  -24.9260 C.3   294  MET294      0.0692
    127  N         20.0380   -4.1240  -21.8260 N.3   324  LEU324     -0.1245
    128  CA        18.8480   -4.8630  -22.1700 C.3   324  LEU324      0.1561
    129  C         17.6590   -4.1460  -21.6050 C.2   324  LEU324      0.2260
    130  O         17.1760   -4.4760  -20.5240 O.2   324  LEU324     -0.2867
    131  CB        18.9360   -6.2680  -21.6390 C.3   324  LEU324      0.0270
    132  CG        17.8320   -7.1600  -22.0910 C.3   324  LEU324      0.0019
    133  CD1       17.9210   -7.4070  -23.5770 C.3   324  LEU324      0.0001
    134  CD2       17.9550   -8.4630  -21.3750 C.3   324  LEU324      0.0001
@<TRIPOS>BOND
     1     1     2    1
     2     3     4    2
     3     3     2    1
     4     2     5    1
     5    15    16    1
     6     5     6    1
     7    11    13   ar
     8    11     8   ar
     9    20    22    1
    10    20    19    1
    11    16    19    1
    12    16    17    1
    13    13    14   ar
    14     6     8   ar
    15     6     7   ar
    16     8    10   ar
    17    87    88    1
    18    19    21    1
    19    17    18    2
    20     7     9   ar
    21    14    12   ar
    22    10    12   ar
    23    10     9   ar
    24    88    89    1
    25    88    91    1
    26    90    89    2
    27    98    99    1
    28    23    24    1
    29   124   125    1
    30   124   123    1
    31    93    95   ar
    32    93    92   ar
    33    91    92    1
    34   119   120    1
    35    36    34    1
    36   125   126    1
    37    34    33    1
    38    95    97   ar
    39    92    94   ar
    40   120   123    1
    41   120   121    1
    42    99   100    1
    43    99   102    1
    44   109   110    1
    45    29    30    1
    46    24    25    1
    47    24    27    1
    48   100   101    2
    49    28    27    1
    50    97    96   ar
    51   121   122    2
    52    33    30    1
    53    33    35    1
    54    25    26    2
    55    94    96   ar
    56    30    31    1
    57   102   103    1
    58   110   111    1
    59   110   113    1
    60   111   112    2
    61   133   132    1
    62   115   117   ar
    63   115   114   ar
    64   104   103   ar
    65   104   106   ar
    66   103   105   ar
    67    31    32    2
    68   117   118   ar
    69   113   114    1
    70   114   116   ar
    71   128   127    1
    72   128   131    1
    73   128   129    1
    74   132   131    1
    75   132   134    1
    76   106   108   ar
    77   118   116   ar
    78   129   130    2
    79   105   107   ar
    80   108   107   ar
    81    55    54    1
    82    54    53    1
    83    86    83    1
    84    73    72   ar
    85    73    71   ar
    86    45    43   ar
    87    45    47   ar
    88    37    38    1
    89    72    70   ar
    90    43    42   ar
    91    53    52    1
    92    52    49    1
    93    51    50    2
    94    71    69   ar
    95    47    46   ar
    96    83    84    1
    97    83    82    1
    98    70    69   ar
    99    38    41    1
   100    38    39    1
   101    42    41    1
   102    42    44   ar
   103    50    49    1
   104    50    56   am
   105    84    85    2
   106    49    48    1
   107    69    68    1
   108    82    76   am
   109    80    79   ar
   110    39    40    2
   111    46    44   ar
   112    56    57    1
   113    57    60    1
   114    57    58    1
   115    60    61    1
   116    76    77    2
   117    76    75    1
   118    68    65    1
   119    79    81   ar
   120    79    78    1
   121    75    78    1
   122    75    74    1
   123    59    58    2
   124    66    65    1
   125    66    67    2
   126    65    64    1
   127    61    62    1
   128    62    63    1
