@<TRIPOS>MOLECULE
tmp/4m7eA00.pdb
 87 80 0 0 0
SMALL
GASTEIGER

@<TRIPOS>ATOM
      1  N         19.3510  -11.3880  -34.0580 N.3    74  SER74      -0.1217
      2  CA        17.9750  -11.8880  -34.1430 C.3    74  SER74       0.1889
      3  C         17.8630  -13.4260  -34.1490 C.2    74  SER74       0.2288
      4  O         18.6320  -14.1280  -34.7990 O.2    74  SER74      -0.2866
      5  CB        17.2650  -11.2880  -35.3710 C.3    74  SER74       0.2089
      6  OG        15.9060  -11.7100  -35.4650 O.3    74  SER74      -0.2183
      7  N         19.6400   -5.6510  -33.5680 N.3    95  ASP95      -0.1239
      8  CA        18.4660   -6.4820  -33.7810 C.3    95  ASP95       0.1674
      9  C         18.5350   -7.5820  -32.7820 C.2    95  ASP95       0.2266
     10  O         19.2610   -8.5470  -32.9760 O.2    95  ASP95      -0.2867
     11  CB        18.4940   -7.0820  -35.1940 C.3    95  ASP95       0.1410
     12  CG        17.1810   -7.7420  -35.5900 C.2    95  ASP95       0.3668
     13  OD1       16.4130   -8.1100  -34.6880 O.co2  95  ASP95      -0.2456
     14  OD2       16.9140   -7.8830  -36.8010 O.co2  95  ASP95      -0.2456
     15  N         15.7110   -9.1790  -31.7720 N.3    97  SER97      -0.1202
     16  CA        14.4010   -9.7890  -31.8980 C.3    97  SER97       0.2020
     17  C         14.3910  -11.2820  -32.1580 C.2    97  SER97       0.2621
     18  O         15.4360  -11.9010  -32.3260 O.2    97  SER97      -0.2717
     19  CB        13.7220   -9.1330  -33.0530 C.3    97  SER97       0.2103
     20  OG        14.7120   -8.9260  -34.0460 O.3    97  SER97      -0.2182
     21  N         13.1820  -11.8380  -32.2050 N.am   98  ARG98      -0.1933
     22  CA        12.9670  -13.2840  -32.3370 C.3    98  ARG98       0.1814
     23  C         13.8100  -13.9780  -31.1820 C.2    98  ARG98       0.2332
     24  O         14.4390  -15.0310  -31.3490 O.2    98  ARG98      -0.2860
     25  CB        13.1930  -13.8340  -33.8280 C.2    98  ARG98       0.0019
     26  CG        12.0350  -13.6270  -34.9630 C.2    98  ARG98       0.0178
     27  CD        12.1880  -14.4200  -36.3910 C.3    98  ARG98       0.2464
     28  NE        12.4600  -13.6270  -37.6720 N.pl3  98  ARG98      -0.0815
     29  CZ        11.7980  -13.6280  -38.8860 C.cat  98  ARG98       0.5349
     30  NH1       12.2370  -12.8590  -39.8800 N.pl3  98  ARG98       0.1354
     31  NH2       10.7110  -14.3570  -39.1580 N.pl3  98  ARG98       0.1354
     32  N         18.6740    2.4060  -34.3110 N.3   119  PHE119     -0.1241
     33  CA        17.8230    1.2530  -34.6680 C.3   119  PHE119      0.1605
     34  C         17.7600    0.1400  -33.6270 C.2   119  PHE119      0.2264
     35  O         18.7650   -0.5340  -33.3630 O.2   119  PHE119     -0.2867
     36  CB        18.2580    0.6160  -36.0020 C.3   119  PHE119      0.0534
     37  CG        17.3040   -0.4740  -36.5150 C.ar  119  PHE119     -0.0203
     38  CD1       16.0550   -0.1380  -37.0740 C.ar  119  PHE119     -0.0042
     39  CD2       17.6490   -1.8350  -36.4330 C.ar  119  PHE119     -0.0042
     40  CE1       15.1660   -1.1320  -37.5460 C.ar  119  PHE119     -0.0003
     41  CE2       16.7600   -2.8470  -36.9100 C.ar  119  PHE119     -0.0003
     42  CZ        15.5170   -2.4860  -37.4660 C.ar  119  PHE119     -0.0000
     43  N         15.3160   -3.2640  -32.6370 N.3   121  ASN121     -0.1240
     44  CA        14.1910   -4.1580  -32.7930 C.3   121  ASN121      0.1653
     45  C         14.3170   -5.2970  -31.8240 C.2   121  ASN121      0.2266
     46  O         15.1380   -6.2010  -32.0190 O.2   121  ASN121     -0.2867
     47  CB        14.2370   -4.7480  -34.1770 C.3   121  ASN121      0.1155
     48  CG        13.0020   -5.5400  -34.5250 C.2   121  ASN121      0.2627
     49  OD1       12.1950   -5.8820  -33.6540 O.2   121  ASN121     -0.2716
     50  ND2       12.8580   -5.8420  -35.8330 N.am  121  ASN121     -0.0877
     51  N         11.5210   -7.0130  -30.9210 N.3   123  SER123     -0.1202
     52  CA        10.2190   -7.6450  -31.0130 C.3   123  SER123      0.2020
     53  C         10.2540   -9.1650  -30.8530 C.2   123  SER123      0.2619
     54  O         11.3060   -9.7970  -30.9980 O.2   123  SER123     -0.2717
     55  CB         9.5790   -7.3090  -32.3620 C.3   123  SER123      0.2103
     56  OG        10.0360   -8.1490  -33.4300 O.3   123  SER123     -0.2182
     57  N          9.0960   -9.7290  -30.5320 N.am  124  SER124     -0.1951
     58  CA         8.9570  -11.1680  -30.3630 C.3   124  SER124      0.1924
     59  C          9.7050  -11.7350  -29.1380 C.2   124  SER124      0.2314
     60  O         10.2250  -12.8590  -29.1830 O.2   124  SER124     -0.2863
     61  CB         9.4080  -11.8940  -31.6370 C.3   124  SER124      0.2116
     62  OG         8.3300  -12.1060  -32.5350 O.3   124  SER124     -0.2180
     63  N         14.2410    4.3340  -35.5160 N.3   144  VAL144     -0.1245
     64  CA        13.3800    3.1520  -35.5520 C.3   144  VAL144      0.1561
     65  C         13.3630    2.2730  -34.2510 C.2   144  VAL144      0.2260
     66  O         14.4140    1.8520  -33.7270 O.2   144  VAL144     -0.2867
     67  CB        13.7100    2.2900  -36.7790 C.3   144  VAL144      0.0252
     68  CG1       12.7850    1.0940  -36.8890 C.3   144  VAL144      0.0019
     69  CG2       13.5770    3.1050  -37.9850 C.3   144  VAL144      0.0019
     70  N         11.2270   -1.1800  -32.6430 N.3   146  ASP146     -0.1239
     71  CA        10.1400   -2.1700  -32.6970 C.3   146  ASP146      0.1674
     72  C         10.0710   -3.0470  -31.4610 C.2   146  ASP146      0.2266
     73  O         10.8020   -4.0440  -31.3470 O.2   146  ASP146     -0.2867
     74  CB        10.2960   -3.0830  -33.9120 C.3   146  ASP146      0.1410
     75  CG         9.0620   -3.9600  -34.1660 C.2   146  ASP146      0.3668
     76  OD1        8.2430   -4.0940  -33.2170 O.co2 146  ASP146     -0.2456
     77  OD2        8.9460   -4.5350  -35.2990 O.co2 146  ASP146     -0.2456
     78  N          9.9560    5.3250  -37.7430 N.3   171  HIS171     -0.1241
     79  CA         9.2180    4.0400  -37.6900 C.3   171  HIS171      0.1621
     80  C          8.9080    3.5890  -36.2510 C.2   171  HIS171      0.2264
     81  O          9.8280    3.3810  -35.4510 O.2   171  HIS171     -0.2867
     82  CB        10.0790    2.9620  -38.3740 C.3   171  HIS171      0.0745
     83  CG         9.4430    1.6000  -38.4920 C.ar  171  HIS171      0.0817
     84  ND1        9.6400    0.5910  -37.5730 N.ar  171  HIS171     -0.2268
     85  CD2        8.6780    1.0590  -39.4680 C.ar  171  HIS171      0.1154
     86  CE1        8.9890   -0.4940  -37.9540 C.ar  171  HIS171      0.1986
     87  NE2        8.3910   -0.2340  -39.0990 N.ar  171  HIS171     -0.2212
@<TRIPOS>BOND
     1    30    29    1
     2    85    87   ar
     3    85    83   ar
     4    31    29    1
     5    87    86   ar
     6    29    28    2
     7    83    82    1
     8    83    84   ar
     9    82    79    1
    10    69    67    1
    11    86    84   ar
    12    78    79    1
    13    79    80    1
    14    28    27    1
    15    40    42   ar
    16    40    38   ar
    17    42    41   ar
    18    38    37   ar
    19    41    39   ar
    20    68    67    1
    21    14    12   ar
    22    67    64    1
    23    37    39   ar
    24    37    36    1
    25    27    26    1
    26    80    81    2
    27    36    33    1
    28    50    48   am
    29    12    11    1
    30    12    13   ar
    31    64    63    1
    32    64    65    1
    33     6     5    1
    34     5     2    1
    35    77    75   ar
    36    11     8    1
    37    26    25    2
    38     4     3    2
    39    33    32    1
    40    33    34    1
    41    48    47    1
    42    48    49    2
    43    65    66    2
    44    47    44    1
    45    75    74    1
    46    75    76   ar
    47     3     2    1
    48     2     1    1
    49    20    19    1
    50    74    71    1
    51    25    22    1
    52     8     7    1
    53     8     9    1
    54    34    35    2
    55    56    55    1
    56    19    16    1
    57    10     9    2
    58    44    43    1
    59    44    45    1
    60    71    70    1
    61    71    72    1
    62    62    61    1
    63    55    52    1
    64    22    21    1
    65    22    23    1
    66    18    17    2
    67    21    17   am
    68    17    16    1
    69    46    45    2
    70    16    15    1
    71    61    58    1
    72    72    73    2
    73    24    23    2
    74    52    51    1
    75    52    53    1
    76    54    53    2
    77    53    57   am
    78    57    58    1
    79    58    59    1
    80    60    59    2
