@<TRIPOS>MOLECULE
tmp/4m7eA02.pdb
 87 85 0 0 0
SMALL
GASTEIGER

@<TRIPOS>ATOM
      1  N        -19.6410  -41.0630  -43.2640 N.3   488  ASN488     -0.1240
      2  CA       -21.0220  -41.0610  -43.7600 C.3   488  ASN488      0.1653
      3  C        -21.2520  -41.5220  -45.1930 C.2   488  ASN488      0.2266
      4  O        -22.1180  -40.9910  -45.8880 O.2   488  ASN488     -0.2867
      5  CB       -21.6900  -39.7100  -43.5220 C.3   488  ASN488      0.1155
      6  CG       -22.2100  -39.5820  -42.1250 C.2   488  ASN488      0.2627
      7  OD1      -23.4200  -39.5570  -41.9030 O.2   488  ASN488     -0.2716
      8  ND2      -21.3020  -39.5420  -41.1590 N.am  488  ASN488     -0.0877
      9  N        -19.5790  -43.9920  -39.8610 N.3   512  ASN512     -0.1240
     10  CA       -20.8820  -44.2950  -40.4810 C.3   512  ASN512      0.1653
     11  C        -20.8630  -45.1450  -41.7160 C.2   512  ASN512      0.2266
     12  O        -21.7880  -45.1250  -42.5300 O.2   512  ASN512     -0.2867
     13  CB       -21.7190  -43.0370  -40.7490 C.3   512  ASN512      0.1155
     14  CG       -23.1870  -43.3620  -40.8360 C.2   512  ASN512      0.2627
     15  OD1      -23.6050  -44.3920  -40.3200 O.2   512  ASN512     -0.2716
     16  ND2      -23.9730  -42.5180  -41.4780 N.am  512  ASN512     -0.0877
     17  N        -19.4620  -45.9760  -35.4870 N.3   536  THR536     -0.1218
     18  CA       -20.6710  -46.4520  -36.1800 C.3   536  THR536      0.1862
     19  C        -20.3770  -47.4690  -37.2820 C.2   536  THR536      0.2287
     20  O        -20.9940  -47.4480  -38.3530 O.2   536  THR536     -0.2866
     21  CB       -21.5520  -45.2910  -36.7640 C.3   536  THR536      0.1770
     22  OG1      -21.5210  -44.1410  -35.9040 O.3   536  THR536     -0.2211
     23  CG2      -23.0130  -45.7550  -36.9910 C.3   536  THR536      0.0375
     24  N        -30.5530  -42.7760  -31.9180 N.3   575  GLU575     -0.1231
     25  CA       -30.0850  -43.1110  -33.2500 C.3   575  GLU575      0.1699
     26  C        -28.6570  -42.6370  -33.5250 C.2   575  GLU575      0.2592
     27  O        -27.8860  -43.3070  -34.1960 O.2   575  GLU575     -0.2718
     28  CB       -31.0560  -42.4620  -34.2260 C.3   575  GLU575      0.0402
     29  CG       -30.8610  -42.8040  -35.6690 C.3   575  GLU575      0.1161
     30  CD       -31.6970  -41.9030  -36.5600 C.2   575  GLU575      0.3649
     31  OE1      -32.4460  -41.0730  -35.9910 O.co2 575  GLU575     -0.2457
     32  OE2      -31.5970  -42.0090  -37.8100 O.co2 575  GLU575     -0.2457
     33  N        -28.3150  -41.4760  -32.9820 N.am  576  CYS576     -0.1956
     34  CA       -27.0370  -40.8240  -33.2410 C.3   576  CYS576      0.1843
     35  C        -25.8660  -41.4520  -32.5030 C.2   576  CYS576      0.2625
     36  O        -25.9130  -41.6400  -31.2900 O.2   576  CYS576     -0.2714
     37  CB       -27.1240  -39.3440  -32.8740 C.3   576  CYS576      0.0997
     38  SG       -25.5490  -38.4830  -32.9800 S.3   576  CYS576     -0.0797
     39  N        -24.7950  -41.7230  -33.2380 N.am  577  HIS577     -0.1973
     40  CA       -23.6480  -42.4470  -32.7030 C.3   577  HIS577      0.1656
     41  C        -22.4140  -41.5840  -32.5400 C.2   577  HIS577      0.2291
     42  O        -22.4780  -40.3770  -32.7430 O.2   577  HIS577     -0.2864
     43  CB       -23.2880  -43.6300  -33.5880 C.3   577  HIS577      0.0771
     44  CG       -24.3480  -44.6810  -33.6510 C.ar  577  HIS577      0.0820
     45  ND1      -25.6400  -44.4680  -33.2160 N.ar  577  HIS577     -0.2267
     46  CD2      -24.3050  -45.9580  -34.0980 C.ar  577  HIS577      0.1154
     47  CE1      -26.3450  -45.5780  -33.3820 C.ar  577  HIS577      0.1986
     48  NE2      -25.5570  -46.4960  -33.9160 N.ar  577  HIS577     -0.2212
     49  N        -30.7030  -34.1560  -42.8450 N.3   598  THR598     -0.1203
     50  CA       -31.2550  -35.3600  -43.4170 C.3   598  THR598      0.1994
     51  C        -30.2390  -36.5050  -43.5530 C.2   598  THR598      0.2618
     52  O        -30.6190  -37.6640  -43.6370 O.2   598  THR598     -0.2717
     53  CB       -31.8350  -35.0330  -44.7530 C.3   598  THR598      0.1784
     54  OG1      -30.8060  -34.4290  -45.5420 O.3   598  THR598     -0.2211
     55  CG2      -32.9770  -34.0470  -44.5740 C.3   598  THR598      0.0376
     56  N        -28.9590  -36.1830  -43.6420 N.am  599  ARG599     -0.1965
     57  CA       -27.9130  -37.2040  -43.6650 C.3   599  ARG599      0.1729
     58  C        -27.4280  -37.7160  -42.2950 C.2   599  ARG599      0.2616
     59  O        -27.0950  -38.8850  -42.1510 O.2   599  ARG599     -0.2715
     60  CB       -26.7480  -36.6820  -44.4760 C.3   599  ARG599      0.0348
     61  CG       -27.1850  -35.8480  -45.6890 C.3   599  ARG599      0.0492
     62  CD       -27.6490  -36.7300  -46.8580 C.3   599  ARG599      0.2205
     63  NE       -27.5650  -36.0510  -48.1490 N.pl3 599  ARG599     -0.0865
     64  CZ       -26.4300  -35.8640  -48.8170 C.cat 599  ARG599      0.5346
     65  NH1      -25.2640  -36.2880  -48.3250 N.pl3 599  ARG599      0.1354
     66  NH2      -26.4690  -35.2320  -49.9810 N.pl3 599  ARG599      0.1354
     67  N        -27.3470  -36.8120  -41.3180 N.am  600  ASN600     -0.1959
     68  CA       -26.9410  -37.1060  -39.9320 C.3   600  ASN600      0.1804
     69  C        -28.0840  -36.9000  -38.9500 C.2   600  ASN600      0.2463
     70  O        -28.6540  -35.8140  -38.8970 O.2   600  ASN600     -0.2730
     71  CB       -25.7640  -36.2210  -39.5070 C.3   600  ASN600      0.1195
     72  CG       -25.1700  -36.6150  -38.1530 C.2   600  ASN600      0.2630
     73  OD1      -24.9710  -37.7930  -37.8660 O.2   600  ASN600     -0.2716
     74  ND2      -24.8790  -35.6150  -37.3200 N.am  600  ASN600     -0.0877
     75  N        -28.4310  -37.9410  -38.1730 N.am  601  PRO601     -0.2716
     76  CA       -29.6020  -37.8750  -37.2940 C.3   601  PRO601      0.1536
     77  C        -29.4300  -36.9130  -36.1460 C.2   601  PRO601      0.2598
     78  O        -30.4340  -36.3890  -35.6740 O.2   601  PRO601     -0.2715
     79  CB       -29.6720  -39.2840  -36.7280 C.3   601  PRO601      0.0310
     80  CG       -28.2520  -39.7470  -36.7330 C.3   601  PRO601      0.0237
     81  CD       -27.6790  -39.1940  -37.9920 C.3   601  PRO601      0.0939
     82  N        -28.1830  -36.6150  -35.7880 N.am  602  CYS602     -0.1968
     83  CA       -27.8450  -35.9160  -34.5460 C.3   602  CYS602      0.1712
     84  C        -28.4890  -34.5410  -34.4050 C.2   602  CYS602      0.2296
     85  O        -28.9320  -33.9380  -35.3680 O.2   602  CYS602     -0.2864
     86  CB       -26.3270  -35.7520  -34.4310 C.3   602  CYS602      0.0983
     87  SG       -25.3460  -37.2720  -34.6100 S.3   602  CYS602     -0.0798
@<TRIPOS>BOND
     1    66    64    1
     2    64    65    1
     3    64    63    2
     4    63    62    1
     5    62    61    1
     6     4     3    2
     7    61    60    1
     8    54    53    1
     9     3     2    1
    10    53    55    1
    11    53    50    1
    12    60    57    1
    13     2     5    1
    14     2     1    1
    15    57    56    1
    16    57    58    1
    17    56    51   am
    18    52    51    2
    19    51    50    1
    20     5     6    1
    21    50    49    1
    22    12    11    2
    23    58    59    2
    24    58    67   am
    25     6     7    2
    26     6     8   am
    27    11    10    1
    28    16    14   am
    29    67    68    1
    30    14    13    1
    31    14    15    2
    32    13    10    1
    33    10     9    1
    34    68    71    1
    35    68    69    1
    36    71    72    1
    37    69    70    2
    38    69    75   am
    39    20    19    2
    40    75    81    1
    41    75    76    1
    42    72    73    2
    43    72    74   am
    44    81    80    1
    45    32    30   ar
    46    76    79    1
    47    76    77    1
    48    19    18    1
    49    23    21    1
    50    21    18    1
    51    21    22    1
    52    80    79    1
    53    30    31   ar
    54    30    29    1
    55    18    17    1
    56    77    82   am
    57    77    78    2
    58    82    83    1
    59    29    28    1
    60    85    84    2
    61    87    86    1
    62    87    38    1
    63    83    86    1
    64    83    84    1
    65    28    25    1
    66    27    26    2
    67    46    48   ar
    68    46    44   ar
    69    48    47   ar
    70    44    43    1
    71    44    45   ar
    72    43    40    1
    73    26    25    1
    74    26    33   am
    75    47    45   ar
    76    25    24    1
    77    34    33    1
    78    34    37    1
    79    34    35    1
    80    39    40    1
    81    39    35   am
    82    38    37    1
    83    42    41    2
    84    40    41    1
    85    35    36    2
