@<TRIPOS>MOLECULE
tmp/4m7iA00.pdb
 204 192 0 0 0
SMALL
GASTEIGER

@<TRIPOS>ATOM
      1  N        -53.3970   13.7450   13.6750 N.3    13  LEU13      -0.1231
      2  CA       -51.9610   14.0030   13.6490 C.3    13  LEU13       0.1693
      3  C        -51.6160   15.3960   13.1510 C.2    13  LEU13       0.2592
      4  O        -50.4890   15.8510   13.3140 O.2    13  LEU13      -0.2718
      5  CB       -51.2510   12.9780   12.7720 C.3    13  LEU13       0.0284
      6  CG       -51.1650   11.5400   13.2720 C.3    13  LEU13       0.0019
      7  CD1      -50.6000   10.6690   12.1530 C.3    13  LEU13       0.0001
      8  CD2      -50.3220   11.4420   14.5540 C.3    13  LEU13       0.0001
      9  N        -52.5760   16.0700   12.5310 N.am   14  GLY14      -0.1957
     10  CA       -52.3130   17.3870   11.9760 C.3    14  GLY14       0.1869
     11  C        -53.4320   17.8940   11.0880 C.2    14  GLY14       0.2309
     12  O        -54.1620   17.1040   10.4860 O.2    14  GLY14      -0.2863
     13  N        -54.8300   15.0680    8.7910 N.3    19  VAL19      -0.1245
     14  CA       -54.1650   13.7680    8.8570 C.3    19  VAL19       0.1561
     15  C        -54.4780   13.0300   10.1540 C.2    19  VAL19       0.2260
     16  O        -54.2810   13.5610   11.2380 O.2    19  VAL19      -0.2867
     17  CB       -52.6370   13.9010    8.7160 C.3    19  VAL19       0.0252
     18  CG1      -52.0140   12.5250    8.6090 C.3    19  VAL19       0.0019
     19  CG2      -52.2940   14.7260    7.4930 C.3    19  VAL19       0.0019
     20  N        -51.0370    6.6330    8.6360 N.3    32  ALA32      -0.1245
     21  CA       -51.3890    8.0440    8.6050 C.3    32  ALA32       0.1562
     22  C        -52.3020    8.2290    7.4210 C.2    32  ALA32       0.2260
     23  O        -51.9420    7.9040    6.2880 O.2    32  ALA32      -0.2867
     24  CB       -50.1640    8.9050    8.4620 C.3    32  ALA32       0.0290
     25  N        -54.5320   10.8310    5.2350 N.3    34  LYS34      -0.1245
     26  CA       -54.8260   12.2210    4.9300 C.3    34  LYS34       0.1561
     27  C        -56.1790   12.3570    4.2500 C.2    34  LYS34       0.2260
     28  O        -56.4770   11.6660    3.2760 O.2    34  LYS34      -0.2867
     29  CB       -53.7270   12.8490    4.0720 C.3    34  LYS34       0.0271
     30  CG       -54.0790   14.2430    3.5880 C.3    34  LYS34       0.0035
     31  CD       -52.8540   15.0520    3.2130 C.3    34  LYS34       0.0206
     32  CE       -53.1960   16.5290    3.2190 C.3    34  LYS34       0.1093
     33  NZ       -52.3270   17.3310    2.3130 N.3    34  LYS34      -0.1314
     34  N        -52.4060   12.8570   -7.8590 N.3    52  VAL52      -0.1245
     35  CA       -52.4420   11.6080   -7.1270 C.3    52  VAL52       0.1561
     36  C        -51.8350   10.4670   -7.9400 C.2    52  VAL52       0.2260
     37  O        -50.9680    9.7470   -7.4510 O.2    52  VAL52      -0.2867
     38  CB       -53.8800   11.2540   -6.6760 C.3    52  VAL52       0.0252
     39  CG1      -53.9310    9.8460   -6.1270 C.3    52  VAL52       0.0019
     40  CG2      -54.3570   12.2400   -5.6290 C.3    52  VAL52       0.0019
     41  N        -47.9090   10.8640   -8.0510 N.3    55  LEU55      -0.1231
     42  CA       -47.2890   10.5530   -6.7690 C.3    55  LEU55       0.1693
     43  C        -47.3530    9.0720   -6.4230 C.2    55  LEU55       0.2591
     44  O        -46.3980    8.5180   -5.8810 O.2    55  LEU55      -0.2718
     45  CB       -47.9200   11.3800   -5.6400 C.3    55  LEU55       0.0284
     46  CG       -47.8150   12.8940   -5.8460 C.3    55  LEU55       0.0019
     47  CD1      -48.2850   13.6550   -4.6270 C.3    55  LEU55       0.0001
     48  CD2      -46.3910   13.2910   -6.2010 C.3    55  LEU55       0.0001
     49  N        -48.4700    8.4260   -6.7340 N.am   56  ALA56      -0.1980
     50  CA       -48.6240    7.0110   -6.4010 C.3    56  ALA56       0.1597
     51  C        -47.6120    6.1090   -7.1210 C.2    56  ALA56       0.2287
     52  O        -47.5230    4.9170   -6.8490 O.2    56  ALA56      -0.2864
     53  CB       -50.0520    6.5490   -6.6760 C.3    56  ALA56       0.0319
     54  N        -44.3610    6.9190   -7.2590 N.3    58  LEU58      -0.1245
     55  CA       -43.0740    7.1960   -6.6400 C.3    58  LEU58       0.1561
     56  C        -42.6780    6.1690   -5.5840 C.2    58  LEU58       0.2260
     57  O        -43.4860    5.7770   -4.7340 O.2    58  LEU58      -0.2867
     58  CB       -43.0930    8.5870   -6.0030 C.3    58  LEU58       0.0270
     59  CG       -43.3920    9.7340   -6.9610 C.3    58  LEU58       0.0019
     60  CD1      -43.3370   11.0590   -6.2140 C.3    58  LEU58       0.0001
     61  CD2      -42.4300    9.7010   -8.1730 C.3    58  LEU58       0.0001
     62  N        -38.9600    8.8820    0.5380 N.3    63  ILE63      -0.1231
     63  CA       -40.3540    9.2120    0.2960 C.3    63  ILE63       0.1692
     64  C        -41.2520    8.3010    1.1320 C.2    63  ILE63       0.2591
     65  O        -41.0800    7.0830    1.1280 O.2    63  ILE63      -0.2718
     66  CB       -40.6970    9.0430   -1.2010 C.3    63  ILE63       0.0266
     67  CG1      -39.8350    9.9730   -2.0670 C.3    63  ILE63       0.0019
     68  CG2      -42.1640    9.3320   -1.4630 C.3    63  ILE63       0.0020
     69  CD1      -40.4160   11.3800   -2.2400 C.3    63  ILE63       0.0001
     70  N        -42.2140    8.8820    1.8430 N.am   64  VAL64      -0.1980
     71  CA       -43.0800    8.0690    2.6780 C.3    64  VAL64       0.1595
     72  C        -43.8050    7.0370    1.8260 C.2    64  VAL64       0.2287
     73  O        -44.3780    7.3590    0.7870 O.2    64  VAL64      -0.2864
     74  CB       -44.1090    8.9040    3.5030 C.3    64  VAL64       0.0276
     75  CG1      -44.8940    8.0040    4.4300 C.3    64  VAL64       0.0022
     76  CG2      -43.4150    9.9800    4.3050 C.3    64  VAL64       0.0022
     77  N        -46.4270    4.6010    0.2550 N.3    66  TYR66      -0.1241
     78  CA       -47.8300    4.8280   -0.0660 C.3    66  TYR66       0.1605
     79  C        -48.6060    3.5110   -0.0940 C.2    66  TYR66       0.2264
     80  O        -48.0740    2.4790   -0.5030 O.2    66  TYR66      -0.2867
     81  CB       -47.9350    5.5450   -1.4190 C.3    66  TYR66       0.0534
     82  CG       -49.2690    5.4010   -2.1160 C.ar   66  TYR66      -0.0201
     83  CD1      -50.3500    6.2070   -1.7640 C.ar   66  TYR66      -0.0009
     84  CD2      -49.4480    4.4700   -3.1310 C.ar   66  TYR66      -0.0009
     85  CE1      -51.5690    6.0870   -2.4010 C.ar   66  TYR66       0.0417
     86  CE2      -50.6700    4.3430   -3.7750 C.ar   66  TYR66       0.0417
     87  CZ       -51.7280    5.1540   -3.3980 C.ar   66  TYR66       0.1957
     88  OH       -52.9480    5.0380   -4.0190 O.3    66  TYR66      -0.2866
     89  N        -55.9930    9.5750    1.4470 N.3    79  ILE79      -0.1245
     90  CA       -54.6740    9.0520    1.1030 C.3    79  ILE79       0.1561
     91  C        -54.0710    8.3190    2.3060 C.2    79  ILE79       0.2260
     92  O        -53.8610    8.9150    3.3630 O.2    79  ILE79      -0.2867
     93  CB       -53.7180   10.1810    0.6670 C.3    79  ILE79       0.0252
     94  CG1      -54.3360   11.0050   -0.4670 C.3    79  ILE79       0.0019
     95  CG2      -52.3880    9.6040    0.2360 C.3    79  ILE79       0.0019
     96  CD1      -53.5600   12.2640   -0.7970 C.3    79  ILE79       0.0001
     97  N        -51.0100    6.4940    3.9840 N.3    81  MET81      -0.1230
     98  CA       -49.5540    6.4260    3.9620 C.3    81  MET81       0.1702
     99  C        -49.0320    5.6540    5.1740 C.2    81  MET81       0.2592
    100  O        -49.7530    5.4550    6.1430 O.2    81  MET81      -0.2718
    101  CB       -48.9640    7.8350    3.9970 C.3    81  MET81       0.0401
    102  CG       -49.5210    8.7710    2.9550 C.3    81  MET81       0.0596
    103  SD       -49.0290    8.2880    1.2830 S.3    81  MET81      -0.1393
    104  CE       -47.2440    8.4590    1.3770 C.3    81  MET81       0.0692
    105  N        -47.7730    5.2310    5.1080 N.am   82  GLN82      -0.1966
    106  CA       -47.1140    4.6340    6.2440 C.3    82  GLN82       0.1733
    107  C        -47.0640    5.6440    7.3780 C.2    82  GLN82       0.2616
    108  O        -46.7680    6.8210    7.1540 O.2    82  GLN82      -0.2715
    109  CB       -45.6950    4.1860    5.8920 C.3    82  GLN82       0.0408
    110  CG       -44.9350    3.6080    7.1070 C.3    82  GLN82       0.0908
    111  CD       -43.7130    2.7840    6.7250 C.2    82  GLN82       0.2608
    112  OE1      -42.6100    3.3130    6.5870 O.2    82  GLN82      -0.2717
    113  NE2      -43.9070    1.4760    6.5540 N.am   82  GLN82      -0.0878
    114  N        -47.3430    5.1740    8.5950 N.am   83  LEU83      -0.1963
    115  CA       -47.2830    6.0200    9.7880 C.3    83  LEU83       0.1728
    116  C        -45.8460    6.2260   10.2310 C.2    83  LEU83       0.2616
    117  O        -45.1570    5.2700   10.5500 O.2    83  LEU83      -0.2715
    118  CB       -48.0800    5.3850   10.9320 C.3    83  LEU83       0.0311
    119  CG       -48.1050    6.1560   12.2590 C.3    83  LEU83       0.0022
    120  CD1      -48.8480    7.4830   12.1000 C.3    83  LEU83       0.0001
    121  CD2      -48.7020    5.3060   13.4010 C.3    83  LEU83       0.0001
    122  N        -45.3930    7.4730   10.2490 N.am   84  CYS84      -0.1954
    123  CA       -44.0590    7.7950   10.7540 C.3    84  CYS84       0.1843
    124  C        -44.0780    8.1100   12.2660 C.2    84  CYS84       0.2625
    125  O        -45.1450    8.1440   12.8850 O.2    84  CYS84      -0.2714
    126  CB       -43.4510    8.9420    9.9450 C.3    84  CYS84       0.0997
    127  SG       -43.0610    8.4730    8.2160 S.3    84  CYS84      -0.0797
    128  N        -42.9070    8.3190   12.8610 N.am   85  ARG85      -0.1963
    129  CA       -42.8340    8.6220   14.2850 C.3    85  ARG85       0.1729
    130  C        -43.5100    9.9280   14.6050 C.2    85  ARG85       0.2616
    131  O        -43.7120   10.7600   13.7180 O.2    85  ARG85      -0.2715
    132  CB       -41.3930    8.6980   14.7720 C.3    85  ARG85       0.0348
    133  CG       -40.7600    7.3630   14.9640 C.3    85  ARG85       0.0492
    134  CD       -39.3980    7.3900   14.3500 C.3    85  ARG85       0.2205
    135  NE       -38.3420    7.5260   15.3350 N.pl3  85  ARG85      -0.0865
    136  CZ       -37.5670    6.5180   15.7210 C.cat  85  ARG85       0.5346
    137  NH1      -37.7430    5.3150   15.1900 N.pl3  85  ARG85       0.1354
    138  NH2      -36.6190    6.7110   16.6370 N.pl3  85  ARG85       0.1354
    139  N        -43.8320   10.1010   15.8880 N.am   86  LYS86      -0.1974
    140  CA       -44.4670   11.3150   16.3800 C.3    86  LYS86       0.1639
    141  C        -43.4250   12.4090   16.4840 C.2    86  LYS86       0.2290
    142  O        -43.7390   13.5870   16.3330 O.2    86  LYS86      -0.2864
    143  CB       -45.1140   11.0740   17.7540 C.3    86  LYS86       0.0554
    144  CG       -46.3900   10.2260   17.7030 C.2    86  LYS86      -0.0270
    145  CD       -47.0710   10.1520   16.3250 C.2    86  LYS86      -0.0102
    146  CE       -48.2390    9.1520   16.2230 C.3    86  LYS86       0.1350
    147  NZ       -47.8600    7.7080   16.2200 N.3    86  LYS86      -0.1262
    148  N        -42.3180   19.1740    8.8270 N.3   135  ASN135     -0.1240
    149  CA       -42.8000   18.3130    7.7500 C.3   135  ASN135      0.1653
    150  C        -41.6700   17.4500    7.2030 C.2   135  ASN135      0.2266
    151  O        -41.6270   17.1200    6.0150 O.2   135  ASN135     -0.2867
    152  CB       -43.4400   19.1430    6.6390 C.3   135  ASN135      0.1155
    153  CG       -44.2540   18.3070    5.6750 C.2   135  ASN135      0.2627
    154  OD1      -44.8590   17.2990    6.0500 O.2   135  ASN135     -0.2716
    155  ND2      -44.2680   18.7190    4.4160 N.am  135  ASN135     -0.0877
    156  N        -39.9340   13.7310    8.4450 N.3   137  PHE137     -0.1241
    157  CA       -40.2540   12.6530    9.3680 C.3   137  PHE137      0.1605
    158  C        -39.1610   11.5940    9.4670 C.2   137  PHE137      0.2264
    159  O        -38.1850   11.6090    8.7110 O.2   137  PHE137     -0.2867
    160  CB       -41.5880   11.9810    9.0030 C.3   137  PHE137      0.0534
    161  CG       -42.7650   12.9290    8.9610 C.ar  137  PHE137     -0.0203
    162  CD1      -43.3510   13.3880   10.1290 C.ar  137  PHE137     -0.0042
    163  CD2      -43.2940   13.3510    7.7460 C.ar  137  PHE137     -0.0042
    164  CE1      -44.4270   14.2640   10.0840 C.ar  137  PHE137     -0.0003
    165  CE2      -44.3690   14.2200    7.6990 C.ar  137  PHE137     -0.0003
    166  CZ       -44.9330   14.6810    8.8710 C.ar  137  PHE137     -0.0000
    167  N        -38.9530   12.9540    3.5690 N.3   146  VAL146     -0.1231
    168  CA       -39.5810   14.2550    3.3710 C.3   146  VAL146      0.1692
    169  C        -41.0770   14.0830    3.5990 C.2   146  VAL146      0.2593
    170  O        -41.6370   13.0080    3.3710 O.2   146  VAL146     -0.2718
    171  CB       -39.2940   14.8700    2.0020 C.3   146  VAL146      0.0266
    172  CG1      -37.8150   15.2010    1.8880 C.3   146  VAL146      0.0020
    173  CG2      -39.7770   13.9330    0.8630 C.3   146  VAL146      0.0020
    174  N        -41.7270   15.1360    4.0630 N.am  147  GLY147     -0.1942
    175  CA       -43.1200   15.0290    4.4300 C.3   147  GLY147      0.2014
    176  C        -44.1260   15.1910    3.3110 C.2   147  GLY147      0.2639
    177  O        -43.8340   14.9830    2.1210 O.2   147  GLY147     -0.2714
    178  N        -45.3310   15.5660    3.7140 N.am  148  ASP148     -0.1957
    179  CA       -46.4600   15.6830    2.8110 C.3   148  ASP148      0.1840
    180  C        -46.1760   16.7410    1.7490 C.2   148  ASP148      0.2622
    181  O        -45.6370   17.8000    2.0570 O.2   148  ASP148     -0.2715
    182  CB       -47.6960   16.0590    3.6280 C.3   148  ASP148      0.1450
    183  CG       -48.9730   16.0210    2.8170 C.2   148  ASP148      0.3671
    184  OD1      -49.0100   15.3700    1.7370 O.co2 148  ASP148     -0.2456
    185  OD2      -49.9540   16.6360    3.2870 O.co2 148  ASP148     -0.2456
    186  N        -46.5230   16.4410    0.4990 N.am  149  PHE149     -0.1974
    187  CA       -46.3830   17.3920   -0.5980 C.3   149  PHE149      0.1639
    188  C        -47.3260   16.9550   -1.7020 C.2   149  PHE149      0.2290
    189  O        -47.9180   15.8740   -1.6160 O.2   149  PHE149     -0.2864
    190  CB       -44.9370   17.4330   -1.1230 C.3   149  PHE149      0.0560
    191  CG       -44.5060   16.1690   -1.8360 C.ar  149  PHE149     -0.0200
    192  CD1      -44.4420   16.1220   -3.2250 C.ar  149  PHE149     -0.0042
    193  CD2      -44.1840   15.0240   -1.1210 C.ar  149  PHE149     -0.0042
    194  CE1      -44.0580   14.9520   -3.8900 C.ar  149  PHE149     -0.0003
    195  CE2      -43.7900   13.8530   -1.7660 C.ar  149  PHE149     -0.0003
    196  CZ       -43.7290   13.8180   -3.1610 C.ar  149  PHE149     -0.0000
    197  N        -50.2410   18.5490   -3.4240 N.3   151  LEU151     -0.1245
    198  CA       -51.5890   18.9980   -3.7880 C.3   151  LEU151      0.1561
    199  C        -51.8850   20.4900   -3.5780 C.2   151  LEU151      0.2260
    200  O        -52.8310   20.8430   -2.8770 O.2   151  LEU151     -0.2867
    201  CB       -52.6320   18.1300   -3.0720 C.3   151  LEU151      0.0270
    202  CG       -52.3270   16.6300   -3.2030 C.3   151  LEU151      0.0019
    203  CD1      -53.3600   15.7560   -2.5070 C.3   151  LEU151      0.0001
    204  CD2      -52.2110   16.2410   -4.6550 C.3   151  LEU151      0.0001
@<TRIPOS>BOND
     1    61    59    1
     2    41    42    1
     3    36    37    2
     4    36    35    1
     5    34    35    1
     6    54    55    1
     7    35    38    1
     8    51    52    2
     9    51    50    1
    10    59    60    1
    11    59    58    1
    12    42    43    1
    13    42    45    1
    14    49    43   am
    15    49    50    1
    16    38    39    1
    17    38    40    1
    18    53    50    1
    19    55    58    1
    20    55    56    1
    21    43    44    2
    22    48    46    1
    23    46    45    1
    24    46    47    1
    25    56    57    2
    26   204   202    1
    27    88    87    1
    28   194   192   ar
    29   194   196   ar
    30   198   199    1
    31   198   197    1
    32   198   201    1
    33    86    87   ar
    34    86    84   ar
    35   199   200    2
    36    87    85   ar
    37   192   191   ar
    38   202   201    1
    39   202   203    1
    40   196   195   ar
    41    84    82   ar
    42    85    83   ar
    43    69    67    1
    44    82    83   ar
    45    82    81    1
    46    67    66    1
    47   191   190    1
    48   191   193   ar
    49   195   193   ar
    50   188   189    2
    51   188   187    1
    52    68    66    1
    53    81    78    1
    54    66    63    1
    55   190   187    1
    56    96    94    1
    57   187   186    1
    58    80    79    2
    59    94    93    1
    60    79    78    1
    61    78    77    1
    62    95    93    1
    63    63    62    1
    64    63    64    1
    65   186   180   am
    66    93    90    1
    67    73    72    2
    68   173   171    1
    69    90    89    1
    70    90    91    1
    71    65    64    2
    72    64    70   am
    73   103   104    1
    74   103   102    1
    75   184   183   ar
    76   180   181    2
    77   180   179    1
    78    72    71    1
    79    70    71    1
    80   172   171    1
    81   171   168    1
    82   177   176    2
    83    91    92    2
    84    33    32    1
    85    71    74    1
    86   179   182    1
    87   179   178    1
    88   183   185   ar
    89   183   182    1
    90   102   101    1
    91    31    32    1
    92    31    30    1
    93    28    27    2
    94   176   178   am
    95   176   175    1
    96   170   169    2
    97   168   167    1
    98   168   169    1
    99    74    76    1
   100    74    75    1
   101    30    29    1
   102   169   174   am
   103    98    97    1
   104    98   101    1
   105    98    99    1
   106   174   175    1
   107    29    26    1
   108    27    26    1
   109   155   153   am
   110    26    25    1
   111   105    99   am
   112   105   106    1
   113    99   100    2
   114   153   154    2
   115   153   152    1
   116   109   106    1
   117   109   110    1
   118   151   150    2
   119   106   107    1
   120    23    22    2
   121   113   111   am
   122   112   111    2
   123   152   149    1
   124   111   110    1
   125   108   107    2
   126   150   149    1
   127   107   114   am
   128    22    21    1
   129    19    17    1
   130   165   163   ar
   131   165   166   ar
   132   163   161   ar
   133   149   148    1
   134   127   126    1
   135   156   157    1
   136    24    21    1
   137   114   115    1
   138    21    20    1
   139    18    17    1
   140   159   158    2
   141    17    14    1
   142    13    14    1
   143    14    15    1
   144   166   164   ar
   145   161   160    1
   146   161   162   ar
   147   160   157    1
   148   157   158    1
   149   115   116    1
   150   115   118    1
   151   126   123    1
   152   164   162   ar
   153    15    16    2
   154   116   122   am
   155   116   117    2
   156   122   123    1
   157    12    11    2
   158   123   124    1
   159   118   119    1
   160    11    10    1
   161    10     9    1
   162   120   119    1
   163     7     6    1
   164   119   121    1
   165   124   128   am
   166   124   125    2
   167     9     3   am
   168     5     6    1
   169     5     2    1
   170   128   129    1
   171     3     4    2
   172     3     2    1
   173     6     8    1
   174     2     1    1
   175   131   130    2
   176   129   130    1
   177   129   132    1
   178   134   133    1
   179   134   135    1
   180   130   139   am
   181   132   133    1
   182   137   136    1
   183   135   136    2
   184   136   138    1
   185   139   140    1
   186   147   146    1
   187   146   145    1
   188   145   144    2
   189   142   141    2
   190   140   141    1
   191   140   143    1
   192   144   143    1
