@<TRIPOS>MOLECULE
tmp/4m7jA01.pdb
 113 110 0 0 0
SMALL
GASTEIGER

@<TRIPOS>ATOM
      1  N          8.0400   39.9580  -15.3300 N.3    31  THR31      -0.1203
      2  CA         7.4660   38.9720  -16.2740 C.3    31  THR31       0.1994
      3  C          6.1430   38.3450  -15.8010 C.2    31  THR31       0.2618
      4  O          5.3160   37.9620  -16.6470 O.2    31  THR31      -0.2717
      5  CB         8.4850   37.8730  -16.6120 C.3    31  THR31       0.1784
      6  OG1        9.6970   38.4850  -17.0890 O.3    31  THR31      -0.2211
      7  CG2        7.9690   36.9530  -17.7480 C.3    31  THR31       0.0376
      8  N          5.9510   38.2360  -14.4820 N.am   32  TYR32      -0.1961
      9  CA         4.8430   37.4620  -13.8900 C.3    32  TYR32       0.1771
     10  C          4.0490   38.2290  -12.8330 C.2    32  TYR32       0.2620
     11  O          4.6080   38.9480  -11.9870 O.2    32  TYR32      -0.2715
     12  CB         5.3750   36.1360  -13.3110 C.3    32  TYR32       0.0574
     13  CG         5.9900   35.2770  -14.3710 C.ar   32  TYR32      -0.0198
     14  CD1        5.1990   34.6620  -15.3180 C.ar   32  TYR32      -0.0009
     15  CD2        7.3810   35.1410  -14.4840 C.ar   32  TYR32      -0.0009
     16  CE1        5.7670   33.9130  -16.3450 C.ar   32  TYR32       0.0417
     17  CE2        7.9600   34.3790  -15.4780 C.ar   32  TYR32       0.0417
     18  CZ         7.1550   33.7890  -16.4220 C.ar   32  TYR32       0.1957
     19  OH         7.7280   33.0510  -17.4150 O.3    32  TYR32      -0.2866
     20  N          2.7250   38.0870  -12.8960 N.am   33  GLY33      -0.1954
     21  CA         1.8300   38.6120  -11.8720 C.3    33  GLY33       0.1869
     22  C          1.8800   37.8640  -10.5440 C.2    33  GLY33       0.2309
     23  O          2.2090   36.6770  -10.4880 O.2    33  GLY33      -0.2863
     24  N         -0.1160   42.7230  -12.0050 N.3    52  TRP52      -0.1227
     25  CA         0.4610   42.1470  -13.1750 C.3    52  TRP52       0.1737
     26  C          1.8720   42.7030  -13.4140 C.2    52  TRP52       0.2596
     27  O          2.3110   43.6410  -12.7560 O.2    52  TRP52      -0.2718
     28  CB        -0.4480   42.4340  -14.3690 C.3    52  TRP52       0.0564
     29  CG        -1.8220   41.8460  -14.2100 C.ar   52  TRP52       0.0003
     30  CD1       -2.9890   42.5270  -14.1260 C.ar   52  TRP52       0.0946
     31  CD2       -2.1560   40.4590  -14.1070 C.ar   52  TRP52       0.0152
     32  NE1       -4.0530   41.6460  -13.9570 N.ar   52  TRP52      -0.2442
     33  CE2       -3.5600   40.3700  -13.9760 C.ar   52  TRP52       0.0810
     34  CE3       -1.4110   39.2790  -14.1620 C.ar   52  TRP52       0.0012
     35  CZ2       -4.2410   39.1300  -13.8850 C.ar   52  TRP52       0.0191
     36  CZ3       -2.0770   38.0560  -14.0500 C.ar   52  TRP52       0.0001
     37  CH2       -3.4780   37.9950  -13.9320 C.ar   52  TRP52       0.0015
     38  N          2.5540   42.1170  -14.3720 N.am   53  SER53      -0.1938
     39  CA         3.9640   42.4120  -14.5990 C.3    53  SER53       0.2055
     40  C          4.1950   43.9100  -14.8640 C.2    53  SER53       0.2643
     41  O          5.1450   44.4800  -14.3520 O.2    53  SER53      -0.2714
     42  CB         4.4880   41.5680  -15.7430 C.3    53  SER53       0.2130
     43  OG         3.9610   41.9860  -16.9660 O.3    53  SER53      -0.2179
     44  N          3.2870   44.5230  -15.6140 N.am   54  GLY54      -0.1954
     45  CA         3.3510   45.9440  -15.9670 C.3    54  GLY54       0.1869
     46  C          2.9020   46.9170  -14.9100 C.2    54  GLY54       0.2309
     47  O          3.0010   48.1370  -15.1080 O.2    54  GLY54      -0.2863
     48  N         -0.2520   47.1240  -13.7760 N.3    56  SER56      -0.1217
     49  CA        -1.7040   47.2110  -13.7280 C.3    56  SER56       0.1889
     50  C         -2.2140   46.1890  -12.6900 C.2    56  SER56       0.2288
     51  O         -1.5160   45.2230  -12.3390 O.2    56  SER56      -0.2866
     52  CB        -2.3310   46.9740  -15.1050 C.3    56  SER56       0.2089
     53  OG        -2.1150   45.6300  -15.4870 O.3    56  SER56      -0.2183
     54  N         -5.8190   44.1030  -10.8880 N.3    58  ASP58      -0.1239
     55  CA        -7.2350   43.7540  -10.7530 C.3    58  ASP58       0.1674
     56  C         -7.5180   43.4110   -9.2940 C.2    58  ASP58       0.2266
     57  O         -6.7420   42.7020   -8.6490 O.2    58  ASP58      -0.2867
     58  CB        -7.6090   42.5860  -11.6580 C.3    58  ASP58       0.1410
     59  CG        -7.5830   42.9540  -13.1180 C.2    58  ASP58       0.3668
     60  OD1       -8.3840   43.7990  -13.5510 O.co2  58  ASP58      -0.2456
     61  OD2       -6.7630   42.3780  -13.8240 O.co2  58  ASP58      -0.2456
     62  N          1.6750   33.0110   -6.7520 N.3    97  ARG97      -0.1231
     63  CA         1.5830   33.0060   -8.1920 C.3    97  ARG97       0.1694
     64  C          0.6840   31.8280   -8.5460 C.2    97  ARG97       0.2592
     65  O          0.9800   30.6950   -8.2180 O.2    97  ARG97      -0.2718
     66  CB         2.9540   32.9110   -8.8490 C.3    97  ARG97       0.0321
     67  CG         2.8530   32.5690  -10.3280 C.3    97  ARG97       0.0489
     68  CD         3.7000   33.3930  -11.2480 C.3    97  ARG97       0.2205
     69  NE         3.2940   33.0980  -12.6130 N.pl3  97  ARG97      -0.0865
     70  CZ         2.3250   33.7070  -13.2850 C.cat  97  ARG97       0.5346
     71  NH1        1.6910   34.7520  -12.7720 N.pl3  97  ARG97       0.1354
     72  NH2        2.0260   33.2920  -14.5190 N.pl3  97  ARG97       0.1354
     73  N         -0.4210   32.1440   -9.2050 N.am   98  MET98      -0.1965
     74  CA        -1.3770   31.1650   -9.6190 C.3    98  MET98       0.1736
     75  C         -1.9130   31.5000  -11.0030 C.2    98  MET98       0.2616
     76  O         -1.4650   32.4820  -11.6180 O.2    98  MET98      -0.2715
     77  CB        -2.4970   31.1030   -8.6080 C.3    98  MET98       0.0427
     78  CG        -3.3270   32.3530   -8.4420 C.3    98  MET98       0.0599
     79  SD        -4.1220   32.3350   -6.8090 S.3    98  MET98      -0.1393
     80  CE        -4.9610   30.7630   -6.8870 C.3    98  MET98       0.0692
     81  N         -2.8340   30.6600  -11.5040 N.am   99  ARG99      -0.1977
     82  CA        -3.4800   30.9270  -12.7860 C.3    99  ARG99       0.1597
     83  C         -2.4090   31.0740  -13.8770 C.2    99  ARG99       0.2287
     84  O         -2.3160   32.0900  -14.5860 O.2    99  ARG99      -0.2864
     85  CB        -4.2810   32.2190  -12.6430 C.3    99  ARG99       0.0334
     86  CG        -5.2970   32.4200  -13.7380 C.3    99  ARG99       0.0492
     87  CD        -5.3460   33.9020  -14.0760 C.3    99  ARG99       0.2205
     88  NE        -4.4100   34.1800  -15.1520 N.pl3  99  ARG99      -0.0865
     89  CZ        -4.5240   35.1770  -16.0240 C.cat  99  ARG99       0.5346
     90  NH1       -5.5380   36.0300  -15.9730 N.pl3  99  ARG99       0.1354
     91  NH2       -3.6190   35.2860  -16.9750 N.pl3  99  ARG99       0.1354
     92  N         -0.0120   30.0330  -17.2530 N.3   101  THR101     -0.1203
     93  CA        -0.1960   29.5940  -18.6520 C.3   101  THR101      0.1994
     94  C          1.0250   28.8340  -19.1470 C.2   101  THR101      0.2619
     95  O          0.9560   27.6690  -19.4700 O.2   101  THR101     -0.2717
     96  CB        -0.4490   30.8080  -19.5690 C.3   101  THR101      0.1784
     97  OG1       -1.4130   31.6700  -18.9570 O.3   101  THR101     -0.2211
     98  CG2       -0.9490   30.3700  -20.9330 C.3   101  THR101      0.0376
     99  N          2.1490   29.5150  -19.1790 N.am  102  THR102     -0.1938
    100  CA         3.3510   29.0250  -19.8370 C.3   102  THR102      0.2028
    101  C          4.3930   28.5540  -18.8320 C.2   102  THR102      0.2642
    102  O          5.1900   27.6660  -19.1360 O.2   102  THR102     -0.2714
    103  CB         3.9920   30.1690  -20.6300 C.3   102  THR102      0.1808
    104  OG1        2.9720   30.9340  -21.2850 O.3   102  THR102     -0.2208
    105  CG2        4.9460   29.6310  -21.6480 C.3   102  THR102      0.0379
    106  N          4.3610   29.1530  -17.6390 N.am  103  ASP103     -0.1971
    107  CA         5.4190   29.0330  -16.6520 C.3   103  ASP103      0.1709
    108  C          5.1010   27.9910  -15.5760 C.2   103  ASP103      0.2293
    109  O          3.9850   27.5190  -15.4670 O.2   103  ASP103     -0.2864
    110  CB         5.6580   30.3980  -15.9770 C.3   103  ASP103      0.1436
    111  CG         4.4810   30.8540  -15.1070 C.2   103  ASP103      0.3671
    112  OD1        3.4240   31.2100  -15.6640 O.co2 103  ASP103     -0.2456
    113  OD2        4.6190   30.8940  -13.8520 O.co2 103  ASP103     -0.2456
@<TRIPOS>BOND
     1   105   103    1
     2   104   103    1
     3    98    96    1
     4   103   100    1
     5   100    99    1
     6   100   101    1
     7    96    97    1
     8    96    93    1
     9    95    94    2
    10    99    94   am
    11    94    93    1
    12   102   101    2
    13   101   106   am
    14    93    92    1
    15     7     5    1
    16   106   107    1
    17    19    18    1
    18     6     5    1
    19    91    89    1
    20    43    42    1
    21   107   110    1
    22   107   108    1
    23     4     3    2
    24     5     2    1
    25    18    16   ar
    26    18    17   ar
    27    16    14   ar
    28     2     3    1
    29     2     1    1
    30    89    90    1
    31    89    88    2
    32   110   111    1
    33    45    44    1
    34    45    46    1
    35     3     8   am
    36    42    39    1
    37   112   111   ar
    38    44    40   am
    39   108   109    2
    40    53    52    1
    41    17    15   ar
    42    14    13   ar
    43    88    87    1
    44    47    46    2
    45   111   113   ar
    46    52    49    1
    47    40    39    1
    48    40    41    2
    49    39    38    1
    50    84    83    2
    51    72    70    1
    52    15    13   ar
    53     8     9    1
    54    38    26   am
    55    13    12    1
    56    28    29    1
    57    28    25    1
    58    29    30   ar
    59    29    31   ar
    60    34    31   ar
    61    34    36   ar
    62    30    32   ar
    63    31    33   ar
    64    87    86    1
    65    36    37   ar
    66    33    32   ar
    67    33    35   ar
    68    37    35   ar
    69     9    12    1
    70     9    10    1
    71    83    82    1
    72    61    59   ar
    73    48    49    1
    74    86    85    1
    75    49    50    1
    76    60    59   ar
    77    26    25    1
    78    26    27    2
    79    70    71    1
    80    70    69    2
    81    25    24    1
    82    59    58    1
    83    20    10   am
    84    20    21    1
    85    10    11    2
    86    82    85    1
    87    82    81    1
    88    50    51    2
    89    69    68    1
    90    21    22    1
    91    58    55    1
    92    76    75    2
    93    81    75   am
    94    68    67    1
    95    75    74    1
    96    54    55    1
    97    55    56    1
    98    22    23    2
    99    67    66    1
   100    74    73    1
   101    74    77    1
   102    56    57    2
   103    73    64   am
   104    66    63    1
   105    77    78    1
   106    64    65    2
   107    64    63    1
   108    78    79    1
   109    63    62    1
   110    80    79    1
