@<TRIPOS>MOLECULE
tmp/4m7mA00.pdb
 183 173 0 0 0
SMALL
GASTEIGER

@<TRIPOS>ATOM
      1  N         24.5810  -14.3300  -16.8170 N.3    15  PHE15      -0.1241
      2  CA        24.2970  -12.9630  -16.3580 C.3    15  PHE15       0.1605
      3  C         23.5630  -12.0740  -17.3870 C.2    15  PHE15       0.2264
      4  O         22.7300  -11.2480  -17.0080 O.2    15  PHE15      -0.2867
      5  CB        25.5700  -12.2690  -15.8410 C.3    15  PHE15       0.0534
      6  CG        25.3220  -10.8920  -15.2670 C.ar   15  PHE15      -0.0203
      7  CD1       24.4090  -10.7030  -14.2340 C.ar   15  PHE15      -0.0042
      8  CD2       25.9940   -9.7840  -15.7640 C.ar   15  PHE15      -0.0042
      9  CE1       24.1700   -9.4240  -13.7040 C.ar   15  PHE15      -0.0003
     10  CE2       25.7530   -8.5010  -15.2380 C.ar   15  PHE15      -0.0003
     11  CZ        24.8430   -8.3240  -14.2090 C.ar   15  PHE15      -0.0000
     12  N         26.6640   -3.2310  -19.4530 N.3    32  TRP32      -0.1241
     13  CA        26.5750   -3.6960  -18.0760 C.3    32  TRP32       0.1605
     14  C         27.3870   -4.9630  -17.8300 C.2    32  TRP32       0.2264
     15  O         28.1710   -5.0390  -16.8860 O.2    32  TRP32      -0.2867
     16  CB        25.1130   -3.9810  -17.7690 C.3    32  TRP32       0.0550
     17  CG        24.7840   -4.1040  -16.3290 C.ar   32  TRP32       0.0003
     18  CD1       25.6280   -4.4500  -15.3150 C.ar   32  TRP32       0.0946
     19  CD2       23.5070   -3.8740  -15.7310 C.ar   32  TRP32       0.0152
     20  NE1       24.9540   -4.4520  -14.1230 N.ar   32  TRP32      -0.2442
     21  CE2       23.6490   -4.1050  -14.3480 C.ar   32  TRP32       0.0810
     22  CE3       22.2550   -3.4930  -16.2280 C.ar   32  TRP32       0.0012
     23  CZ2       22.5880   -3.9720  -13.4590 C.ar   32  TRP32       0.0191
     24  CZ3       21.2050   -3.3590  -15.3450 C.ar   32  TRP32       0.0001
     25  CH2       21.3770   -3.5960  -13.9760 C.ar   32  TRP32       0.0015
     26  N         30.5570   -4.0330  -15.7640 N.3    36  ALA36      -0.1245
     27  CA        30.2010   -4.2860  -14.3720 C.3    36  ALA36       0.1562
     28  C         29.8560   -5.7420  -13.9960 C.2    36  ALA36       0.2260
     29  O         28.9890   -5.9680  -13.1390 O.2    36  ALA36      -0.2867
     30  CB        29.0630   -3.3550  -13.9520 C.3    36  ALA36       0.0290
     31  N         32.5480   -8.0060  -10.3720 N.3    39  PRO39      -0.2116
     32  CA        32.3940   -7.3430   -9.0770 C.3    39  PRO39       0.1372
     33  C         33.2070   -7.9420   -7.9340 C.2    39  PRO39       0.2244
     34  O         33.5250   -9.1440   -7.9000 O.2    39  PRO39      -0.2868
     35  CB        30.9130   -7.5430   -8.7740 C.3    39  PRO39       0.0268
     36  CG        30.5780   -8.8210   -9.4010 C.3    39  PRO39       0.0207
     37  CD        31.3630   -8.8360  -10.6810 C.3    39  PRO39       0.0892
     38  N         33.2200   -8.7760   -3.9290 N.3    41  VAL41      -0.1245
     39  CA        32.3150   -9.0120   -2.8130 C.3    41  VAL41       0.1561
     40  C         33.0690   -9.1470   -1.4920 C.2    41  VAL41       0.2260
     41  O         34.0430   -9.8950   -1.3800 O.2    41  VAL41      -0.2867
     42  CB        31.4070  -10.2490   -3.0280 C.3    41  VAL41       0.0252
     43  CG1       30.3910  -10.3490   -1.9090 C.3    41  VAL41       0.0019
     44  CG2       30.7010  -10.1770   -4.3810 C.3    41  VAL41       0.0019
     45  N         32.3430   -9.9090    2.6640 N.3    43  ILE43      -0.1245
     46  CA        31.3860  -10.3810    3.6580 C.3    43  ILE43       0.1561
     47  C         32.0190  -10.4160    5.0410 C.2    43  ILE43       0.2260
     48  O         33.1150  -10.9390    5.2180 O.2    43  ILE43      -0.2867
     49  CB        30.8670  -11.8040    3.3420 C.3    43  ILE43       0.0252
     50  CG1       30.3980  -11.9000    1.8900 C.3    43  ILE43       0.0019
     51  CG2       29.7430  -12.1860    4.3020 C.3    43  ILE43       0.0019
     52  CD1       30.2620  -13.3000    1.3770 C.3    43  ILE43       0.0001
     53  N         27.2420   -7.4080    3.9170 N.3    52  ILE52      -0.1245
     54  CA        27.6490   -7.7830    2.5610 C.3    52  ILE52       0.1561
     55  C         27.8330   -6.5920    1.6280 C.2    52  ILE52       0.2260
     56  O         26.8810   -5.8610    1.3300 O.2    52  ILE52      -0.2867
     57  CB        26.6490   -8.7440    1.8910 C.3    52  ILE52       0.0252
     58  CG1       26.4870  -10.0320    2.7130 C.3    52  ILE52       0.0019
     59  CG2       27.1360   -9.0860    0.4930 C.3    52  ILE52       0.0019
     60  CD1       25.4320  -10.9660    2.1760 C.3    52  ILE52       0.0001
     61  N         28.9750   -5.4240   -2.1300 N.3    54  VAL54      -0.1245
     62  CA        29.1650   -5.8130   -3.5120 C.3    54  VAL54       0.1561
     63  C         29.4580   -4.5400   -4.2780 C.2    54  VAL54       0.2260
     64  O         28.6710   -3.5920   -4.2040 O.2    54  VAL54      -0.2867
     65  CB        27.8750   -6.4570   -4.0570 C.3    54  VAL54       0.0252
     66  CG1       28.0600   -6.8760   -5.4960 C.3    54  VAL54       0.0019
     67  CG2       27.4990   -7.6450   -3.1980 C.3    54  VAL54       0.0019
     68  N         31.1310   -2.4560   -7.8880 N.3    56  THR56      -0.1218
     69  CA        31.7250   -2.3330   -9.2030 C.3    56  THR56       0.1862
     70  C         32.7760   -1.2430   -9.1030 C.2    56  THR56       0.2287
     71  O         33.3150   -0.9800   -8.0400 O.2    56  THR56      -0.2866
     72  CB        30.6710   -2.0500  -10.3060 C.3    56  THR56       0.1770
     73  OG1       30.7290   -0.6710  -10.6940 O.3    56  THR56      -0.2211
     74  CG2       29.2520   -2.4050   -9.8100 C.3    56  THR56       0.0375
     75  N         30.1010    1.7680   -8.4340 N.3    59  TRP59      -0.1241
     76  CA        28.9100    1.4840   -7.6440 C.3    59  TRP59       0.1605
     77  C         29.1520    0.5430   -6.4650 C.2    59  TRP59       0.2264
     78  O         29.9330   -0.3980   -6.5630 O.2    59  TRP59      -0.2867
     79  CB        27.7780    0.9440   -8.5350 C.3    59  TRP59       0.0550
     80  CG        26.5050    0.7680   -7.7700 C.ar   59  TRP59       0.0003
     81  CD1       26.1450   -0.3190   -7.0270 C.ar   59  TRP59       0.0946
     82  CD2       25.4420    1.7180   -7.6380 C.ar   59  TRP59       0.0152
     83  NE1       24.9230   -0.1060   -6.4430 N.ar   59  TRP59      -0.2442
     84  CE2       24.4600    1.1420   -6.8010 C.ar   59  TRP59       0.0810
     85  CE3       25.2100    3.0120   -8.1380 C.ar   59  TRP59       0.0012
     86  CZ2       23.2760    1.7870   -6.4600 C.ar   59  TRP59       0.0191
     87  CZ3       24.0340    3.6660   -7.7990 C.ar   59  TRP59       0.0001
     88  CH2       23.0810    3.0510   -6.9650 C.ar   59  TRP59       0.0015
     89  N         26.9460   -1.5410   -3.1470 N.3    61  THR61      -0.1218
     90  CA        25.7160   -1.9050   -2.4930 C.3    61  THR61       0.1862
     91  C         26.0600   -2.5060   -1.1460 C.2    61  THR61       0.2287
     92  O         26.9260   -3.3720   -1.0450 O.2    61  THR61      -0.2866
     93  CB        24.9600   -2.9380   -3.3190 C.3    61  THR61       0.1770
     94  OG1       24.9440   -2.5250   -4.6890 O.3    61  THR61      -0.2211
     95  CG2       23.5410   -3.0720   -2.8280 C.3    61  THR61       0.0375
     96  N         24.4210   -4.5090    2.0870 N.3    63  ILE63      -0.1245
     97  CA        23.2810   -5.3130    2.5270 C.3    63  ILE63       0.1561
     98  C         23.5110   -5.7800    3.9700 C.2    63  ILE63       0.2260
     99  O         24.5690   -6.3260    4.2750 O.2    63  ILE63      -0.2867
    100  CB        23.1230   -6.5580    1.6190 C.3    63  ILE63       0.0252
    101  CG1       23.0860   -6.1640    0.1370 C.3    63  ILE63       0.0019
    102  CG2       21.8980   -7.3540    1.9890 C.3    63  ILE63       0.0019
    103  CD1       23.0430   -7.3610   -0.8310 C.3    63  ILE63       0.0001
    104  N         15.9840   -4.3710    0.4440 N.3    73  GLU73      -0.1231
    105  CA        17.1740   -4.2100   -0.3860 C.3    73  GLU73       0.1699
    106  C         16.7410   -3.9790   -1.8270 C.2    73  GLU73       0.2592
    107  O         15.6160   -3.5460   -2.0760 O.2    73  GLU73      -0.2718
    108  CB        18.0930   -5.4380   -0.3020 C.3    73  GLU73       0.0402
    109  CG        17.4750   -6.7220   -0.8220 C.3    73  GLU73       0.1161
    110  CD        18.4970   -7.8020   -1.1720 C.2    73  GLU73       0.3649
    111  OE1       19.6030   -7.4760   -1.6650 O.co2  73  GLU73      -0.2457
    112  OE2       18.1750   -8.9920   -0.9620 O.co2  73  GLU73      -0.2457
    113  N         17.6230   -4.2810   -2.7750 N.am   74  GLN74      -0.1966
    114  CA        17.3300   -4.0430   -4.1760 C.3    74  GLN74       0.1733
    115  C         17.4290   -5.2920   -5.0370 C.2    74  GLN74       0.2617
    116  O         18.2840   -6.1510   -4.8120 O.2    74  GLN74      -0.2715
    117  CB        18.3020   -3.0120   -4.7400 C.3    74  GLN74       0.0408
    118  CG        17.8860   -1.5750   -4.5490 C.3    74  GLN74       0.0908
    119  CD        18.7440   -0.6380   -5.3670 C.2    74  GLN74       0.2608
    120  OE1       19.8930   -0.9590   -5.7120 O.2    74  GLN74      -0.2717
    121  NE2       18.1880    0.5190   -5.7030 N.am   74  GLN74      -0.0878
    122  N         16.5740   -5.3610   -6.0550 N.am   75  THR75      -0.1937
    123  CA        16.7170   -6.3540   -7.1100 C.3    75  THR75       0.2028
    124  C         17.9760   -6.0740   -7.9160 C.2    75  THR75       0.2642
    125  O         18.5750   -5.0040   -7.7960 O.2    75  THR75      -0.2714
    126  CB        15.4900   -6.3810   -8.0630 C.3    75  THR75       0.1808
    127  OG1       15.3120   -5.0940   -8.6630 O.3    75  THR75      -0.2208
    128  CG2       14.2470   -6.7360   -7.3270 C.3    75  THR75       0.0379
    129  N         18.3670   -7.0340   -8.7470 N.am   76  VAL76      -0.1977
    130  CA        19.5520   -6.8680   -9.5730 C.3    76  VAL76       0.1596
    131  C         19.4150   -5.6060  -10.4370 C.2    76  VAL76       0.2287
    132  O         20.3750   -4.8540  -10.5680 O.2    76  VAL76      -0.2864
    133  CB        19.8750   -8.1490  -10.3790 C.3    76  VAL76       0.0276
    134  CG1       21.1570   -7.9990  -11.1740 C.3    76  VAL76       0.0022
    135  CG2       20.0260   -9.3060   -9.4190 C.3    76  VAL76       0.0022
    136  N         17.9200  -14.9010   -4.6660 N.3   109  TRP109     -0.1241
    137  CA        19.3080  -15.2880   -4.7770 C.3   109  TRP109      0.1605
    138  C         19.6170  -16.3130   -3.7040 C.2   109  TRP109      0.2264
    139  O         18.8980  -16.4310   -2.7090 O.2   109  TRP109     -0.2867
    140  CB        20.2760  -14.0830   -4.6990 C.3   109  TRP109      0.0550
    141  CG        20.0830  -13.2000   -3.5030 C.ar  109  TRP109      0.0003
    142  CD1       19.3770  -12.0300   -3.4560 C.ar  109  TRP109      0.0946
    143  CD2       20.5820  -13.4220   -2.1760 C.ar  109  TRP109      0.0152
    144  NE1       19.4100  -11.5110   -2.1850 N.ar  109  TRP109     -0.2442
    145  CE2       20.1440  -12.3410   -1.3770 C.ar  109  TRP109      0.0810
    146  CE3       21.3410  -14.4320   -1.5760 C.ar  109  TRP109      0.0012
    147  CZ2       20.4510  -12.2300   -0.0230 C.ar  109  TRP109      0.0191
    148  CZ3       21.6500  -14.3240   -0.2230 C.ar  109  TRP109      0.0001
    149  CH2       21.2020  -13.2320    0.5390 C.ar  109  TRP109      0.0015
    150  N         23.2280  -18.2880   -1.7330 N.3   111  LYS111     -0.1245
    151  CA        24.6570  -18.2150   -1.5210 C.3   111  LYS111      0.1561
    152  C         25.2010  -19.4540   -0.8120 C.2   111  LYS111      0.2260
    153  O         24.6910  -19.8780    0.2310 O.2   111  LYS111     -0.2867
    154  CB        24.9680  -16.9480   -0.7680 C.3   111  LYS111      0.0271
    155  CG        26.3420  -16.8880   -0.2100 C.3   111  LYS111      0.0035
    156  CD        26.2650  -16.2770    1.1740 C.3   111  LYS111      0.0206
    157  CE        25.5200  -14.9560    1.1660 C.3   111  LYS111      0.1093
    158  NZ        25.9100  -14.1600   -0.0050 N.3   111  LYS111     -0.1314
    159  N         27.4240  -17.7370   -5.9070 N.3   121  LEU121     -0.1245
    160  CA        26.2270  -16.9100   -5.9180 C.3   121  LEU121      0.1561
    161  C         25.3280  -17.3650   -7.0420 C.2   121  LEU121      0.2260
    162  O         25.7890  -17.6280   -8.1450 O.2   121  LEU121     -0.2867
    163  CB        26.5900  -15.4570   -6.1810 C.3   121  LEU121      0.0270
    164  CG        26.7010  -14.5620   -4.9660 C.3   121  LEU121      0.0019
    165  CD1       27.7050  -15.1500   -3.9980 C.3   121  LEU121      0.0001
    166  CD2       27.0990  -13.1590   -5.4310 C.3   121  LEU121      0.0001
    167  N         21.6410  -15.8450   -8.8400 N.3   123  MET123     -0.1245
    168  CA        20.5290  -14.9170   -8.8260 C.3   123  MET123      0.1570
    169  C         19.5430  -15.4280   -9.8340 C.2   123  MET123      0.2261
    170  O         19.9140  -15.8860  -10.9230 O.2   123  MET123     -0.2867
    171  CB        20.9630  -13.4950   -9.1420 C.3   123  MET123      0.0387
    172  CG        21.8750  -12.9290   -8.0870 C.3   123  MET123      0.0595
    173  SD        23.5250  -12.7050   -8.7350 S.3   123  MET123     -0.1393
    174  CE        23.2380  -11.2910   -9.7790 C.3   123  MET123      0.0692
    175  N         27.4020  -17.1110  -10.5180 N.3   132  GLN132     -0.1245
    176  CA        28.7110  -16.4740  -10.4130 C.3   132  GLN132      0.1566
    177  C         29.5180  -17.2930   -9.4000 C.2   132  GLN132      0.2260
    178  O         28.9560  -17.8220   -8.4450 O.2   132  GLN132     -0.2867
    179  CB        28.5790  -14.9810  -10.0190 C.3   132  GLN132      0.0367
    180  CG        27.8730  -14.1230  -11.1030 C.3   132  GLN132      0.0905
    181  CD        28.1860  -12.6190  -11.0390 C.2   132  GLN132      0.2608
    182  OE1       28.3380  -12.0540   -9.9580 O.2   132  GLN132     -0.2717
    183  NE2       28.2730  -11.9690  -12.2100 N.am  132  GLN132     -0.0878
@<TRIPOS>BOND
     1    12    13    1
     2    13    14    1
     3    13    16    1
     4    14    15    2
     5    16    17    1
     6     3     4    2
     7     3     2    1
     8     1     2    1
     9     2     5    1
    10    17    19   ar
    11    17    18   ar
    12    22    19   ar
    13    22    24   ar
    14     5     6    1
    15     8     6   ar
    16     8    10   ar
    17    26    27    1
    18    19    21   ar
    19    24    25   ar
    20    18    20   ar
    21     6     7   ar
    22    10    11   ar
    23    27    28    1
    24    27    30    1
    25    21    20   ar
    26    21    23   ar
    27     7     9   ar
    28    11     9   ar
    29    28    29    2
    30    25    23   ar
    31   183   181   am
    32   134   133    1
    33   180   181    1
    34   180   179    1
    35   181   182    2
    36   170   169    2
    37    73    72    1
    38    37    31    1
    39    37    36    1
    40   132   131    2
    41   175   176    1
    42   131   130    1
    43   176   179    1
    44   176   177    1
    45   133   130    1
    46   133   135    1
    47    31    32    1
    48    72    74    1
    49    72    69    1
    50   169   168    1
    51   174   173    1
    52   130   129    1
    53    36    35    1
    54   177   178    2
    55    69    70    1
    56    69    68    1
    57   171   168    1
    58   171   172    1
    59    70    71    2
    60    32    35    1
    61    32    33    1
    62   167   168    1
    63   129   124   am
    64   173   172    1
    65   127   126    1
    66    79    80    1
    67    79    76    1
    68    75    76    1
    69   162   161    2
    70    85    87   ar
    71    85    82   ar
    72   126   128    1
    73   126   123    1
    74    33    34    2
    75   124   125    2
    76   124   123    1
    77    87    88   ar
    78    80    82   ar
    79    80    81   ar
    80    76    77    1
    81    82    84   ar
    82   123   122    1
    83   161   160    1
    84    81    83   ar
    85    88    86   ar
    86    84    86   ar
    87    84    83   ar
    88    78    77    2
    89   163   160    1
    90   163   164    1
    91   122   115   am
    92   160   159    1
    93   120   119    2
    94   121   119   am
    95    66    65    1
    96   166   164    1
    97   119   118    1
    98   115   116    2
    99   115   114    1
   100   164   165    1
   101   137   140    1
   102   137   136    1
   103   137   138    1
   104   117   118    1
   105   117   114    1
   106   140   141    1
   107    94    93    1
   108    44    42    1
   109    63    64    2
   110    63    62    1
   111   114   113    1
   112    65    62    1
   113    65    67    1
   114    38    39    1
   115   138   139    2
   116    62    61    1
   117   141   142   ar
   118   141   143   ar
   119   142   144   ar
   120    93    95    1
   121    93    90    1
   122    89    90    1
   123    42    39    1
   124    42    43    1
   125    39    40    1
   126   113   106   am
   127    90    91    1
   128   144   145   ar
   129   143   146   ar
   130   143   145   ar
   131   107   106    2
   132   106   105    1
   133   150   151    1
   134   111   110   ar
   135   146   148   ar
   136   151   152    1
   137   151   154    1
   138    40    41    2
   139   145   147   ar
   140   110   112   ar
   141   110   109    1
   142    91    92    2
   143   103   101    1
   144   109   108    1
   145   152   153    2
   146   154   155    1
   147   105   108    1
   148   105   104    1
   149   148   149   ar
   150   155   156    1
   151   147   149   ar
   152   158   157    1
   153   101   100    1
   154    59    57    1
   155   157   156    1
   156    56    55    2
   157    52    50    1
   158   100   102    1
   159   100    97    1
   160    55    54    1
   161    50    49    1
   162    57    54    1
   163    57    58    1
   164    96    97    1
   165    60    58    1
   166    97    98    1
   167    54    53    1
   168    45    46    1
   169    49    46    1
   170    49    51    1
   171    46    47    1
   172    98    99    2
   173    47    48    2
