@<TRIPOS>MOLECULE
tmp/4m7tA01.pdb
 125 121 0 0 0
SMALL
GASTEIGER

@<TRIPOS>ATOM
      1  N         -9.7770  -12.6640   16.5030 N.3     9  GLU9       -0.1245
      2  CA        -8.5570  -12.7040   15.6870 C.3     9  GLU9        0.1567
      3  C         -8.6150  -13.9650   14.8460 C.2     9  GLU9        0.2260
      4  O         -8.7590  -15.0710   15.3860 O.2     9  GLU9       -0.2867
      5  CB        -7.3150  -12.6390   16.5830 C.3     9  GLU9        0.0388
      6  CG        -7.3770  -11.4060   17.4740 C.3     9  GLU9        0.1160
      7  CD        -6.1270  -11.1570   18.2820 C.2     9  GLU9        0.3649
      8  OE1       -5.4320  -12.1220   18.6640 O.co2   9  GLU9       -0.2457
      9  OE2       -5.8390   -9.9740   18.5310 O.co2   9  GLU9       -0.2457
     10  N         -4.7860  -12.2630   12.0430 N.3    60  HIS60      -0.1226
     11  CA        -3.5360  -12.9930   12.2590 C.3    60  HIS60       0.1752
     12  C         -3.6830  -13.9340   13.4550 C.2    60  HIS60       0.2596
     13  O         -4.5320  -13.7220   14.3370 O.2    60  HIS60      -0.2718
     14  CB        -2.4070  -12.0200   12.6070 C.3    60  HIS60       0.0759
     15  CG        -2.6110  -11.3970   13.9440 C.ar   60  HIS60       0.0818
     16  ND1       -3.5100  -10.3680   14.1530 N.ar   60  HIS60      -0.2268
     17  CD2       -2.1280  -11.7230   15.1650 C.ar   60  HIS60       0.1154
     18  CE1       -3.5360  -10.0630   15.4330 C.ar   60  HIS60       0.1986
     19  NE2       -2.7190  -10.8840   16.0770 N.ar   60  HIS60      -0.2212
     20  N         -2.8380  -14.9620   13.4750 N.am   61  PHE61      -0.1962
     21  CA        -2.6060  -15.7810   14.6490 C.3    61  PHE61       0.1771
     22  C         -1.0730  -15.7820   14.7700 C.2    61  PHE61       0.2619
     23  O         -0.5250  -14.9740   15.5200 O.2    61  PHE61      -0.2715
     24  CB        -3.2180  -17.1720   14.4290 C.3    61  PHE61       0.0574
     25  CG        -3.1920  -18.0630   15.6370 C.ar   61  PHE61      -0.0200
     26  CD1       -3.2960  -17.5400   16.9230 C.ar   61  PHE61      -0.0042
     27  CD2       -3.0780  -19.4410   15.4780 C.ar   61  PHE61      -0.0042
     28  CE1       -3.2770  -18.3860   18.0460 C.ar   61  PHE61      -0.0003
     29  CE2       -3.0470  -20.2930   16.5830 C.ar   61  PHE61      -0.0003
     30  CZ        -3.1540  -19.7630   17.8710 C.ar   61  PHE61      -0.0000
     31  N         -0.3900  -16.6220   13.9800 N.am   62  TYR62      -0.1974
     32  CA         1.0800  -16.6350   13.9030 C.3    62  TYR62       0.1639
     33  C          1.5820  -16.6840   12.4720 C.2    62  TYR62       0.2290
     34  O          2.5310  -17.4020   12.1410 O.2    62  TYR62      -0.2864
     35  CB         1.6640  -17.7920   14.7160 C.3    62  TYR62       0.0560
     36  CG         1.4960  -17.5340   16.1840 C.ar   62  TYR62      -0.0198
     37  CD1        0.3240  -17.9010   16.8450 C.ar   62  TYR62      -0.0009
     38  CD2        2.4780  -16.8660   16.9060 C.ar   62  TYR62      -0.0009
     39  CE1        0.1580  -17.6290   18.1900 C.ar   62  TYR62       0.0417
     40  CE2        2.3110  -16.5930   18.2470 C.ar   62  TYR62       0.0417
     41  CZ         1.1520  -16.9790   18.8760 C.ar   62  TYR62       0.1957
     42  OH         0.9730  -16.7200   20.2140 O.3    62  TYR62      -0.2866
     43  N         -2.6840   -6.4980   12.1310 N.3    90  TYR90      -0.1241
     44  CA        -1.3090   -6.5640   12.6390 C.3    90  TYR90       0.1605
     45  C         -0.4710   -7.2050   11.5410 C.2    90  TYR90       0.2264
     46  O         -0.8790   -8.2330   10.9880 O.2    90  TYR90      -0.2867
     47  CB        -1.2020   -7.4690   13.8660 C.3    90  TYR90       0.0534
     48  CG        -1.8760   -7.0030   15.1310 C.ar   90  TYR90      -0.0201
     49  CD1       -3.2520   -6.8090   15.1860 C.ar   90  TYR90      -0.0009
     50  CD2       -1.1380   -6.8220   16.2980 C.ar   90  TYR90      -0.0009
     51  CE1       -3.8690   -6.4140   16.3720 C.ar   90  TYR90       0.0417
     52  CE2       -1.7370   -6.4250   17.4730 C.ar   90  TYR90       0.0417
     53  CZ        -3.0980   -6.2320   17.5100 C.ar   90  TYR90       0.1957
     54  OH        -3.6940   -5.8490   18.6860 O.3    90  TYR90      -0.2866
     55  N          7.8940   -4.0600   22.1560 N.3   147  LEU147     -0.1245
     56  CA         6.9450   -5.0770   22.5980 C.3   147  LEU147      0.1561
     57  C          7.2580   -5.5030   24.0230 C.2   147  LEU147      0.2260
     58  O          8.4250   -5.5140   24.4430 O.2   147  LEU147     -0.2867
     59  CB         6.9900   -6.2990   21.6730 C.3   147  LEU147      0.0270
     60  CG         6.8120   -6.0700   20.1690 C.3   147  LEU147      0.0019
     61  CD1        7.1310   -7.3450   19.4080 C.3   147  LEU147      0.0001
     62  CD2        5.3920   -5.5820   19.8520 C.3   147  LEU147      0.0001
     63  N          4.6510  -16.7100   25.1280 N.3   152  ARG152     -0.1245
     64  CA         3.6290  -17.3990   24.3520 C.3   152  ARG152      0.1563
     65  C          3.1570  -18.6860   25.0330 C.2   152  ARG152      0.2260
     66  O          3.2870  -19.7810   24.4900 O.2   152  ARG152     -0.2867
     67  CB         4.1100  -17.6780   22.9130 C.3   152  ARG152      0.0307
     68  CG         4.5070  -16.4300   22.1000 C.3   152  ARG152      0.0489
     69  CD         3.4280  -15.3570   22.1190 C.3   152  ARG152      0.2205
     70  NE         3.4810  -14.4760   20.9510 N.pl3 152  ARG152     -0.0865
     71  CZ         2.5140  -13.6110   20.6560 C.cat 152  ARG152      0.5346
     72  NH1        2.5970  -12.8640   19.5620 N.pl3 152  ARG152      0.1354
     73  NH2        1.4400  -13.5130   21.4450 N.pl3 152  ARG152      0.1354
     74  N         -4.8550  -15.8450   22.1680 N.3   184  PHE184     -0.1241
     75  CA        -3.8990  -15.8240   21.0800 C.3   184  PHE184      0.1605
     76  C         -2.5660  -16.5090   21.4380 C.2   184  PHE184      0.2264
     77  O         -1.7600  -16.7290   20.5530 O.2   184  PHE184     -0.2867
     78  CB        -3.6610  -14.3810   20.6250 C.3   184  PHE184      0.0534
     79  CG        -3.3910  -13.4270   21.7660 C.ar  184  PHE184     -0.0203
     80  CD1       -2.1430  -13.3910   22.3780 C.ar  184  PHE184     -0.0042
     81  CD2       -4.3940  -12.5840   22.2450 C.ar  184  PHE184     -0.0042
     82  CE1       -1.8930  -12.5250   23.4240 C.ar  184  PHE184     -0.0003
     83  CE2       -4.1520  -11.7180   23.2970 C.ar  184  PHE184     -0.0003
     84  CZ        -2.9050  -11.6920   23.8880 C.ar  184  PHE184     -0.0000
     85  N          2.2520  -13.6460   30.3380 N.3   233  ASN233     -0.1240
     86  CA         1.5740  -12.5140   29.7240 C.3   233  ASN233      0.1653
     87  C          0.5800  -11.8720   30.6850 C.2   233  ASN233      0.2266
     88  O         -0.4020  -12.5070   31.0870 O.2   233  ASN233     -0.2867
     89  CB         0.8720  -12.9600   28.4290 C.3   233  ASN233      0.1155
     90  CG         0.3590  -11.7920   27.6140 C.2   233  ASN233      0.2627
     91  OD1       -0.0180  -10.7620   28.1670 O.2   233  ASN233     -0.2716
     92  ND2        0.3340  -11.9460   26.2870 N.am  233  ASN233     -0.0877
     93  N         -0.6520   -8.5980   29.9330 N.3   235  SER235     -0.1217
     94  CA        -1.0430   -7.4080   29.1760 C.3   235  SER235      0.1889
     95  C         -2.5540   -7.1610   29.0890 C.2   235  SER235      0.2288
     96  O         -2.9770   -6.0610   28.7150 O.2   235  SER235     -0.2866
     97  CB        -0.4710   -7.4770   27.7520 C.3   235  SER235      0.2089
     98  OG        -1.0350   -8.5620   27.0240 O.3   235  SER235     -0.2183
     99  N         -9.6070   -3.5230   23.0850 N.3   242  TYR242     -0.1241
    100  CA        -8.4160   -2.7540   22.7250 C.3   242  TYR242      0.1605
    101  C         -8.1300   -2.8680   21.2280 C.2   242  TYR242      0.2264
    102  O         -8.6250   -3.7850   20.5580 O.2   242  TYR242     -0.2867
    103  CB        -7.1730   -3.1650   23.5470 C.3   242  TYR242      0.0534
    104  CG        -6.7180   -4.5980   23.3580 C.ar  242  TYR242     -0.0201
    105  CD1       -5.9270   -4.9650   22.2700 C.ar  242  TYR242     -0.0009
    106  CD2       -7.0560   -5.5770   24.2840 C.ar  242  TYR242     -0.0009
    107  CE1       -5.5060   -6.2750   22.0980 C.ar  242  TYR242      0.0417
    108  CE2       -6.6280   -6.8940   24.1230 C.ar  242  TYR242      0.0417
    109  CZ        -5.8590   -7.2320   23.0310 C.ar  242  TYR242      0.1957
    110  OH        -5.4500   -8.5460   22.8770 O.3   242  TYR242     -0.2866
    111  N         -2.2220   -4.0410   22.5580 N.3   245  VAL245     -0.1231
    112  CA        -1.4910   -3.7710   23.7950 C.3   245  VAL245      0.1692
    113  C         -0.0550   -4.1100   23.4550 C.2   245  VAL245      0.2591
    114  O          0.1880   -4.9330   22.5610 O.2   245  VAL245     -0.2718
    115  CB        -1.9740   -4.6270   25.0010 C.3   245  VAL245      0.0266
    116  CG1       -3.4220   -4.2890   25.3570 C.3   245  VAL245      0.0020
    117  CG2       -1.8520   -6.1080   24.6970 C.3   245  VAL245      0.0020
    118  N          0.9050   -3.4910   24.1370 N.am  246  LEU246     -0.1980
    119  CA         2.3050   -3.7630   23.7930 C.3   246  LEU246      0.1596
    120  C          2.6920   -5.1750   24.2320 C.2   246  LEU246      0.2287
    121  O          3.6070   -5.7810   23.6700 O.2   246  LEU246     -0.2864
    122  CB         3.2710   -2.7260   24.3830 C.3   246  LEU246      0.0297
    123  CG         3.4260   -1.3880   23.6540 C.3   246  LEU246      0.0022
    124  CD1        3.8840   -1.5870   22.1970 C.3   246  LEU246      0.0001
    125  CD2        2.1370   -0.6180   23.6800 C.3   246  LEU246      0.0001
@<TRIPOS>BOND
     1    46    45    2
     2    45    44    1
     3    10    11    1
     4    43    44    1
     5    34    33    2
     6    11    14    1
     7    11    12    1
     8    33    32    1
     9    14    15    1
    10    44    47    1
    11    12    20   am
    12    12    13    2
    13    20    21    1
    14    47    48    1
    15    32    31    1
    16    32    35    1
    17    15    16   ar
    18    15    17   ar
    19    31    22   am
    20    16    18   ar
    21    24    21    1
    22    24    25    1
    23    21    22    1
    24    35    36    1
    25    22    23    2
    26     3     4    2
    27     3     2    1
    28    48    49   ar
    29    48    50   ar
    30    17    19   ar
    31    49    51   ar
    32    18    19   ar
    33    27    25   ar
    34    27    29   ar
    35    25    26   ar
    36     2     1    1
    37     2     5    1
    38    36    37   ar
    39    36    38   ar
    40    50    52   ar
    41    51    53   ar
    42     5     6    1
    43    29    30   ar
    44    37    39   ar
    45    38    40   ar
    46    26    28   ar
    47    52    53   ar
    48     6     7    1
    49    53    54    1
    50    30    28   ar
    51    39    41   ar
    52    40    41   ar
    53     7     9   ar
    54     7     8   ar
    55    41    42    1
    56    61    60    1
    57    72    71    1
    58    62    60    1
    59    60    59    1
    60    77    76    2
    61   102   101    2
    62    78    75    1
    63    78    79    1
    64    71    70    2
    65    71    73    1
    66    70    69    1
    67    75    76    1
    68    75    74    1
    69   101   100    1
    70    59    56    1
    71    79    81   ar
    72    79    80   ar
    73   107   105   ar
    74   107   109   ar
    75    68    69    1
    76    68    67    1
    77    55    56    1
    78   124   123    1
    79    81    83   ar
    80   105   104   ar
    81    80    82   ar
    82   111   112    1
    83   114   113    2
    84    56    57    1
    85   100    99    1
    86   100   103    1
    87   110   109    1
    88    67    64    1
    89   109   108   ar
    90    83    84   ar
    91   104   103    1
    92   104   106   ar
    93    82    84   ar
    94   113   112    1
    95   113   118   am
    96   123   125    1
    97   123   122    1
    98   121   120    2
    99   119   118    1
   100   119   120    1
   101   119   122    1
   102   112   115    1
   103    57    58    2
   104   108   106   ar
   105    64    65    1
   106    64    63    1
   107    66    65    2
   108   117   115    1
   109   115   116    1
   110    92    90   am
   111    98    97    1
   112    90    91    2
   113    90    89    1
   114    97    94    1
   115    89    86    1
   116    96    95    2
   117    95    94    1
   118    94    93    1
   119    86    85    1
   120    86    87    1
   121    87    88    2
