@<TRIPOS>MOLECULE
tmp/4m7tA00.pdb
 186 180 0 0 0
SMALL
GASTEIGER

@<TRIPOS>ATOM
      1  N          4.1000  -17.4080    7.7830 N.3    16  CYS16      -0.1235
      2  CA         4.8020  -16.1360    7.8420 C.3    16  CYS16       0.1677
      3  C          6.0860  -16.2530    7.0520 C.2    16  CYS16       0.2270
      4  O          6.5940  -17.3580    6.8490 O.2    16  CYS16      -0.2867
      5  CB         5.1540  -15.8130    9.2900 C.3    16  CYS16       0.0956
      6  SG         5.8320  -14.1700    9.5040 S.3    16  CYS16      -0.0801
      7  N         11.6180  -14.5000   19.1250 N.3    22  TYR22      -0.1227
      8  CA        10.6100  -14.3730   20.1830 C.3    22  TYR22       0.1736
      9  C          9.2370  -14.8360   19.7020 C.2    22  TYR22       0.2595
     10  O          8.2150  -14.5010   20.3090 O.2    22  TYR22      -0.2718
     11  CB        10.5370  -12.9190   20.6820 C.3    22  TYR22       0.0548
     12  CG        10.6450  -11.9350   19.5450 C.ar   22  TYR22      -0.0200
     13  CD1        9.5560  -11.6460   18.7500 C.ar   22  TYR22      -0.0009
     14  CD2       11.8550  -11.3360   19.2400 C.ar   22  TYR22      -0.0009
     15  CE1        9.6550  -10.7670   17.7040 C.ar   22  TYR22       0.0417
     16  CE2       11.9790  -10.4660   18.1810 C.ar   22  TYR22       0.0417
     17  CZ        10.8690  -10.1870   17.4120 C.ar   22  TYR22       0.1957
     18  OH        10.9640   -9.3160   16.3500 O.3    22  TYR22      -0.2866
     19  N          9.2100  -15.6220   18.6270 N.am   23  CYS23      -0.1970
     20  CA         7.9610  -16.1810   18.1240 C.3    23  CYS23       0.1712
     21  C          8.0510  -17.7020   18.0190 C.2    23  CYS23       0.2296
     22  O          9.0880  -18.2450   17.6360 O.2    23  CYS23      -0.2864
     23  CB         7.6730  -15.5980   16.7430 C.3    23  CYS23       0.0983
     24  SG         6.1020  -16.1470   15.9880 S.3    23  CYS23      -0.0798
     25  N         -4.7860  -12.2630   12.0430 N.3    60  HIS60      -0.1226
     26  CA        -3.5360  -12.9930   12.2590 C.3    60  HIS60       0.1752
     27  C         -3.6830  -13.9340   13.4550 C.2    60  HIS60       0.2596
     28  O         -4.5320  -13.7220   14.3370 O.2    60  HIS60      -0.2718
     29  CB        -2.4070  -12.0200   12.6070 C.3    60  HIS60       0.0759
     30  CG        -2.6110  -11.3970   13.9440 C.ar   60  HIS60       0.0818
     31  ND1       -3.5100  -10.3680   14.1530 N.ar   60  HIS60      -0.2268
     32  CD2       -2.1280  -11.7230   15.1650 C.ar   60  HIS60       0.1154
     33  CE1       -3.5360  -10.0630   15.4330 C.ar   60  HIS60       0.1986
     34  NE2       -2.7190  -10.8840   16.0770 N.ar   60  HIS60      -0.2212
     35  N         -2.8380  -14.9620   13.4750 N.am   61  PHE61      -0.1962
     36  CA        -2.6060  -15.7810   14.6490 C.3    61  PHE61       0.1771
     37  C         -1.0730  -15.7820   14.7700 C.2    61  PHE61       0.2620
     38  O         -0.5250  -14.9740   15.5200 O.2    61  PHE61      -0.2715
     39  CB        -3.2180  -17.1720   14.4290 C.3    61  PHE61       0.0574
     40  CG        -3.1920  -18.0630   15.6370 C.ar   61  PHE61      -0.0200
     41  CD1       -3.2960  -17.5400   16.9230 C.ar   61  PHE61      -0.0042
     42  CD2       -3.0780  -19.4410   15.4780 C.ar   61  PHE61      -0.0042
     43  CE1       -3.2770  -18.3860   18.0460 C.ar   61  PHE61      -0.0003
     44  CE2       -3.0470  -20.2930   16.5830 C.ar   61  PHE61      -0.0003
     45  CZ        -3.1540  -19.7630   17.8710 C.ar   61  PHE61      -0.0000
     46  N         -0.3900  -16.6220   13.9800 N.am   62  TYR62      -0.1960
     47  CA         1.0800  -16.6350   13.9030 C.3    62  TYR62       0.1771
     48  C          1.5820  -16.6840   12.4720 C.2    62  TYR62       0.2620
     49  O          2.5310  -17.4020   12.1410 O.2    62  TYR62      -0.2715
     50  CB         1.6640  -17.7920   14.7160 C.3    62  TYR62       0.0574
     51  CG         1.4960  -17.5340   16.1840 C.ar   62  TYR62      -0.0198
     52  CD1        0.3240  -17.9010   16.8450 C.ar   62  TYR62      -0.0009
     53  CD2        2.4780  -16.8660   16.9060 C.ar   62  TYR62      -0.0009
     54  CE1        0.1580  -17.6290   18.1900 C.ar   62  TYR62       0.0417
     55  CE2        2.3110  -16.5930   18.2470 C.ar   62  TYR62       0.0417
     56  CZ         1.1520  -16.9790   18.8760 C.ar   62  TYR62       0.1957
     57  OH         0.9730  -16.7200   20.2140 O.3    62  TYR62      -0.2866
     58  N          0.9490  -15.8850   11.6320 N.am   63  GLY63      -0.1940
     59  CA         1.3320  -15.7760   10.2420 C.3    63  GLY63       0.2014
     60  C          1.3210  -14.3100    9.8620 C.2    63  GLY63       0.2638
     61  O          1.0640  -13.4510   10.7020 O.2    63  GLY63      -0.2714
     62  N          1.6250  -14.0240    8.6010 N.am   64  GLU64      -0.1977
     63  CA         1.6680  -12.6530    8.1180 C.3    64  GLU64       0.1602
     64  C          0.4540  -12.4630    7.2170 C.2    64  GLU64       0.2287
     65  O          0.3610  -13.0770    6.1480 O.2    64  GLU64      -0.2864
     66  CB         2.9740  -12.4160    7.3430 C.3    64  GLU64       0.0415
     67  CG         2.9880  -11.1280    6.5470 C.3    64  GLU64       0.1163
     68  CD         2.5140   -9.9430    7.3630 C.2    64  GLU64       0.3649
     69  OE1        1.7560   -9.1160    6.8140 O.co2  64  GLU64      -0.2457
     70  OE2        2.8890   -9.8460    8.5530 O.co2  64  GLU64      -0.2457
     71  N         -2.6840   -6.4980   12.1310 N.3    90  TYR90      -0.1227
     72  CA        -1.3090   -6.5640   12.6390 C.3    90  TYR90       0.1736
     73  C         -0.4710   -7.2050   11.5410 C.2    90  TYR90       0.2596
     74  O         -0.8790   -8.2330   10.9880 O.2    90  TYR90      -0.2718
     75  CB        -1.2020   -7.4690   13.8660 C.3    90  TYR90       0.0548
     76  CG        -1.8760   -7.0030   15.1310 C.ar   90  TYR90      -0.0200
     77  CD1       -3.2520   -6.8090   15.1860 C.ar   90  TYR90      -0.0009
     78  CD2       -1.1380   -6.8220   16.2980 C.ar   90  TYR90      -0.0009
     79  CE1       -3.8690   -6.4140   16.3720 C.ar   90  TYR90       0.0417
     80  CE2       -1.7370   -6.4250   17.4730 C.ar   90  TYR90       0.0417
     81  CZ        -3.0980   -6.2320   17.5100 C.ar   90  TYR90       0.1957
     82  OH        -3.6940   -5.8490   18.6860 O.3    90  TYR90      -0.2866
     83  N          0.6950   -6.6320   11.2400 N.am   91  THR91      -0.1939
     84  CA         1.5160   -7.1020   10.1220 C.3    91  THR91       0.2028
     85  C          2.9660   -6.7910   10.3910 C.2    91  THR91       0.2642
     86  O          3.2810   -5.8200   11.0930 O.2    91  THR91      -0.2714
     87  CB         1.1110   -6.4140    8.7720 C.3    91  THR91       0.1808
     88  OG1        2.0110   -6.8050    7.7280 O.3    91  THR91      -0.2208
     89  CG2        1.1690   -4.9010    8.8990 C.3    91  THR91       0.0379
     90  N          3.8610   -7.6080    9.8440 N.am   92  ASN92      -0.1971
     91  CA         5.2850   -7.2960    9.9390 C.3    92  ASN92       0.1688
     92  C          5.6840   -6.2130    8.9410 C.2    92  ASN92       0.2292
     93  O          6.8020   -5.7270    8.9540 O.2    92  ASN92      -0.2864
     94  CB         6.1750   -8.5550    9.8170 C.3    92  ASN92       0.1181
     95  CG         6.0560   -9.2410    8.4650 C.2    92  ASN92       0.2629
     96  OD1        5.8410   -8.5900    7.4370 O.2    92  ASN92      -0.2716
     97  ND2        6.2160  -10.5670    8.4580 N.am   92  ASN92      -0.0877
     98  N         -1.3030   -2.2630   12.7240 N.3   113  ILE113     -0.1245
     99  CA        -0.2890   -2.3530   13.7660 C.3   113  ILE113      0.1561
    100  C          0.9210   -2.9930   13.1040 C.2   113  ILE113      0.2260
    101  O          0.9260   -4.2040   12.8690 O.2   113  ILE113     -0.2867
    102  CB        -0.7610   -3.2170   14.9490 C.3   113  ILE113      0.0252
    103  CG1       -2.1700   -2.8110   15.3740 C.3   113  ILE113      0.0019
    104  CG2        0.2200   -3.1040   16.1310 C.3   113  ILE113      0.0019
    105  CD1       -2.2730   -1.3590   15.8150 C.3   113  ILE113      0.0001
    106  N          4.9190   -3.9160   12.8820 N.3   115  THR115     -0.1218
    107  CA         6.1410   -4.0990   13.6600 C.3   115  THR115      0.1862
    108  C          7.3360   -4.4040   12.7720 C.2   115  THR115      0.2287
    109  O          7.3080   -5.3480   11.9870 O.2   115  THR115     -0.2866
    110  CB         5.9950   -5.2400   14.6870 C.3   115  THR115      0.1770
    111  OG1        4.8350   -5.0010   15.4970 O.3   115  THR115     -0.2211
    112  CG2        7.2160   -5.3200   15.5980 C.3   115  THR115      0.0375
    113  N         10.5920   -6.1660   12.7890 N.3   117  HIS117     -0.1241
    114  CA        11.0270   -7.2820   13.6180 C.3   117  HIS117      0.1621
    115  C         12.5260   -7.4610   13.5760 C.2   117  HIS117      0.2264
    116  O         13.2160   -6.7700   12.8340 O.2   117  HIS117     -0.2867
    117  CB        10.3120   -8.5660   13.1890 C.3   117  HIS117      0.0745
    118  CG         8.9240   -8.6820   13.7350 C.ar  117  HIS117      0.0817
    119  ND1        8.6590   -8.7590   15.0860 N.ar  117  HIS117     -0.2268
    120  CD2        7.7190   -8.7270   13.1150 C.ar  117  HIS117      0.1154
    121  CE1        7.3570   -8.8520   15.2750 C.ar  117  HIS117      0.1986
    122  NE2        6.7610   -8.8220   14.0940 N.ar  117  HIS117     -0.2212
    123  N          5.6050    0.0710   15.2590 N.3   142  LEU142     -0.1245
    124  CA         6.3600   -0.4000   16.4170 C.3   142  LEU142      0.1561
    125  C          7.6690   -1.0330   15.9800 C.2   142  LEU142      0.2260
    126  O          7.7720   -1.5320   14.8610 O.2   142  LEU142     -0.2867
    127  CB         5.5620   -1.4570   17.1640 C.3   142  LEU142      0.0270
    128  CG         4.1480   -1.1040   17.6030 C.3   142  LEU142      0.0019
    129  CD1        3.4730   -2.3130   18.2510 C.3   142  LEU142      0.0001
    130  CD2        4.1970    0.0660   18.5840 C.3   142  LEU142      0.0001
    131  N          7.8940   -4.0600   22.1560 N.3   147  LEU147     -0.1231
    132  CA         6.9450   -5.0770   22.5980 C.3   147  LEU147      0.1693
    133  C          7.2580   -5.5030   24.0230 C.2   147  LEU147      0.2592
    134  O          8.4250   -5.5140   24.4430 O.2   147  LEU147     -0.2718
    135  CB         6.9900   -6.2990   21.6730 C.3   147  LEU147      0.0284
    136  CG         6.8120   -6.0700   20.1690 C.3   147  LEU147      0.0019
    137  CD1        7.1310   -7.3450   19.4080 C.3   147  LEU147      0.0001
    138  CD2        5.3920   -5.5820   19.8520 C.3   147  LEU147      0.0001
    139  N          6.2120   -5.8250   24.7780 N.am  148  VAL148     -0.1966
    140  CA         6.3840   -6.5120   26.0460 C.3   148  VAL148      0.1727
    141  C          6.3270   -7.9940   25.7060 C.2   148  VAL148      0.2616
    142  O          5.2530   -8.5590   25.4990 O.2   148  VAL148     -0.2715
    143  CB         5.2980   -6.1300   27.0700 C.3   148  VAL148      0.0290
    144  CG1        5.5220   -6.8650   28.3940 C.3   148  VAL148      0.0023
    145  CG2        5.3130   -4.6330   27.3030 C.3   148  VAL148      0.0023
    146  N          7.4990   -8.6110   25.6070 N.am  149  LEU149     -0.1963
    147  CA         7.6080   -9.9810   25.1220 C.3   149  LEU149      0.1728
    148  C          6.9800  -11.0150   26.0500 C.2   149  LEU149      0.2616
    149  O          7.3380  -11.1210   27.2220 O.2   149  LEU149     -0.2715
    150  CB         9.0720  -10.3380   24.8500 C.3   149  LEU149      0.0311
    151  CG         9.7380   -9.6170   23.6760 C.3   149  LEU149      0.0022
    152  CD1       11.1170  -10.1970   23.3970 C.3   149  LEU149      0.0001
    153  CD2        8.8650   -9.6780   22.4330 C.3   149  LEU149      0.0001
    154  N          6.0430  -11.7800   25.5030 N.am  150  SER150     -0.1950
    155  CA         5.4260  -12.8820   26.2220 C.3   150  SER150      0.1924
    156  C          6.1120  -14.1730   25.7900 C.2   150  SER150      0.2314
    157  O          6.6230  -14.2640   24.6750 O.2   150  SER150     -0.2863
    158  CB         3.9200  -12.9270   25.9270 C.3   150  SER150      0.2116
    159  OG         3.4130  -14.2510   25.8890 O.3   150  SER150     -0.2180
    160  N          4.6510  -16.7100   25.1280 N.3   152  ARG152     -0.1245
    161  CA         3.6290  -17.3990   24.3520 C.3   152  ARG152      0.1563
    162  C          3.1570  -18.6860   25.0330 C.2   152  ARG152      0.2260
    163  O          3.2870  -19.7810   24.4900 O.2   152  ARG152     -0.2867
    164  CB         4.1100  -17.6780   22.9130 C.3   152  ARG152      0.0307
    165  CG         4.5070  -16.4300   22.1000 C.3   152  ARG152      0.0489
    166  CD         3.4280  -15.3570   22.1190 C.3   152  ARG152      0.2205
    167  NE         3.4810  -14.4760   20.9510 N.pl3 152  ARG152     -0.0865
    168  CZ         2.5140  -13.6110   20.6560 C.cat 152  ARG152      0.5346
    169  NH1        2.5970  -12.8640   19.5620 N.pl3 152  ARG152      0.1354
    170  NH2        1.4400  -13.5130   21.4450 N.pl3 152  ARG152      0.1354
    171  N          2.2520  -13.6460   30.3380 N.3   233  ASN233     -0.1240
    172  CA         1.5740  -12.5140   29.7240 C.3   233  ASN233      0.1653
    173  C          0.5800  -11.8720   30.6850 C.2   233  ASN233      0.2266
    174  O         -0.4020  -12.5070   31.0870 O.2   233  ASN233     -0.2867
    175  CB         0.8720  -12.9600   28.4290 C.3   233  ASN233      0.1155
    176  CG         0.3590  -11.7920   27.6140 C.2   233  ASN233      0.2627
    177  OD1       -0.0180  -10.7620   28.1670 O.2   233  ASN233     -0.2716
    178  ND2        0.3340  -11.9460   26.2870 N.am  233  ASN233     -0.0877
    179  N          0.9050   -3.4910   24.1370 N.3   246  LEU246     -0.1245
    180  CA         2.3050   -3.7630   23.7930 C.3   246  LEU246      0.1561
    181  C          2.6920   -5.1750   24.2320 C.2   246  LEU246      0.2260
    182  O          3.6070   -5.7810   23.6700 O.2   246  LEU246     -0.2867
    183  CB         3.2710   -2.7260   24.3830 C.3   246  LEU246      0.0270
    184  CG         3.4260   -1.3880   23.6540 C.3   246  LEU246      0.0019
    185  CD1        3.8840   -1.5870   22.1970 C.3   246  LEU246      0.0001
    186  CD2        2.1370   -0.6180   23.6800 C.3   246  LEU246      0.0001
@<TRIPOS>BOND
     1    65    64    2
     2    67    66    1
     3    67    68    1
     4    69    68   ar
     5     4     3    2
     6     3     2    1
     7    64    63    1
     8    66    63    1
     9    68    70   ar
    10    96    95    2
    11    88    87    1
    12     1     2    1
    13     2     5    1
    14    63    62    1
    15    97    95   am
    16    95    94    1
    17    62    60   am
    18    87    89    1
    19    87    84    1
    20    92    93    2
    21    92    91    1
    22     5     6    1
    23    94    91    1
    24    90    91    1
    25    90    85   am
    26    60    59    1
    27    60    61    2
    28    84    85    1
    29    84    83    1
    30    59    58    1
    31    85    86    2
    32    74    73    2
    33    83    73   am
    34    73    72    1
    35    58    48   am
    36   109   108    2
    37    25    26    1
    38    71    72    1
    39    49    48    2
    40    26    29    1
    41    26    27    1
    42    48    47    1
    43    29    30    1
    44    72    75    1
    45    98    99    1
    46   108   107    1
    47   113   114    1
    48   116   115    2
    49   101   100    2
    50   106   107    1
    51   100    99    1
    52   120   118   ar
    53   120   122   ar
    54   117   114    1
    55   117   118    1
    56    27    35   am
    57    27    28    2
    58    35    36    1
    59   115   114    1
    60   107   110    1
    61   118   119   ar
    62    99   102    1
    63    75    76    1
    64    47    46    1
    65    47    50    1
    66    30    31   ar
    67    30    32   ar
    68    46    37   am
    69   122   121   ar
    70    31    33   ar
    71    39    36    1
    72    39    40    1
    73    36    37    1
    74   110   111    1
    75   110   112    1
    76    50    51    1
    77    37    38    2
    78   126   125    2
    79   102   103    1
    80   102   104    1
    81   119   121   ar
    82    76    77   ar
    83    76    78   ar
    84    32    34   ar
    85    77    79   ar
    86   123   124    1
    87   103   105    1
    88    33    34   ar
    89    42    40   ar
    90    42    44   ar
    91    40    41   ar
    92   125   124    1
    93    24    23    1
    94    51    52   ar
    95    51    53   ar
    96    78    80   ar
    97    18    17    1
    98    79    81   ar
    99   124   127    1
   100    44    45   ar
   101    23    20    1
   102    52    54   ar
   103    53    55   ar
   104    41    43   ar
   105   127   128    1
   106    17    15   ar
   107    17    16   ar
   108    80    81   ar
   109    81    82    1
   110   128   129    1
   111   128   130    1
   112    22    21    2
   113    15    13   ar
   114    45    43   ar
   115    21    20    1
   116    20    19    1
   117    16    14   ar
   118    54    56   ar
   119    55    56   ar
   120    19     9   am
   121    13    12   ar
   122    56    57    1
   123     7     8    1
   124    14    12   ar
   125   137   136    1
   126    12    11    1
   127   169   168    1
   128     9     8    1
   129     9    10    2
   130   138   136    1
   131   136   135    1
   132     8    11    1
   133   168   167    2
   134   168   170    1
   135   167   166    1
   136   135   132    1
   137   165   166    1
   138   165   164    1
   139   131   132    1
   140   185   184    1
   141   153   151    1
   142   132   133    1
   143   164   161    1
   144   152   151    1
   145   184   186    1
   146   184   183    1
   147   182   181    2
   148   151   150    1
   149   180   179    1
   150   180   181    1
   151   180   183    1
   152   133   134    2
   153   133   139   am
   154   161   162    1
   155   161   160    1
   156   163   162    2
   157   157   156    2
   158   139   140    1
   159   150   147    1
   160   147   146    1
   161   147   148    1
   162   142   141    2
   163   154   148   am
   164   154   155    1
   165   146   141   am
   166   141   140    1
   167   156   155    1
   168   159   158    1
   169   158   155    1
   170   140   143    1
   171   148   149    2
   172   178   176   am
   173   143   145    1
   174   143   144    1
   175   176   177    2
   176   176   175    1
   177   175   172    1
   178   172   171    1
   179   172   173    1
   180   173   174    2
