@<TRIPOS>MOLECULE
tmp/4m7vA00.pdb
 187 183 0 0 0
SMALL
GASTEIGER

@<TRIPOS>ATOM
      1  N         18.1410  -17.6690    1.9030 N.3    10  ILE10      -0.1231
      2  CA        19.5580  -17.9120    2.1180 C.3    10  ILE10       0.1692
      3  C         19.7720  -18.7970    3.3500 C.2    10  ILE10       0.2592
      4  O         19.1480  -18.5790    4.3780 O.2    10  ILE10      -0.2718
      5  CB        20.3390  -16.5880    2.2770 C.3    10  ILE10       0.0266
      6  CG1       21.8380  -16.8660    2.4230 C.3    10  ILE10       0.0019
      7  CG2       19.8190  -15.7750    3.4590 C.3    10  ILE10       0.0020
      8  CD1       22.7110  -15.6660    2.0090 C.3    10  ILE10       0.0001
      9  N         20.6200  -19.8150    3.2350 N.am   11  TRP11      -0.1962
     10  CA        20.9860  -20.5920    4.4110 C.3    11  TRP11       0.1771
     11  C         22.3510  -21.2610    4.3010 C.2    11  TRP11       0.2619
     12  O         22.9120  -21.4070    3.2110 O.2    11  TRP11      -0.2715
     13  CB        19.9230  -21.6500    4.7090 C.3    11  TRP11       0.0590
     14  CG        19.9100  -22.8280    3.7960 C.ar   11  TRP11       0.0006
     15  CD1       20.4420  -24.0730    4.0400 C.ar   11  TRP11       0.0946
     16  CD2       19.3100  -22.8940    2.5040 C.ar   11  TRP11       0.0152
     17  NE1       20.2070  -24.9080    2.9660 N.ar   11  TRP11      -0.2442
     18  CE2       19.5130  -24.2120    2.0170 C.ar   11  TRP11       0.0810
     19  CE3       18.6210  -21.9720    1.7110 C.ar   11  TRP11       0.0012
     20  CZ2       19.0460  -24.6200    0.7630 C.ar   11  TRP11       0.0191
     21  CZ3       18.1590  -22.3780    0.4600 C.ar   11  TRP11       0.0001
     22  CH2       18.3760  -23.6910   -0.0020 C.ar   11  TRP11       0.0015
     23  N         22.8900  -21.6420    5.4480 N.am   12  ALA12      -0.1977
     24  CA        24.0890  -22.4470    5.4870 C.3    12  ALA12       0.1597
     25  C         23.7240  -23.7910    6.1200 C.2    12  ALA12       0.2287
     26  O         22.9600  -23.8410    7.0800 O.2    12  ALA12      -0.2864
     27  CB        25.1870  -21.7430    6.2600 C.3    12  ALA12       0.0319
     28  N         18.6250  -22.7180   17.7910 N.3    23  GLY23      -0.1210
     29  CA        18.8070  -21.3400   17.3830 C.3    23  GLY23       0.1956
     30  C         20.2240  -20.9220   17.0290 C.2    23  GLY23       0.2612
     31  O         20.3890  -19.8790   16.4090 O.2    23  GLY23      -0.2717
     32  N         21.2240  -21.7230   17.4040 N.am   24  LYS24      -0.1965
     33  CA        22.6380  -21.4010   17.1880 C.3    24  LYS24       0.1728
     34  C         23.2340  -22.0990   15.9630 C.2    24  LYS24       0.2616
     35  O         22.7610  -23.1650   15.5580 O.2    24  LYS24      -0.2715
     36  CB        23.4780  -21.7980   18.4050 C.3    24  LYS24       0.0311
     37  CG        23.0980  -21.1360   19.7150 C.3    24  LYS24       0.0038
     38  CD        23.3960  -19.6370   19.6910 C.3    24  LYS24       0.0206
     39  CE        23.5360  -19.0800   21.1010 C.3    24  LYS24       0.1093
     40  NZ        22.4660  -19.6050   22.0080 N.3    24  LYS24      -0.1314
     41  N         24.2920  -21.5080   15.4050 N.am   25  LEU25      -0.1977
     42  CA        25.0920  -22.1630   14.3790 C.3    25  LEU25       0.1596
     43  C         26.0340  -23.1600   15.0330 C.2    25  LEU25       0.2287
     44  O         26.7390  -22.8080   15.9690 O.2    25  LEU25      -0.2864
     45  CB        25.8990  -21.1460   13.5580 C.3    25  LEU25       0.0297
     46  CG        25.0550  -20.1570   12.7620 C.3    25  LEU25       0.0022
     47  CD1       25.9260  -19.2000   11.9250 C.3    25  LEU25       0.0001
     48  CD2       24.0780  -20.9230   11.8990 C.3    25  LEU25       0.0001
     49  N         31.1410  -17.5070    5.4790 N.3    32  ASP32      -0.1225
     50  CA        29.7230  -17.6610    5.2170 C.3    32  ASP32       0.1805
     51  C         28.9460  -16.4380    5.7130 C.2    32  ASP32       0.2598
     52  O         28.0720  -15.9310    5.0070 O.2    32  ASP32      -0.2718
     53  CB        29.1720  -18.9370    5.8600 C.3    32  ASP32       0.1424
     54  CG        27.6600  -18.9460    5.8990 C.2    32  ASP32       0.3668
     55  OD1       27.0410  -19.0250    4.8130 O.co2  32  ASP32      -0.2456
     56  OD2       27.0990  -18.8310    7.0070 O.co2  32  ASP32      -0.2456
     57  N         29.2650  -15.9620    6.9140 N.am   33  LEU33      -0.1966
     58  CA        28.5690  -14.7970    7.4520 C.3    33  LEU33       0.1728
     59  C         28.7890  -13.5910    6.5340 C.2    33  LEU33       0.2616
     60  O         27.8810  -12.7690    6.3400 O.2    33  LEU33      -0.2715
     61  CB        29.0260  -14.5000    8.8800 C.3    33  LEU33       0.0311
     62  CG        28.7870  -15.6800    9.8230 C.3    33  LEU33       0.0022
     63  CD1       29.1350  -15.3260   11.2650 C.3    33  LEU33       0.0001
     64  CD2       27.3510  -16.1690    9.7190 C.3    33  LEU33       0.0001
     65  N         29.9770  -13.5190    5.9320 N.am   34  LYS34      -0.1963
     66  CA        30.2910  -12.4620    4.9670 C.3    34  LYS34       0.1728
     67  C         29.4000  -12.5860    3.7580 C.2    34  LYS34       0.2616
     68  O         28.8560  -11.6060    3.2760 O.2    34  LYS34      -0.2715
     69  CB        31.7610  -12.5190    4.5420 C.3    34  LYS34       0.0311
     70  CG        32.7440  -12.1990    5.6520 C.3    34  LYS34       0.0038
     71  CD        32.3800  -10.9000    6.3680 C.3    34  LYS34       0.0206
     72  CE        33.3440  -10.5870    7.5240 C.3    34  LYS34       0.1093
     73  NZ        33.0820   -9.2350    8.1110 N.3    34  LYS34      -0.1314
     74  N         29.2580  -13.8080    3.2720 N.am   35  PHE35      -0.1960
     75  CA        28.3520  -14.0940    2.1650 C.3    35  PHE35       0.1771
     76  C         26.9220  -13.6950    2.5350 C.2    35  PHE35       0.2620
     77  O         26.2180  -13.0290    1.7660 O.2    35  PHE35      -0.2715
     78  CB        28.4310  -15.5790    1.8030 C.3    35  PHE35       0.0574
     79  CG        27.6430  -15.9480    0.5880 C.ar   35  PHE35      -0.0200
     80  CD1       27.9550  -15.4080   -0.6440 C.ar   35  PHE35      -0.0042
     81  CD2       26.5850  -16.8420    0.6740 C.ar   35  PHE35      -0.0042
     82  CE1       27.2210  -15.7390   -1.7600 C.ar   35  PHE35      -0.0003
     83  CE2       25.8590  -17.1850   -0.4530 C.ar   35  PHE35      -0.0003
     84  CZ        26.1800  -16.6260   -1.6660 C.ar   35  PHE35      -0.0000
     85  N         26.5060  -14.1050    3.7300 N.am   36  PHE36      -0.1960
     86  CA        25.2180  -13.7170    4.2800 C.3    36  PHE36       0.1771
     87  C         25.0740  -12.1880    4.3120 C.2    36  PHE36       0.2619
     88  O         24.0810  -11.6420    3.8140 O.2    36  PHE36      -0.2715
     89  CB        25.0510  -14.3160    5.6740 C.3    36  PHE36       0.0574
     90  CG        23.7500  -13.9670    6.3330 C.ar   36  PHE36      -0.0200
     91  CD1       23.7110  -13.0570    7.3860 C.ar   36  PHE36      -0.0042
     92  CD2       22.5650  -14.5490    5.9100 C.ar   36  PHE36      -0.0042
     93  CE1       22.5080  -12.7240    7.9960 C.ar   36  PHE36      -0.0003
     94  CE2       21.3610  -14.2230    6.5230 C.ar   36  PHE36      -0.0003
     95  CZ        21.3340  -13.3090    7.5690 C.ar   36  PHE36      -0.0000
     96  N         26.0820  -11.5110    4.8660 N.am   37  LYS37      -0.1977
     97  CA        26.1040  -10.0470    4.8950 C.3    37  LYS37       0.1596
     98  C         25.8870   -9.4130    3.5100 C.2    37  LYS37       0.2287
     99  O         25.0810   -8.5020    3.3880 O.2    37  LYS37      -0.2864
    100  CB        27.4200   -9.5370    5.4970 C.3    37  LYS37       0.0298
    101  CG        27.5990   -8.0740    5.6430 C.3    37  LYS37       0.0038
    102  CD        28.9640   -7.7750    6.2910 C.3    37  LYS37       0.0206
    103  CE        28.6840   -7.0030    7.5790 C.3    37  LYS37       0.1093
    104  NZ        27.8200   -5.8200    7.2770 N.3    37  LYS37      -0.1314
    105  N         13.0380  -13.5600    9.5480 N.3    47  LEU47      -0.1245
    106  CA        13.4270  -14.6090   10.4790 C.3    47  LEU47       0.1561
    107  C         12.2130  -15.1390   11.2460 C.2    47  LEU47       0.2260
    108  O         11.3580  -14.3530   11.6960 O.2    47  LEU47      -0.2867
    109  CB        14.4660  -14.0860   11.4700 C.3    47  LEU47       0.0270
    110  CG        15.8400  -13.6930   10.9120 C.3    47  LEU47       0.0019
    111  CD1       16.7570  -13.1470   12.0190 C.3    47  LEU47       0.0001
    112  CD2       16.4960  -14.8960   10.2140 C.3    47  LEU47       0.0001
    113  N         14.7840  -18.6640   15.3190 N.3    51  THR51      -0.1218
    114  CA        16.0440  -18.2140   14.7220 C.3    51  THR51       0.1862
    115  C         16.4450  -16.8330   15.2390 C.2    51  THR51       0.2287
    116  O         17.5940  -16.6080   15.6140 O.2    51  THR51      -0.2866
    117  CB        15.9470  -18.1840   13.1900 C.3    51  THR51       0.1770
    118  OG1       15.8320  -19.5210   12.7180 O.3    51  THR51      -0.2211
    119  CG2       17.1820  -17.5430   12.5740 C.3    51  THR51       0.0375
    120  N         17.7210  -17.2820   18.6410 N.3    54  GLY54      -0.1210
    121  CA        19.0540  -17.8610   18.6000 C.3    54  GLY54       0.1956
    122  C         20.1490  -16.8590   18.2420 C.2    54  GLY54       0.2611
    123  O         21.3310  -17.1520   18.3730 O.2    54  GLY54      -0.2717
    124  N         19.7540  -15.6830   17.7700 N.am   55  MET55      -0.1979
    125  CA        20.6960  -14.6050   17.5130 C.3    55  MET55       0.1605
    126  C         20.6690  -13.5920   18.6520 C.2    55  MET55       0.2287
    127  O         21.1640  -12.4640   18.5110 O.2    55  MET55      -0.2864
    128  CB        20.3750  -13.9100   16.1890 C.3    55  MET55       0.0413
    129  CG        20.5670  -14.7900   14.9660 C.3    55  MET55       0.0598
    130  SD        19.9280  -14.0170   13.4780 S.3    55  MET55      -0.1393
    131  CE        20.9820  -12.5590   13.3600 C.3    55  MET55       0.0692
    132  N         20.3700   -7.0760   13.0740 N.3    60  LEU60      -0.1231
    133  CA        21.6150   -6.8050   12.3770 C.3    60  LEU60       0.1678
    134  C         21.5320   -5.3880   11.8660 C.2    60  LEU60       0.2434
    135  O         20.4480   -4.9330   11.5080 O.2    60  LEU60      -0.2733
    136  CB        21.8460   -7.7860   11.2250 C.3    60  LEU60       0.0284
    137  CG        22.2870   -9.2200   11.5380 C.3    60  LEU60       0.0019
    138  CD1       22.2140  -10.0520   10.2590 C.3    60  LEU60       0.0001
    139  CD2       23.6850   -9.2730   12.1410 C.3    60  LEU60       0.0001
    140  N         22.6710   -4.6840   11.8330 N.am   61  PRO61      -0.2718
    141  CA        22.6800   -3.3060   11.3320 C.3    61  PRO61       0.1535
    142  C         22.5420   -3.2210    9.8030 C.2    61  PRO61       0.2599
    143  O         22.9070   -4.1470    9.0910 O.2    61  PRO61      -0.2715
    144  CB        24.0410   -2.7810   11.7980 C.3    61  PRO61       0.0310
    145  CG        24.8910   -3.9910   11.8890 C.3    61  PRO61       0.0237
    146  CD        23.9970   -5.1140   12.3090 C.3    61  PRO61       0.0939
    147  N         21.9760   -2.1170    9.3280 N.am   62  ASN62      -0.1959
    148  CA        21.9510   -1.7530    7.9090 C.3    62  ASN62       0.1819
    149  C         21.0030   -2.5830    7.0720 C.2    62  ASN62       0.2621
    150  O         21.1870   -2.7110    5.8540 O.2    62  ASN62      -0.2715
    151  CB        23.3530   -1.8370    7.2950 C.3    62  ASN62       0.1195
    152  CG        24.3650   -1.0410    8.0640 C.2    62  ASN62       0.2630
    153  OD1       24.0910    0.0760    8.4950 O.2    62  ASN62      -0.2716
    154  ND2       25.5440   -1.6190    8.2590 N.am   62  ASN62      -0.0877
    155  N         19.9920   -3.1410    7.7210 N.am   63  ARG63      -0.1977
    156  CA        18.8800   -3.7510    7.0080 C.3    63  ARG63       0.1597
    157  C         17.6720   -3.8580    7.9000 C.2    63  ARG63       0.2287
    158  O         17.7690   -3.7990    9.1310 O.2    63  ARG63      -0.2864
    159  CB        19.2440   -5.1320    6.4950 C.3    63  ARG63       0.0334
    160  CG        20.0110   -5.9510    7.4870 C.3    63  ARG63       0.0492
    161  CD        21.0190   -6.7910    6.7470 C.3    63  ARG63       0.2205
    162  NE        21.9720   -7.3730    7.6650 N.pl3  63  ARG63      -0.0865
    163  CZ        23.1320   -6.8150    7.9750 C.cat  63  ARG63       0.5346
    164  NH1       23.4830   -5.6530    7.4370 N.pl3  63  ARG63       0.1354
    165  NH2       23.9350   -7.4120    8.8380 N.pl3  63  ARG63       0.1354
    166  N         15.7970  -15.7270    5.9730 N.3   102  GLY102     -0.1225
    167  CA        17.0080  -16.1560    6.6450 C.3   102  GLY102      0.1811
    168  C         16.8270  -17.3820    7.5000 C.2   102  GLY102      0.2280
    169  O         17.7930  -17.8970    8.0600 O.2   102  GLY102     -0.2866
    170  N         11.5170  -21.3960    6.1160 N.3   108  PHE108     -0.1241
    171  CA        12.0070  -21.8490    4.8170 C.3   108  PHE108      0.1605
    172  C         10.9390  -22.6750    4.0660 C.2   108  PHE108      0.2264
    173  O         10.5770  -22.3690    2.9260 O.2   108  PHE108     -0.2867
    174  CB        13.2860  -22.6750    4.9900 C.3   108  PHE108      0.0534
    175  CG        14.5300  -21.8490    5.2320 C.ar  108  PHE108     -0.0203
    176  CD1       14.7330  -20.6430    4.5680 C.ar  108  PHE108     -0.0042
    177  CD2       15.5070  -22.2990    6.1090 C.ar  108  PHE108     -0.0042
    178  CE1       15.9020  -19.8950    4.7880 C.ar  108  PHE108     -0.0003
    179  CE2       16.6540  -21.5730    6.3390 C.ar  108  PHE108     -0.0003
    180  CZ        16.8570  -20.3680    5.6770 C.ar  108  PHE108     -0.0000
    181  N         24.9490  -22.0260    1.3590 N.3   121  THR121     -0.1218
    182  CA        26.3180  -22.4340    1.6160 C.3   121  THR121      0.1862
    183  C         26.3370  -23.9170    1.9980 C.2   121  THR121      0.2287
    184  O         25.8060  -24.2980    3.0250 O.2   121  THR121     -0.2866
    185  CB        26.9480  -21.6020    2.7190 C.3   121  THR121      0.1770
    186  OG1       26.8500  -20.2210    2.3640 O.3   121  THR121     -0.2211
    187  CG2       28.4080  -21.9770    2.9260 C.3   121  THR121      0.0375
@<TRIPOS>BOND
     1    82    84   ar
     2    82    80   ar
     3    84    83   ar
     4    80    79   ar
     5    83    81   ar
     6    22    21   ar
     7    22    20   ar
     8    21    19   ar
     9    79    81   ar
    10    79    78    1
    11    20    18   ar
    12   181   182    1
    13   182   183    1
    14   182   185    1
    15    19    16   ar
    16    77    76    2
    17    78    75    1
    18     1     2    1
    19   183   184    2
    20     8     6    1
    21    18    16   ar
    22    18    17   ar
    23     2     5    1
    24     2     3    1
    25    75    76    1
    26    75    74    1
    27     5     6    1
    28     5     7    1
    29   186   185    1
    30    16    14   ar
    31    76    85   am
    32   185   187    1
    33   173   172    2
    34    17    15   ar
    35    12    11    2
    36     9     3   am
    37     9    10    1
    38    74    67   am
    39    68    67    2
    40     3     4    2
    41    99    98    2
    42    98    97    1
    43    85    86    1
    44    67    66    1
    45    14    15   ar
    46    14    13    1
    47    88    87    2
    48   172   171    1
    49    86    87    1
    50    86    89    1
    51    11    10    1
    52    11    23   am
    53    87    96   am
    54    10    13    1
    55    69    66    1
    56    69    70    1
    57   176   178   ar
    58   176   175   ar
    59   178   180   ar
    60    55    54   ar
    61   171   174    1
    62   171   170    1
    63    96    97    1
    64    97   100    1
    65    66    65    1
    66   174   175    1
    67    52    51    2
    68    50    49    1
    69    50    51    1
    70    50    53    1
    71   175   177   ar
    72    23    24    1
    73    24    25    1
    74    24    27    1
    75   100   101    1
    76   101   102    1
    77    70    71    1
    78    89    90    1
    79   180   179   ar
    80    51    57   am
    81   150   149    2
    82    53    54    1
    83    54    56   ar
    84    92    90   ar
    85    92    94   ar
    86    65    59   am
    87   166   167    1
    88   177   179   ar
    89    25    26    2
    90   102   103    1
    91    90    91   ar
    92    60    59    2
    93    71    72    1
    94   159   156    1
    95   159   160    1
    96    94    95   ar
    97    59    58    1
    98   167   168    1
    99   161   160    1
   100   161   162    1
   101    57    58    1
   102   156   155    1
   103   156   157    1
   104   149   155   am
   105   149   148    1
   106   104   103    1
   107   151   148    1
   108   151   152    1
   109    91    93   ar
   110   164   163    1
   111    58    61    1
   112   168   169    2
   113    72    73    1
   114    95    93   ar
   115   162   163    2
   116   157   158    2
   117   148   147    1
   118   163   165    1
   119   152   154   am
   120   152   153    2
   121    61    62    1
   122   143   142    2
   123   147   142   am
   124   105   106    1
   125    64    62    1
   126   142   141    1
   127    62    63    1
   128   112   110    1
   129   138   137    1
   130   106   107    1
   131   106   109    1
   132   110   109    1
   133   110   111    1
   134   136   137    1
   135   136   133    1
   136   107   108    2
   137   141   144    1
   138   141   140    1
   139   135   134    2
   140   137   139    1
   141   144   145    1
   142   140   134   am
   143   140   146    1
   144   134   133    1
   145   145   146    1
   146    48    46    1
   147    47    46    1
   148   133   132    1
   149   119   117    1
   150   118   117    1
   151    46    45    1
   152   117   114    1
   153   131   130    1
   154   130   129    1
   155    45    42    1
   156    42    43    1
   157    42    41    1
   158   114   115    1
   159   114   113    1
   160   129   128    1
   161    43    44    2
   162   115   116    2
   163    41    34   am
   164    35    34    2
   165    34    33    1
   166   128   125    1
   167    31    30    2
   168    30    29    1
   169    30    32   am
   170    33    32    1
   171    33    36    1
   172    29    28    1
   173   125   124    1
   174   125   126    1
   175   124   122   am
   176   122   123    2
   177   122   121    1
   178    36    37    1
   179   127   126    2
   180   121   120    1
   181    38    37    1
   182    38    39    1
   183    39    40    1
