@<TRIPOS>MOLECULE
tmp/4m7xA00.pdb
 151 139 0 0 0
SMALL
GASTEIGER

@<TRIPOS>ATOM
      1  N         17.1570   26.7850    3.4560 N.3     6  ASP6       -0.1239
      2  CA        16.9390   25.3910    3.8220 C.3     6  ASP6        0.1674
      3  C         18.3460   24.8990    4.1830 C.2     6  ASP6        0.2266
      4  O         19.1750   24.6450    3.3180 O.2     6  ASP6       -0.2867
      5  CB        16.3440   24.6190    2.6370 C.3     6  ASP6        0.1410
      6  CG        16.1750   23.1720    2.9120 C.2     6  ASP6        0.3668
      7  OD1       16.5790   22.7110    3.9840 O.co2   6  ASP6       -0.2456
      8  OD2       15.6230   22.4750    2.0560 O.co2   6  ASP6       -0.2456
      9  N         20.2820   22.1880    5.3330 N.3     8  GLY8       -0.1210
     10  CA        20.1750   20.7260    5.4340 C.3     8  GLY8        0.1956
     11  C         21.4040   20.0680    6.0260 C.2     8  GLY8        0.2612
     12  O         22.3140   20.7220    6.5320 O.2     8  GLY8       -0.2717
     13  N         21.4390   18.7530    5.9410 N.am    9  GLY9       -0.1942
     14  CA        22.5350   17.9970    6.4950 C.3     9  GLY9        0.2014
     15  C         23.8690   18.1710    5.8080 C.2     9  GLY9        0.2640
     16  O         24.8970   18.0400    6.4400 O.2     9  GLY9       -0.2714
     17  N         23.8500   18.4650    4.5130 N.am   10  THR10      -0.1936
     18  CA        25.0870   18.6430    3.7320 C.3    10  THR10       0.2028
     19  C         25.1700   19.9930    3.0360 C.2    10  THR10       0.2642
     20  O         26.2580   20.5930    3.0250 O.2    10  THR10      -0.2714
     21  CB        25.2530   17.5190    2.6960 C.3    10  THR10       0.1808
     22  OG1       25.1720   16.2660    3.3820 O.3    10  THR10      -0.2208
     23  CG2       26.5880   17.6090    1.9640 C.3    10  THR10       0.0379
     24  N         24.0650   20.4730    2.4810 N.am   11  LEU11      -0.1977
     25  CA        24.0620   21.7500    1.8000 C.3    11  LEU11       0.1596
     26  C         23.0530   22.6940    2.4030 C.2    11  LEU11       0.2287
     27  O         21.9620   22.2840    2.8490 O.2    11  LEU11      -0.2864
     28  CB        23.7450   21.6230    0.3270 C.3    11  LEU11       0.0297
     29  CG        24.6640   20.6780   -0.4730 C.3    11  LEU11       0.0022
     30  CD1       24.2230   20.5790   -1.9010 C.3    11  LEU11       0.0001
     31  CD2       26.1050   21.1030   -0.3660 C.3    11  LEU11       0.0001
     32  N         20.7900   25.7070    1.1600 N.3    13  LYS13      -0.1245
     33  CA        20.2040   26.2320   -0.0540 C.3    13  LYS13       0.1561
     34  C         19.5810   27.5500    0.2880 C.2    13  LYS13       0.2260
     35  O         18.7390   27.6320    1.2230 O.2    13  LYS13      -0.2867
     36  CB        19.0890   25.2860   -0.5860 C.3    13  LYS13       0.0271
     37  CG        19.5870   24.0950   -1.3780 C.3    13  LYS13       0.0035
     38  CD        20.2740   23.0450   -0.5630 C.3    13  LYS13       0.0206
     39  CE        19.3270   22.4510    0.4860 C.3    13  LYS13       0.1093
     40  NZ        19.9150   21.2820    1.1750 N.3    13  LYS13      -0.1314
     41  N         24.1490   28.1220   -3.0660 N.3    26  THR26      -0.1218
     42  CA        24.4160   27.0190   -2.1620 C.3    26  THR26       0.1862
     43  C         25.7080   27.2160   -1.4280 C.2    26  THR26       0.2287
     44  O         26.6300   27.8810   -1.9140 O.2    26  THR26      -0.2866
     45  CB        24.4940   25.6470   -2.8630 C.3    26  THR26       0.1770
     46  OG1       25.4660   25.6970   -3.9090 O.3    26  THR26      -0.2211
     47  CG2       23.1560   25.2380   -3.4240 C.3    26  THR26       0.0375
     48  N         28.1260   24.7950    1.5740 N.3    28  LEU28      -0.1245
     49  CA        28.2090   23.5800    2.4000 C.3    28  LEU28       0.1561
     50  C         27.7630   23.8660    3.8290 C.2    28  LEU28       0.2260
     51  O         28.0950   24.9050    4.4270 O.2    28  LEU28      -0.2867
     52  CB        29.6730   23.0650    2.4250 C.3    28  LEU28       0.0270
     53  CG        30.2800   22.6930    1.0780 C.3    28  LEU28       0.0019
     54  CD1       31.7150   22.2670    1.3360 C.3    28  LEU28       0.0001
     55  CD2       29.5370   21.5850    0.3740 C.3    28  LEU28       0.0001
     56  N         10.5130   21.0980    7.5260 N.3    70  GLU70      -0.1245
     57  CA        11.0210   20.9280    6.1940 C.3    70  GLU70       0.1567
     58  C         10.0720   20.1980    5.3130 C.2    70  GLU70       0.2260
     59  O         10.0840   20.4290    4.1170 O.2    70  GLU70      -0.2867
     60  CB        12.4400   20.2770    6.1260 C.3    70  GLU70       0.0388
     61  CG        12.5490   18.8180    6.5360 C.3    70  GLU70       0.1160
     62  CD        13.9500   18.2620    6.2980 C.2    70  GLU70       0.3649
     63  OE1       14.2640   17.8330    5.1570 O.co2  70  GLU70      -0.2457
     64  OE2       14.7500   18.2510    7.2480 O.co2  70  GLU70      -0.2457
     65  N         12.5880   13.0200   -1.8350 N.3    96  ASN96      -0.1240
     66  CA        13.5490   14.0630   -1.5440 C.3    96  ASN96       0.1653
     67  C         14.8460   13.3450   -1.2170 C.2    96  ASN96       0.2266
     68  O         15.0440   12.8660   -0.0900 O.2    96  ASN96      -0.2867
     69  CB        13.0210   14.9220   -0.3880 C.3    96  ASN96       0.1155
     70  CG        13.8270   16.1480   -0.1620 C.2    96  ASN96       0.2627
     71  OD1       14.9100   16.3110   -0.7300 O.2    96  ASN96      -0.2716
     72  ND2       13.3270   17.0390    0.7240 N.am   96  ASN96      -0.0877
     73  N         18.1680   13.7580   -0.4340 N.3    98  GLY98      -0.1210
     74  CA        19.1260   14.6690    0.1570 C.3    98  GLY98       0.1956
     75  C         20.2740   13.9130    0.7320 C.2    98  GLY98       0.2612
     76  O         20.7140   12.9060    0.1440 O.2    98  GLY98      -0.2717
     77  N         20.7380   14.3060    1.9190 N.am   99  THR99      -0.1952
     78  CA        21.7530   13.5530    2.6050 C.3    99  THR99       0.1897
     79  C         21.2410   12.1140    2.8030 C.2    99  THR99       0.2313
     80  O         21.9680   11.1600    2.5820 O.2    99  THR99      -0.2863
     81  CB        22.1270   14.1930    3.9290 C.3    99  THR99       0.1794
     82  OG1       22.5990   15.5600    3.6830 O.3    99  THR99      -0.2208
     83  CG2       23.2060   13.4460    4.5570 C.3    99  THR99       0.0378
     84  N         22.3180   10.8630   -0.9100 N.3   121  GLY121     -0.1210
     85  CA        23.5560   11.5330   -1.2440 C.3   121  GLY121      0.1956
     86  C         24.7020   11.3330   -0.2710 C.2   121  GLY121      0.2612
     87  O         25.8510   11.3280   -0.6270 O.2   121  GLY121     -0.2717
     88  N         24.3910   11.2400    1.0240 N.am  122  GLY122     -0.1956
     89  CA        25.4060   11.0180    2.0280 C.3   122  GLY122      0.1869
     90  C         26.1210    9.6790    1.8690 C.2   122  GLY122      0.2309
     91  O         27.3280    9.5870    2.0840 O.2   122  GLY122     -0.2863
     92  N         26.3480    8.1120   -1.0900 N.3   124  ILE124     -0.1231
     93  CA        27.1720    8.2680   -2.2920 C.3   124  ILE124      0.1692
     94  C         28.5340    8.8550   -1.8860 C.2   124  ILE124      0.2591
     95  O         29.5980    8.3420   -2.2560 O.2   124  ILE124     -0.2718
     96  CB        26.4410    9.1220   -3.3150 C.3   124  ILE124      0.0266
     97  CG1       25.2590    8.3580   -3.8480 C.3   124  ILE124      0.0019
     98  CG2       27.3790    9.5310   -4.4310 C.3   124  ILE124      0.0020
     99  CD1       24.3590    9.1360   -4.7940 C.3   124  ILE124      0.0001
    100  N         28.5000    9.9420   -1.1090 N.am  125  GLN125     -0.1979
    101  CA        29.7820   10.5470   -0.6850 C.3   125  GLN125      0.1601
    102  C         30.6230    9.6710    0.2530 C.2   125  GLN125      0.2287
    103  O         31.8140    9.5740    0.1140 O.2   125  GLN125     -0.2864
    104  CB        29.5730   11.8970   -0.0070 C.3   125  GLN125      0.0394
    105  CG        28.9990   12.9420   -0.9240 C.3   125  GLN125      0.0908
    106  CD        28.8880   14.2540   -0.2800 C.2   125  GLN125      0.2608
    107  OE1       27.8660   14.5410    0.4190 O.2   125  GLN125     -0.2717
    108  NE2       29.9060   15.0660   -0.4680 N.am  125  GLN125     -0.0878
    109  N         33.2640   16.3640   -4.2610 N.3   137  TYR137     -0.1241
    110  CA        31.9740   15.8920   -4.7910 C.3   137  TYR137      0.1605
    111  C         31.9810   15.8530   -6.3470 C.2   137  TYR137      0.2264
    112  O         31.5440   14.8820   -6.9510 O.2   137  TYR137     -0.2867
    113  CB        30.8210   16.7820   -4.3240 C.3   137  TYR137      0.0534
    114  CG        29.5090   16.3310   -4.8990 C.ar  137  TYR137     -0.0201
    115  CD1       28.8660   15.2170   -4.4030 C.ar  137  TYR137     -0.0009
    116  CD2       28.9280   16.9980   -5.9790 C.ar  137  TYR137     -0.0009
    117  CE1       27.6990   14.7870   -4.9280 C.ar  137  TYR137      0.0417
    118  CE2       27.7420   16.5770   -6.5140 C.ar  137  TYR137      0.0417
    119  CZ        27.1210   15.4690   -5.9760 C.ar  137  TYR137      0.1957
    120  OH        25.9580   15.0320   -6.4750 O.3   137  TYR137     -0.2866
    121  N         16.1430   16.8950   -4.8940 N.3   224  GLY224     -0.1210
    122  CA        17.2890   16.7810   -4.0210 C.3   224  GLY224      0.1956
    123  C         18.5710   17.0720   -4.7150 C.2   224  GLY224      0.2613
    124  O         18.7640   16.8460   -5.9450 O.2   224  GLY224     -0.2717
    125  N         19.5340   17.5410   -3.9570 N.am  225  SER225     -0.1938
    126  CA        20.7720   17.9040   -4.5280 C.3   225  SER225      0.2055
    127  C         21.5890   16.6870   -4.9700 C.2   225  SER225      0.2643
    128  O         22.5150   16.8450   -5.6620 O.2   225  SER225     -0.2714
    129  CB        21.6230   18.7870   -3.6040 C.3   225  SER225      0.2130
    130  OG        20.8850   19.9300   -3.1270 O.3   225  SER225     -0.2179
    131  N         21.1820   15.4860   -4.5820 N.am  226  SER226     -0.1949
    132  CA        21.9180   14.2820   -4.9230 C.3   226  SER226      0.1924
    133  C         21.9410   14.0510   -6.4060 C.2   226  SER226      0.2314
    134  O         22.8250   13.3370   -6.9030 O.2   226  SER226     -0.2863
    135  CB        21.2810   13.0940   -4.2720 C.3   226  SER226      0.2116
    136  OG        21.4190   13.1790   -2.8530 O.3   226  SER226     -0.2180
    137  N         22.4160   16.5060   -8.5980 N.3   228  HIS228     -0.1241
    138  CA        23.2700   17.5080   -9.2030 C.3   228  HIS228      0.1621
    139  C         24.5720   16.8970   -9.6200 C.2   228  HIS228      0.2264
    140  O         25.2410   16.2190   -8.8220 O.2   228  HIS228     -0.2867
    141  CB        23.5470   18.6540   -8.2330 C.3   228  HIS228      0.0745
    142  CG        24.5190   19.6720   -8.7740 C.ar  228  HIS228      0.0817
    143  ND1       24.2550   20.4170   -9.8700 N.ar  228  HIS228     -0.2268
    144  CD2       25.7940   20.0250   -8.3630 C.ar  228  HIS228      0.1154
    145  CE1       25.2940   21.2100  -10.1220 C.ar  228  HIS228      0.1986
    146  NE2       26.2320   20.9780   -9.2060 N.ar  228  HIS228     -0.2212
    147  N         15.9140   21.1530   -5.9320 N.3   255  ALA255     -0.1245
    148  CA        16.6530   21.1070   -4.6850 C.3   255  ALA255      0.1562
    149  C         16.4320   22.3130   -3.7680 C.2   255  ALA255      0.2260
    150  O         16.7730   22.2640   -2.6160 O.2   255  ALA255     -0.2867
    151  CB        18.1560   20.9100   -4.9380 C.3   255  ALA255      0.0290
@<TRIPOS>BOND
     1   145   143   ar
     2   145   146   ar
     3   143   142   ar
     4   139   138    1
     5   139   140    2
     6   146   144   ar
     7   138   137    1
     8   138   141    1
     9   142   144   ar
    10   142   141    1
    11   112   111    2
    12   134   133    2
    13   118   116   ar
    14   118   119   ar
    15   120   119    1
    16   133   132    1
    17   111   110    1
    18   116   114   ar
    19   119   117   ar
    20   124   123    2
    21   147   148    1
    22   128   127    2
    23   127   131   am
    24   127   126    1
    25   151   148    1
    26   117   115   ar
    27   132   131    1
    28   132   135    1
    29   114   115   ar
    30   114   113    1
    31   121   122    1
    32    99    97    1
    33   110   113    1
    34   110   109    1
    35   123   122    1
    36   123   125   am
    37   148   149    1
    38   126   125    1
    39   126   129    1
    40    98    96    1
    41   135   136    1
    42    46    45    1
    43    97    96    1
    44   149   150    2
    45   129   130    1
    46    47    45    1
    47    96    93    1
    48    41    42    1
    49    45    42    1
    50    93    94    1
    51    93    92    1
    52    95    94    2
    53    42    43    1
    54    44    43    2
    55    30    29    1
    56    94   100   am
    57    65    66    1
    58    66    67    1
    59    66    69    1
    60    37    36    1
    61    37    38    1
    62    85    84    1
    63    85    86    1
    64    67    68    2
    65   100   101    1
    66   105   106    1
    67   105   104    1
    68    71    70    2
    69   101   104    1
    70   101   102    1
    71    87    86    2
    72    36    33    1
    73    38    39    1
    74    29    31    1
    75    29    28    1
    76   108   106   am
    77    73    74    1
    78    69    70    1
    79   106   107    2
    80    86    88   am
    81    70    72   am
    82    33    34    1
    83    33    32    1
    84   103   102    2
    85    76    75    2
    86    74    75    1
    87    34    35    2
    88    28    25    1
    89    55    53    1
    90    39    40    1
    91    75    77   am
    92    88    89    1
    93    53    54    1
    94    53    52    1
    95    48    49    1
    96    25    26    1
    97    25    24    1
    98    90    89    1
    99    90    91    2
   100    77    78    1
   101    23    21    1
   102     8     6   ar
   103    49    52    1
   104    49    50    1
   105    26    27    2
   106    24    19   am
   107    80    79    2
   108    78    79    1
   109    78    81    1
   110     5     6    1
   111     5     2    1
   112    21    22    1
   113    21    18    1
   114     6     7   ar
   115    20    19    2
   116    19    18    1
   117     4     3    2
   118     1     2    1
   119    82    81    1
   120    18    17    1
   121     2     3    1
   122    50    51    2
   123    81    83    1
   124    59    58    2
   125    17    15   am
   126    63    62   ar
   127    58    57    1
   128     9    10    1
   129    10    11    1
   130    15    16    2
   131    15    14    1
   132    13    11   am
   133    13    14    1
   134    11    12    2
   135    60    57    1
   136    60    61    1
   137    57    56    1
   138    62    61    1
   139    62    64   ar
