@<TRIPOS>MOLECULE
tmp/4m7xA01.pdb
 112 104 0 0 0
SMALL
GASTEIGER

@<TRIPOS>ATOM
      1  N         17.1570   26.7850    3.4560 N.3     6  ASP6       -0.1239
      2  CA        16.9390   25.3910    3.8220 C.3     6  ASP6        0.1674
      3  C         18.3460   24.8990    4.1830 C.2     6  ASP6        0.2266
      4  O         19.1750   24.6450    3.3180 O.2     6  ASP6       -0.2867
      5  CB        16.3440   24.6190    2.6370 C.3     6  ASP6        0.1410
      6  CG        16.1750   23.1720    2.9120 C.2     6  ASP6        0.3668
      7  OD1       16.5790   22.7110    3.9840 O.co2   6  ASP6       -0.2456
      8  OD2       15.6230   22.4750    2.0560 O.co2   6  ASP6       -0.2456
      9  N         20.2820   22.1880    5.3330 N.3     8  GLY8       -0.1210
     10  CA        20.1750   20.7260    5.4340 C.3     8  GLY8        0.1956
     11  C         21.4040   20.0680    6.0260 C.2     8  GLY8        0.2612
     12  O         22.3140   20.7220    6.5320 O.2     8  GLY8       -0.2717
     13  N         21.4390   18.7530    5.9410 N.am    9  GLY9       -0.1956
     14  CA        22.5350   17.9970    6.4950 C.3     9  GLY9        0.1869
     15  C         23.8690   18.1710    5.8080 C.2     9  GLY9        0.2309
     16  O         24.8970   18.0400    6.4400 O.2     9  GLY9       -0.2863
     17  N         20.7900   25.7070    1.1600 N.3    13  LYS13      -0.1245
     18  CA        20.2040   26.2320   -0.0540 C.3    13  LYS13       0.1561
     19  C         19.5810   27.5500    0.2880 C.2    13  LYS13       0.2260
     20  O         18.7390   27.6320    1.2230 O.2    13  LYS13      -0.2867
     21  CB        19.0890   25.2860   -0.5860 C.3    13  LYS13       0.0271
     22  CG        19.5870   24.0950   -1.3780 C.3    13  LYS13       0.0035
     23  CD        20.2740   23.0450   -0.5630 C.3    13  LYS13       0.0206
     24  CE        19.3270   22.4510    0.4860 C.3    13  LYS13       0.1093
     25  NZ        19.9150   21.2820    1.1750 N.3    13  LYS13      -0.1314
     26  N         17.3770   20.9110    9.1180 N.3    52  GLY52      -0.1225
     27  CA        17.9130   20.5480   10.3930 C.3    52  GLY52       0.1811
     28  C         18.8410   21.5470   11.0290 C.2    52  GLY52       0.2280
     29  O         18.8940   21.6450   12.2270 O.2    52  GLY52      -0.2866
     30  N         10.5130   21.0980    7.5260 N.3    70  GLU70      -0.1231
     31  CA        11.0210   20.9280    6.1940 C.3    70  GLU70       0.1699
     32  C         10.0720   20.1980    5.3130 C.2    70  GLU70       0.2592
     33  O         10.0840   20.4290    4.1170 O.2    70  GLU70      -0.2718
     34  CB        12.4400   20.2770    6.1260 C.3    70  GLU70       0.0402
     35  CG        12.5490   18.8180    6.5360 C.3    70  GLU70       0.1161
     36  CD        13.9500   18.2620    6.2980 C.2    70  GLU70       0.3649
     37  OE1       14.2640   17.8330    5.1570 O.co2  70  GLU70      -0.2457
     38  OE2       14.7500   18.2510    7.2480 O.co2  70  GLU70      -0.2457
     39  N          9.2940   19.2520    5.8630 N.am   71  PHE71      -0.1976
     40  CA         8.4200   18.4310    4.9930 C.3    71  PHE71       0.1639
     41  C          7.3350   19.2810    4.3470 C.2    71  PHE71       0.2290
     42  O          7.0910   19.1570    3.1390 O.2    71  PHE71      -0.2864
     43  CB         7.8020   17.2490    5.7230 C.3    71  PHE71       0.0560
     44  CG         8.8070   16.3410    6.3870 C.ar   71  PHE71      -0.0200
     45  CD1       10.0460   16.0700    5.8070 C.ar   71  PHE71      -0.0042
     46  CD2        8.4900   15.7080    7.6040 C.ar   71  PHE71      -0.0042
     47  CE1       10.9560   15.2190    6.4270 C.ar   71  PHE71      -0.0003
     48  CE2        9.3870   14.8370    8.2010 C.ar   71  PHE71      -0.0003
     49  CZ        10.6070   14.6170    7.6430 C.ar   71  PHE71      -0.0000
     50  N         12.5880   13.0200   -1.8350 N.3    96  ASN96      -0.1240
     51  CA        13.5490   14.0630   -1.5440 C.3    96  ASN96       0.1653
     52  C         14.8460   13.3450   -1.2170 C.2    96  ASN96       0.2266
     53  O         15.0440   12.8660   -0.0900 O.2    96  ASN96      -0.2867
     54  CB        13.0210   14.9220   -0.3880 C.3    96  ASN96       0.1155
     55  CG        13.8270   16.1480   -0.1620 C.2    96  ASN96       0.2627
     56  OD1       14.9100   16.3110   -0.7300 O.2    96  ASN96      -0.2716
     57  ND2       13.3270   17.0390    0.7240 N.am   96  ASN96      -0.0877
     58  N         18.1680   13.7580   -0.4340 N.3    98  GLY98      -0.1210
     59  CA        19.1260   14.6690    0.1570 C.3    98  GLY98       0.1956
     60  C         20.2740   13.9130    0.7320 C.2    98  GLY98       0.2613
     61  O         20.7140   12.9060    0.1440 O.2    98  GLY98      -0.2717
     62  N         20.7380   14.3060    1.9190 N.am   99  THR99      -0.1938
     63  CA        21.7530   13.5530    2.6050 C.3    99  THR99       0.2028
     64  C         21.2410   12.1140    2.8030 C.2    99  THR99       0.2643
     65  O         21.9680   11.1600    2.5820 O.2    99  THR99      -0.2714
     66  CB        22.1270   14.1930    3.9290 C.3    99  THR99       0.1808
     67  OG1       22.5990   15.5600    3.6830 O.3    99  THR99      -0.2208
     68  CG2       23.2060   13.4460    4.5570 C.3    99  THR99       0.0379
     69  N         19.9870   12.0130    3.2100 N.am  100  GLY100     -0.1939
     70  CA        19.2170   10.7930    3.1590 C.3   100  GLY100      0.2014
     71  C         17.9330   11.0120    2.3870 C.2   100  GLY100      0.2640
     72  O         17.6970   12.1160    1.9030 O.2   100  GLY100     -0.2714
     73  N         17.0670    9.9980    2.3100 N.am  101  THR101     -0.1936
     74  CA        15.9070   10.0790    1.4320 C.3   101  THR101      0.2028
     75  C         14.6180   10.0450    2.2140 C.2   101  THR101      0.2642
     76  O         14.3750    9.1070    3.0140 O.2   101  THR101     -0.2714
     77  CB        15.9390    8.9750    0.3870 C.3   101  THR101      0.1808
     78  OG1       17.1220    9.1600   -0.4100 O.3   101  THR101     -0.2208
     79  CG2       14.6960    8.9660   -0.4410 C.3   101  THR101      0.0379
     80  N         13.7540   11.0030    1.9540 N.am  102  SER102     -0.1949
     81  CA        12.4250   11.0880    2.5690 C.3   102  SER102      0.1924
     82  C         11.3680   10.9930    1.4800 C.2   102  SER102      0.2314
     83  O         11.5100   11.6490    0.4490 O.2   102  SER102     -0.2863
     84  CB        12.3490   12.4190    3.3010 C.3   102  SER102      0.2116
     85  OG        11.1970   12.4600    4.1110 O.3   102  SER102     -0.2180
     86  N          4.3260   12.1210    5.0410 N.3   113  ARG113     -0.1245
     87  CA         5.5160   11.3250    4.8800 C.3   113  ARG113      0.1563
     88  C          5.1130    9.8770    4.9520 C.2   113  ARG113      0.2260
     89  O          4.3690    9.4650    5.8890 O.2   113  ARG113     -0.2867
     90  CB         6.5470   11.6140    5.9490 C.3   113  ARG113      0.0307
     91  CG         7.9050   10.9870    5.7110 C.3   113  ARG113      0.0489
     92  CD         8.9110   11.5240    6.7230 C.3   113  ARG113      0.2205
     93  NE        10.2880   11.1390    6.4380 N.pl3 113  ARG113     -0.0865
     94  CZ        10.8440    9.9940    6.8100 C.cat 113  ARG113      0.5346
     95  NH1       10.1740    9.1000    7.4940 N.pl3 113  ARG113      0.1354
     96  NH2       12.0930    9.7710    6.5160 N.pl3 113  ARG113      0.1354
     97  N         11.0490    6.4890    4.3630 N.3   116  GLY116     -0.1210
     98  CA        12.3270    7.0720    4.1880 C.3   116  GLY116      0.1956
     99  C         13.3800    6.0120    4.3010 C.2   116  GLY116      0.2612
    100  O         13.1100    4.8740    4.7480 O.2   116  GLY116     -0.2717
    101  N         14.5900    6.3550    3.9010 N.am  117  ILE117     -0.1965
    102  CA        15.7000    5.4050    3.9160 C.3   117  ILE117      0.1727
    103  C         17.0080    6.1540    3.9340 C.2   117  ILE117      0.2616
    104  O         17.0750    7.2750    3.4350 O.2   117  ILE117     -0.2715
    105  CB        15.5890    4.4370    2.7230 C.3   117  ILE117      0.0290
    106  CG1       16.5050    3.2290    2.8700 C.3   117  ILE117      0.0022
    107  CG2       15.7240    5.1490    1.4070 C.3   117  ILE117      0.0023
    108  CD1       16.2140    2.3700    4.0720 C.3   117  ILE117      0.0001
    109  N         18.0650    5.5670    4.5150 N.am  118  GLY118     -0.1955
    110  CA        19.3450    6.2590    4.6130 C.3   118  GLY118      0.1869
    111  C         20.2160    6.1450    3.3790 C.2   118  GLY118      0.2309
    112  O         21.3780    6.5410    3.3740 O.2   118  GLY118     -0.2863
@<TRIPOS>BOND
     1    50    51    1
     2    51    52    1
     3    51    54    1
     4    22    21    1
     5    22    23    1
     6    52    53    2
     7    56    55    2
     8    21    18    1
     9    23    24    1
    10    79    77    1
    11    58    59    1
    12    78    77    1
    13    54    55    1
    14    55    57   am
    15    18    19    1
    16    18    17    1
    17    61    60    2
    18    59    60    1
    19    19    20    2
    20    77    74    1
    21    83    82    2
    22    24    25    1
    23    60    62   am
    24   107   105    1
    25    74    75    1
    26    74    73    1
    27    82    81    1
    28    72    71    2
    29    62    63    1
    30    80    75   am
    31    80    81    1
    32     8     6   ar
    33    75    76    2
    34    73    71   am
    35    71    70    1
    36    81    84    1
    37    65    64    2
    38    63    64    1
    39    63    66    1
    40     5     6    1
    41     5     2    1
    42   105   106    1
    43   105   102    1
    44    64    69   am
    45   106   108    1
    46     6     7   ar
    47    42    41    2
    48    70    69    1
    49    84    85    1
    50     4     3    2
    51   112   111    2
    52   111   110    1
    53   104   103    2
    54     1     2    1
    55    67    66    1
    56     2     3    1
    57   101   102    1
    58   101    99   am
    59   102   103    1
    60    66    68    1
    61   103   109   am
    62    33    32    2
    63    98    99    1
    64    98    97    1
    65    99   100    2
    66    41    40    1
    67   109   110    1
    68    87    88    1
    69    87    86    1
    70    87    90    1
    71    88    89    2
    72    40    43    1
    73    40    39    1
    74    37    36   ar
    75    32    39   am
    76    32    31    1
    77     9    10    1
    78    10    11    1
    79    91    90    1
    80    91    92    1
    81    43    44    1
    82    45    44   ar
    83    45    47   ar
    84    15    16    2
    85    15    14    1
    86    13    11   am
    87    13    14    1
    88    11    12    2
    89    34    31    1
    90    34    35    1
    91    31    30    1
    92    36    35    1
    93    36    38   ar
    94    44    46   ar
    95    47    49   ar
    96    93    92    1
    97    93    94    2
    98    96    94    1
    99    94    95    1
   100    46    48   ar
   101    49    48   ar
   102    26    27    1
   103    27    28    1
   104    28    29    2
