@<TRIPOS>MOLECULE
tmp/4m7zA03.pdb
 104 100 0 0 0
SMALL
GASTEIGER

@<TRIPOS>ATOM
      1  N         48.7990   -7.6850  -20.9320 N.3    36  GLN36      -0.1231
      2  CA        47.7130   -7.4590  -21.8580 C.3    36  GLN36       0.1698
      3  C         47.9650   -6.2750  -22.7960 C.2    36  GLN36       0.2593
      4  O         47.9650   -5.1130  -22.3740 O.2    36  GLN36      -0.2718
      5  CB        46.4450   -7.2280  -21.0810 C.3    36  GLN36       0.0381
      6  CG        45.2120   -7.3980  -21.9300 C.3    36  GLN36       0.0905
      7  CD        43.9480   -7.2410  -21.1290 C.2    36  GLN36       0.2608
      8  OE1       43.9450   -6.6840  -20.0090 O.2    36  GLN36      -0.2717
      9  NE2       42.8540   -7.7140  -21.6980 N.am   36  GLN36      -0.0878
     10  N         48.1710   -6.5800  -24.0760 N.am   37  SER37      -0.1939
     11  CA        48.3050   -5.5520  -25.1130 C.3    37  SER37       0.2040
     12  C         46.9510   -4.9050  -25.3420 C.2    37  SER37       0.2485
     13  O         45.9320   -5.5300  -25.0820 O.2    37  SER37      -0.2729
     14  CB        48.7850   -6.1820  -26.4120 C.3    37  SER37       0.2129
     15  OG        50.0030   -6.8610  -26.2200 O.3    37  SER37      -0.2179
     16  N         46.9300   -3.6680  -25.8550 N.am   38  PRO38      -0.2715
     17  CA        45.6670   -2.9060  -25.9400 C.3    38  PRO38       0.1536
     18  C         44.4670   -3.5900  -26.6170 C.2    38  PRO38       0.2599
     19  O         43.3430   -3.5590  -26.0900 O.2    38  PRO38      -0.2715
     20  CB        46.0790   -1.6120  -26.6600 C.3    38  PRO38       0.0310
     21  CG        47.5580   -1.5070  -26.4800 C.3    38  PRO38       0.0237
     22  CD        48.0660   -2.9180  -26.4170 C.3    38  PRO38       0.0939
     23  N         44.6810   -4.2310  -27.7440 N.am   39  GLY39      -0.1941
     24  CA        43.5330   -4.8510  -28.4240 C.3    39  GLY39       0.2014
     25  C         43.2930   -6.3000  -28.0720 C.2    39  GLY39       0.2638
     26  O         42.3840   -6.9480  -28.6090 O.2    39  GLY39      -0.2714
     27  N         44.1000   -6.8170  -27.1640 N.am   40  LYS40      -0.1977
     28  CA        44.3840   -8.2280  -27.2040 C.3    40  LYS40       0.1596
     29  C         44.0450   -8.9180  -25.8970 C.2    40  LYS40       0.2287
     30  O         43.6740   -8.2740  -24.9070 O.2    40  LYS40      -0.2864
     31  CB        45.8490   -8.4200  -27.6160 C.3    40  LYS40       0.0298
     32  CG        46.1600   -7.8470  -29.0000 C.3    40  LYS40       0.0038
     33  CD        47.3530   -8.5210  -29.6920 C.3    40  LYS40       0.0206
     34  CE        47.1060   -9.9940  -30.0470 C.3    40  LYS40       0.1093
     35  NZ        47.9040  -10.9540  -29.2150 N.3    40  LYS40      -0.1314
     36  N         53.8220   -2.0390  -25.5220 N.3    87  THR87      -0.1203
     37  CA        52.9250   -1.2070  -24.7280 C.3    87  THR87       0.1994
     38  C         51.8220   -2.0990  -24.2170 C.2    87  THR87       0.2618
     39  O         51.2000   -2.7900  -25.0140 O.2    87  THR87      -0.2717
     40  CB        52.3170   -0.0880  -25.5940 C.3    87  THR87       0.1784
     41  OG1       53.3590    0.8110  -25.9940 O.3    87  THR87      -0.2211
     42  CG2       51.2420    0.6600  -24.8460 C.3    87  THR87       0.0376
     43  N         51.5970   -2.1030  -22.9040 N.am   88  ALA88      -0.1965
     44  CA        50.6370   -3.0380  -22.2880 C.3    88  ALA88       0.1728
     45  C         50.4670   -2.7980  -20.7970 C.2    88  ALA88       0.2616
     46  O         51.2200   -2.0510  -20.1770 O.2    88  ALA88      -0.2715
     47  CB        51.0910   -4.4820  -22.5050 C.3    88  ALA88       0.0334
     48  N         49.4900   -3.4810  -20.2120 N.am   89  ILE89      -0.1977
     49  CA        49.4500   -3.5970  -18.7730 C.3    89  ILE89       0.1596
     50  C         50.1560   -4.8880  -18.4070 C.2    89  ILE89       0.2287
     51  O         49.8600   -5.9600  -18.9740 O.2    89  ILE89      -0.2864
     52  CB        48.0330   -3.5730  -18.2460 C.3    89  ILE89       0.0276
     53  CG1       47.4000   -2.2240  -18.5770 C.3    89  ILE89       0.0022
     54  CG2       48.0220   -3.7630  -16.7330 C.3    89  ILE89       0.0022
     55  CD1       45.9140   -2.2010  -18.3110 C.3    89  ILE89       0.0001
     56  N         50.7830   -0.0470  -16.1230 N.3   110  LEU110     -0.1245
     57  CA        50.7170    0.3840  -17.5100 C.3   110  LEU110      0.1561
     58  C         52.1040    0.8260  -17.9040 C.2   110  LEU110      0.2260
     59  O         52.7130    1.6390  -17.2280 O.2   110  LEU110     -0.2867
     60  CB        49.7380    1.5410  -17.7070 C.3   110  LEU110      0.0270
     61  CG        49.8300    2.2330  -19.0740 C.3   110  LEU110      0.0019
     62  CD1       49.2040    1.3960  -20.1770 C.3   110  LEU110      0.0001
     63  CD2       49.2070    3.6170  -19.0140 C.3   110  LEU110      0.0001
     64  N         48.7970   10.0390  -23.2270 N.3   150  GLU150     -0.1245
     65  CA        47.4020   10.0130  -22.7560 C.3   150  GLU150      0.1567
     66  C         47.3260   10.6530  -21.3660 C.2   150  GLU150      0.2260
     67  O         48.3260   10.6890  -20.6540 O.2   150  GLU150     -0.2867
     68  CB        46.8790    8.5720  -22.6950 C.3   150  GLU150      0.0388
     69  CG        46.5590    7.9500  -24.0470 C.3   150  GLU150      0.1160
     70  CD        45.0630    7.9570  -24.3630 C.2   150  GLU150      0.3649
     71  OE1       44.5090    6.8290  -24.4880 O.co2 150  GLU150     -0.2457
     72  OE2       44.4520    9.0740  -24.4810 O.co2 150  GLU150     -0.2457
     73  N         38.4400    4.9930  -28.0950 N.3   169  PRO169     -0.2102
     74  CA        39.7340    4.8130  -27.4600 C.3   169  PRO169      0.1504
     75  C         40.8380    5.2430  -28.3950 C.2   169  PRO169      0.2575
     76  O         40.7450    5.0020  -29.6010 O.2   169  PRO169     -0.2718
     77  CB        39.8000    3.3000  -27.2230 C.3   169  PRO169      0.0282
     78  CG        38.3840    2.8840  -27.0850 C.3   169  PRO169      0.0208
     79  CD        37.6250    3.7610  -28.0350 C.3   169  PRO169      0.0893
     80  N         41.8600    5.8880  -27.8400 N.am  170  ALA170     -0.1980
     81  CA        42.9860    6.3440  -28.6380 C.3   170  ALA170      0.1597
     82  C         43.7950    5.1510  -29.0760 C.2   170  ALA170      0.2287
     83  O         43.8330    4.1350  -28.4000 O.2   170  ALA170     -0.2864
     84  CB        43.8530    7.3180  -27.8560 C.3   170  ALA170      0.0319
     85  N         47.7150    4.1430  -30.7000 N.3   172  LEU172     -0.1245
     86  CA        49.0960    4.5950  -30.7640 C.3   172  LEU172      0.1561
     87  C         49.7320    4.1870  -32.0630 C.2   172  LEU172      0.2260
     88  O         49.8550    2.9980  -32.3310 O.2   172  LEU172     -0.2867
     89  CB        49.8710    3.9210  -29.6300 C.3   172  LEU172      0.0270
     90  CG        51.3530    4.2940  -29.4850 C.3   172  LEU172      0.0019
     91  CD1       51.4990    5.6680  -28.8420 C.3   172  LEU172      0.0001
     92  CD2       52.1760    3.2630  -28.7140 C.3   172  LEU172      0.0001
     93  N         49.5080    9.3490  -30.2140 N.3   177  TYR177     -0.1241
     94  CA        48.1300    8.9080  -30.0650 C.3   177  TYR177      0.1605
     95  C         47.1980    9.6890  -30.9650 C.2   177  TYR177      0.2264
     96  O         47.3770   10.8900  -31.1880 O.2   177  TYR177     -0.2867
     97  CB        47.6590    9.0610  -28.6200 C.3   177  TYR177      0.0534
     98  CG        48.1280    7.9470  -27.7430 C.ar  177  TYR177     -0.0201
     99  CD1       47.6540    6.6530  -27.9350 C.ar  177  TYR177     -0.0009
    100  CD2       49.0730    8.1630  -26.7400 C.ar  177  TYR177     -0.0009
    101  CE1       48.0880    5.6150  -27.1460 C.ar  177  TYR177      0.0417
    102  CE2       49.5050    7.1260  -25.9370 C.ar  177  TYR177      0.0417
    103  CZ        49.0040    5.8560  -26.1480 C.ar  177  TYR177      0.1957
    104  OH        49.4040    4.8010  -25.3760 O.3   177  TYR177     -0.2866
@<TRIPOS>BOND
     1    88    87    2
     2    87    86    1
     3    96    95    2
     4    95    94    1
     5    86    85    1
     6    86    89    1
     7    93    94    1
     8    94    97    1
     9    34    33    1
    10    34    35    1
    11    33    32    1
    12    89    90    1
    13    76    75    2
    14    90    91    1
    15    90    92    1
    16    82    81    1
    17    82    83    2
    18    32    31    1
    19    81    84    1
    20    81    80    1
    21    97    98    1
    22    26    25    2
    23    24    25    1
    24    24    23    1
    25    75    80   am
    26    75    74    1
    27    73    79    1
    28    73    74    1
    29    25    27   am
    30    79    78    1
    31    99    98   ar
    32    99   101   ar
    33    23    18   am
    34    98   100   ar
    35    31    28    1
    36    74    77    1
    37    77    78    1
    38    28    27    1
    39    28    29    1
    40   101   103   ar
    41   100   102   ar
    42    20    21    1
    43    20    17    1
    44    18    19    2
    45    18    17    1
    46    21    22    1
    47    22    16    1
    48    14    15    1
    49    14    11    1
    50   103   102   ar
    51   103   104    1
    52    41    40    1
    53    17    16    1
    54    29    30    2
    55    16    12   am
    56    40    42    1
    57    40    37    1
    58    36    37    1
    59    12    11    1
    60    12    13    2
    61    11    10    1
    62    39    38    2
    63    37    38    1
    64    71    70   ar
    65    72    70   ar
    66    70    69    1
    67    38    43   am
    68    10     3   am
    69    69    68    1
    70    64    65    1
    71    43    44    1
    72     3     4    2
    73     3     2    1
    74    65    68    1
    75    65    66    1
    76    47    44    1
    77    44    45    1
    78     6     7    1
    79     6     5    1
    80     2     5    1
    81     2     1    1
    82     9     7   am
    83    66    67    2
    84     7     8    2
    85    45    48   am
    86    45    46    2
    87    48    49    1
    88    62    61    1
    89    61    63    1
    90    61    60    1
    91    51    50    2
    92    49    50    1
    93    49    52    1
    94    53    55    1
    95    53    52    1
    96    52    54    1
    97    58    57    1
    98    58    59    2
    99    60    57    1
   100    57    56    1
