@<TRIPOS>MOLECULE
tmp/4m81A00.pdb
 131 128 0 0 0
SMALL
GASTEIGER

@<TRIPOS>ATOM
      1  N         64.0400   65.5040   -1.5950 N.3    21  GLU21      -0.1245
      2  CA        64.4120   66.7590   -0.9600 C.3    21  GLU21       0.1567
      3  C         65.6040   67.3000   -1.7000 C.2    21  GLU21       0.2260
      4  O         66.6720   66.6780   -1.6980 O.2    21  GLU21      -0.2867
      5  CB        64.7650   66.5420    0.5130 C.3    21  GLU21       0.0388
      6  CG        63.6670   65.8010    1.2500 C.3    21  GLU21       0.1160
      7  CD        63.6710   66.0480    2.7370 C.2    21  GLU21       0.3649
      8  OE1       64.2430   67.0740    3.1860 O.co2  21  GLU21      -0.2457
      9  OE2       63.0870   65.2060    3.4540 O.co2  21  GLU21      -0.2457
     10  N         67.8620   69.5120   -1.2150 N.3    23  TYR23      -0.1241
     11  CA        69.1630   69.6370   -0.5620 C.3    23  TYR23       0.1605
     12  C         69.8420   68.2890   -0.3430 C.2    23  TYR23       0.2264
     13  O         71.0680   68.2260   -0.2230 O.2    23  TYR23      -0.2867
     14  CB        69.0770   70.4290    0.7470 C.3    23  TYR23       0.0534
     15  CG        68.7300   69.6140    1.9780 C.ar   23  TYR23      -0.0201
     16  CD1       67.4040   69.3580    2.3210 C.ar   23  TYR23      -0.0009
     17  CD2       69.7380   69.1260    2.8190 C.ar   23  TYR23      -0.0009
     18  CE1       67.0860   68.6190    3.4750 C.ar   23  TYR23       0.0417
     19  CE2       69.4330   68.3960    3.9630 C.ar   23  TYR23       0.0417
     20  CZ        68.1100   68.1390    4.2860 C.ar   23  TYR23       0.1957
     21  OH        67.8270   67.3960    5.4270 O.3    23  TYR23      -0.2866
     22  N         55.2350   61.4190    5.9840 N.3   129  HIS129     -0.1241
     23  CA        56.0000   62.6590    5.9040 C.3   129  HIS129      0.1621
     24  C         55.2940   63.7720    5.1410 C.2   129  HIS129      0.2264
     25  O         55.6370   64.9510    5.2830 O.2   129  HIS129     -0.2867
     26  CB        57.3640   62.3750    5.2660 C.3   129  HIS129      0.0745
     27  CG        58.4700   63.2070    5.8220 C.ar  129  HIS129      0.0817
     28  ND1       59.0140   62.9770    7.0670 N.ar  129  HIS129     -0.2268
     29  CD2       59.1350   64.2690    5.3070 C.ar  129  HIS129      0.1154
     30  CE1       59.9640   63.8670    7.2970 C.ar  129  HIS129      0.1986
     31  NE2       60.0560   64.6620    6.2460 N.ar  129  HIS129     -0.2212
     32  N         59.7420   69.2900    1.8430 N.3   140  ASN140     -0.1240
     33  CA        59.7850   67.9010    2.2720 C.3   140  ASN140      0.1653
     34  C         58.4130   67.2950    2.5770 C.2   140  ASN140      0.2266
     35  O         58.3260   66.1180    2.9180 O.2   140  ASN140     -0.2867
     36  CB        60.7390   67.7300    3.4570 C.3   140  ASN140      0.1155
     37  CG        60.3710   68.5930    4.6280 C.2   140  ASN140      0.2627
     38  OD1       59.3300   68.3890    5.2450 O.2   140  ASN140     -0.2716
     39  ND2       61.2250   69.5690    4.9470 N.am  140  ASN140     -0.0877
     40  N         54.1970   63.7740    9.8770 N.3   185  ASN185     -0.1225
     41  CA        55.4290   64.5070   10.1440 C.3   185  ASN185      0.1785
     42  C         55.1840   66.0080   10.1580 C.2   185  ASN185      0.2597
     43  O         54.5390   66.5410    9.2540 O.2   185  ASN185     -0.2718
     44  CB        56.4810   64.2210    9.0760 C.3   185  ASN185      0.1169
     45  CG        57.7200   65.0690    9.2650 C.2   185  ASN185      0.2627
     46  OD1       58.4350   64.8930   10.2470 O.2   185  ASN185     -0.2716
     47  ND2       57.9580   66.0230    8.3530 N.am  185  ASN185     -0.0877
     48  N         55.6920   66.6820   11.1860 N.am  186  GLU186     -0.1979
     49  CA        55.7310   68.1510   11.2200 C.3   186  GLU186      0.1602
     50  C         54.5070   68.9300   10.7190 C.2   186  GLU186      0.2287
     51  O         54.6450   69.7890    9.8630 O.2   186  GLU186     -0.2864
     52  CB        57.0030   68.6620   10.5140 C.3   186  GLU186      0.0415
     53  CG        58.2740   68.1310   11.1740 C.3   186  GLU186      0.1163
     54  CD        59.5400   68.8460   10.7330 C.2   186  GLU186      0.3649
     55  OE1       59.5250   69.5300    9.6900 O.co2 186  GLU186     -0.2457
     56  OE2       60.5550   68.7210   11.4420 O.co2 186  GLU186     -0.2457
     57  N         61.3670   67.3310   17.1570 N.3   247  HIS247     -0.1241
     58  CA        62.4750   67.6320   16.2430 C.3   247  HIS247      0.1621
     59  C         63.2590   68.8300   16.7760 C.2   247  HIS247      0.2264
     60  O         62.6920   69.7310   17.3800 O.2   247  HIS247     -0.2867
     61  CB        61.9630   67.8820   14.8260 C.3   247  HIS247      0.0745
     62  CG        61.3050   66.6840   14.2190 C.ar  247  HIS247      0.0817
     63  ND1       60.6900   66.7110   12.9880 N.ar  247  HIS247     -0.2268
     64  CD2       61.1530   65.4210   14.6870 C.ar  247  HIS247      0.1154
     65  CE1       60.2040   65.5140   12.7130 C.ar  247  HIS247      0.1986
     66  NE2       60.4670   64.7130   13.7300 N.ar  247  HIS247     -0.2212
     67  N         66.4930   71.5740   15.9010 N.3   249  TYR249     -0.1241
     68  CA        67.5530   72.1910   15.1130 C.3   249  TYR249      0.1605
     69  C         67.8360   73.5690   15.6670 C.2   249  TYR249      0.2264
     70  O         67.0080   74.1300   16.3770 O.2   249  TYR249     -0.2867
     71  CB        67.1180   72.3540   13.6630 C.3   249  TYR249      0.0534
     72  CG        66.8410   71.0540   12.9740 C.ar  249  TYR249     -0.0201
     73  CD1       67.8780   70.2050   12.6430 C.ar  249  TYR249     -0.0009
     74  CD2       65.5380   70.6760   12.6470 C.ar  249  TYR249     -0.0009
     75  CE1       67.6330   69.0120   12.0000 C.ar  249  TYR249      0.0417
     76  CE2       65.2810   69.4780   11.9990 C.ar  249  TYR249      0.0417
     77  CZ        66.3410   68.6500   11.6800 C.ar  249  TYR249      0.1957
     78  OH        66.1200   67.4540   11.0260 O.3   249  TYR249     -0.2866
     79  N         67.4100   77.3990   11.7760 N.3   252  PHE252     -0.1241
     80  CA        66.3490   77.9130   10.9000 C.3   252  PHE252      0.1605
     81  C         65.8370   79.3170   11.2300 C.2   252  PHE252      0.2264
     82  O         64.7400   79.6980   10.8330 O.2   252  PHE252     -0.2867
     83  CB        65.2130   76.9040   10.7260 C.3   252  PHE252      0.0534
     84  CG        65.6260   75.6790    9.9470 C.ar  252  PHE252     -0.0203
     85  CD1       65.9120   75.7700    8.5900 C.ar  252  PHE252     -0.0042
     86  CD2       65.7640   74.4460   10.5790 C.ar  252  PHE252     -0.0042
     87  CE1       66.3120   74.6490    7.8650 C.ar  252  PHE252     -0.0003
     88  CE2       66.1620   73.3200    9.8620 C.ar  252  PHE252     -0.0003
     89  CZ        66.4430   73.4240    8.5020 C.ar  252  PHE252     -0.0000
     90  N         64.1780   63.7510   14.7200 N.3   286  SER286     -0.1217
     91  CA        64.9850   64.4470   13.7200 C.3   286  SER286      0.1889
     92  C         65.8200   65.5220   14.3740 C.2   286  SER286      0.2288
     93  O         65.3260   66.2870   15.2050 O.2   286  SER286     -0.2866
     94  CB        64.1260   65.0700   12.6200 C.3   286  SER286      0.2089
     95  OG        63.6020   64.0760   11.7640 O.3   286  SER286     -0.2183
     96  N         68.9060   73.8960    1.3780 N.3   298  LEU298     -0.1245
     97  CA        68.3170   73.4390    2.6420 C.3   298  LEU298      0.1561
     98  C         66.9940   74.1620    2.9300 C.2   298  LEU298      0.2260
     99  O         66.0280   73.5630    3.4000 O.2   298  LEU298     -0.2867
    100  CB        69.2890   73.6500    3.8020 C.3   298  LEU298      0.0270
    101  CG        68.7290   73.2590    5.1720 C.3   298  LEU298      0.0019
    102  CD1       68.5630   71.7440    5.2760 C.3   298  LEU298      0.0001
    103  CD2       69.6050   73.7850    6.2950 C.3   298  LEU298      0.0001
    104  N         68.8500   63.0440   11.3690 N.3   357  TRP357     -0.1241
    105  CA        68.4990   63.3620    9.9810 C.3   357  TRP357      0.1605
    106  C         69.7360   63.8740    9.2440 C.2   357  TRP357      0.2264
    107  O         70.1670   64.9940    9.4860 O.2   357  TRP357     -0.2867
    108  CB        67.3750   64.4070    9.8800 C.3   357  TRP357      0.0550
    109  CG        66.8930   64.4870    8.4510 C.ar  357  TRP357      0.0003
    110  CD1       67.5640   65.0290    7.3930 C.ar  357  TRP357      0.0946
    111  CD2       65.6820   63.9470    7.9220 C.ar  357  TRP357      0.0152
    112  NE1       66.8410   64.8730    6.2400 N.ar  357  TRP357     -0.2442
    113  CE2       65.6790   64.2100    6.5340 C.ar  357  TRP357      0.0810
    114  CE3       64.5840   63.2870    8.4860 C.ar  357  TRP357      0.0012
    115  CZ2       64.6230   63.8280    5.7000 C.ar  357  TRP357      0.0191
    116  CZ3       63.5500   62.9030    7.6640 C.ar  357  TRP357      0.0001
    117  CH2       63.5700   63.1770    6.2820 C.ar  357  TRP357      0.0015
    118  N         74.4170   66.9530    7.3490 N.3   367  TRP367     -0.1241
    119  CA        73.1450   66.2490    7.3320 C.3   367  TRP367      0.1605
    120  C         73.2990   64.7620    7.0030 C.2   367  TRP367      0.2264
    121  O         72.3300   64.0870    6.6680 O.2   367  TRP367     -0.2867
    122  CB        72.2310   66.9370    6.3200 C.3   367  TRP367      0.0550
    123  CG        71.9490   68.3660    6.7040 C.ar  367  TRP367      0.0003
    124  CD1       72.6290   69.4890    6.3070 C.ar  367  TRP367      0.0946
    125  CD2       70.9150   68.8140    7.5840 C.ar  367  TRP367      0.0152
    126  NE1       72.0590   70.6130    6.8790 N.ar  367  TRP367     -0.2442
    127  CE2       71.0140   70.2180    7.6740 C.ar  367  TRP367      0.0810
    128  CE3       69.9110   68.1650    8.3010 C.ar  367  TRP367      0.0012
    129  CZ2       70.1440   70.9740    8.4550 C.ar  367  TRP367      0.0191
    130  CZ3       69.0570   68.9150    9.0720 C.ar  367  TRP367      0.0001
    131  CH2       69.1740   70.3060    9.1430 C.ar  367  TRP367      0.0015
@<TRIPOS>BOND
     1     3     4    2
     2     3     2    1
     3     1     2    1
     4    10    11    1
     5     2     5    1
     6    11    12    1
     7    11    14    1
     8    12    13    2
     9     5     6    1
    10    14    15    1
    11     6     7    1
    12    96    97    1
    13    32    33    1
    14    15    16   ar
    15    15    17   ar
    16    33    34    1
    17    33    36    1
    18    16    18   ar
    19    34    35    2
    20    97    98    1
    21    97   100    1
    22     7     8   ar
    23     7     9   ar
    24    17    19   ar
    25    98    99    2
    26    36    37    1
    27    18    20   ar
    28   100   101    1
    29    19    20   ar
    30    20    21    1
    31    37    39   am
    32    37    38    2
    33    24    25    2
    34    24    23    1
    35   101   102    1
    36   101   103    1
    37    26    27    1
    38    26    23    1
    39    29    27   ar
    40    29    31   ar
    41   115   117   ar
    42   115   113   ar
    43    27    28   ar
    44    23    22    1
    45   112   113   ar
    46   112   110   ar
    47    31    30   ar
    48   117   116   ar
    49   124   123   ar
    50   124   126   ar
    51   122   123    1
    52   122   119    1
    53   113   111   ar
    54   121   120    2
    55   123   125   ar
    56   126   127   ar
    57   120   119    1
    58    28    30   ar
    59   119   118    1
    60   110   109   ar
    61   125   127   ar
    62   125   128   ar
    63   116   114   ar
    64   127   129   ar
    65    87    89   ar
    66    87    85   ar
    67   111   109   ar
    68   111   114   ar
    69   128   130   ar
    70    47    45   am
    71   109   108    1
    72   129   131   ar
    73    89    88   ar
    74    85    84   ar
    75   130   131   ar
    76    44    45    1
    77    44    41    1
    78   106   107    2
    79   106   105    1
    80    43    42    2
    81    45    46    2
    82    55    54   ar
    83    88    86   ar
    84    51    50    2
    85    40    41    1
    86   108   105    1
    87    84    86   ar
    88    84    83    1
    89   105   104    1
    90    41    42    1
    91    42    48   am
    92    52    53    1
    93    52    49    1
    94    50    49    1
    95    83    80    1
    96    54    53    1
    97    54    56   ar
    98    82    81    2
    99    80    81    1
   100    80    79    1
   101    78    77    1
   102    48    49    1
   103    77    76   ar
   104    77    75   ar
   105    95    94    1
   106    76    74   ar
   107    75    73   ar
   108    94    91    1
   109    73    72   ar
   110    74    72   ar
   111    65    63   ar
   112    65    66   ar
   113    72    71    1
   114    63    62   ar
   115    71    68    1
   116    91    92    1
   117    91    90    1
   118    66    64   ar
   119    62    64   ar
   120    62    61    1
   121    92    93    2
   122    61    58    1
   123    68    69    1
   124    68    67    1
   125    69    70    2
   126    58    59    1
   127    58    57    1
   128    59    60    2
