@<TRIPOS>MOLECULE
tmp/4m81A01.pdb
 135 131 0 0 0
SMALL
GASTEIGER

@<TRIPOS>ATOM
      1  N         56.4890   72.9760    3.5860 N.3   138  PHE138     -0.1227
      2  CA        57.9160   72.6920    3.4110 C.3   138  PHE138      0.1736
      3  C         58.0650   71.8420    2.1580 C.2   138  PHE138      0.2595
      4  O         57.1780   71.0490    1.8400 O.2   138  PHE138     -0.2718
      5  CB        58.4780   71.8660    4.5790 C.3   138  PHE138      0.0547
      6  CG        58.2770   72.4770    5.9480 C.ar  138  PHE138     -0.0202
      7  CD1       58.1380   73.8430    6.1200 C.ar  138  PHE138     -0.0042
      8  CD2       58.2640   71.6590    7.0770 C.ar  138  PHE138     -0.0042
      9  CE1       57.9650   74.3800    7.3950 C.ar  138  PHE138     -0.0003
     10  CE2       58.0990   72.1900    8.3440 C.ar  138  PHE138     -0.0003
     11  CZ        57.9480   73.5470    8.5040 C.ar  138  PHE138     -0.0000
     12  N         59.1960   71.9470    1.4680 N.am  139  ASP139     -0.1960
     13  CA        59.3580   71.1160    0.2790 C.3   139  ASP139      0.1840
     14  C         59.3420   69.6180    0.6200 C.2   139  ASP139      0.2622
     15  O         58.9310   68.7830   -0.1950 O.2   139  ASP139     -0.2715
     16  CB        60.5670   71.5310   -0.5880 C.3   139  ASP139      0.1450
     17  CG        61.8870   71.5090    0.1640 C.2   139  ASP139      0.3671
     18  OD1       61.9460   70.9900    1.2910 O.co2 139  ASP139     -0.2456
     19  OD2       62.8960   71.9970   -0.4010 O.co2 139  ASP139     -0.2456
     20  N         59.7420   69.2900    1.8430 N.am  140  ASN140     -0.1972
     21  CA        59.7850   67.9010    2.2720 C.3   140  ASN140      0.1688
     22  C         58.4130   67.2950    2.5770 C.2   140  ASN140      0.2292
     23  O         58.3260   66.1180    2.9180 O.2   140  ASN140     -0.2864
     24  CB        60.7390   67.7300    3.4570 C.3   140  ASN140      0.1181
     25  CG        60.3710   68.5930    4.6280 C.2   140  ASN140      0.2629
     26  OD1       59.3300   68.3890    5.2450 O.2   140  ASN140     -0.2716
     27  ND2       61.2250   69.5690    4.9470 N.am  140  ASN140     -0.0877
     28  N         55.6920   66.6820   11.1860 N.3   186  GLU186     -0.1245
     29  CA        55.7310   68.1510   11.2200 C.3   186  GLU186      0.1567
     30  C         54.5070   68.9300   10.7190 C.2   186  GLU186      0.2260
     31  O         54.6450   69.7890    9.8630 O.2   186  GLU186     -0.2867
     32  CB        57.0030   68.6620   10.5140 C.3   186  GLU186      0.0388
     33  CG        58.2740   68.1310   11.1740 C.3   186  GLU186      0.1160
     34  CD        59.5400   68.8460   10.7330 C.2   186  GLU186      0.3649
     35  OE1       59.5250   69.5300    9.6900 O.co2 186  GLU186     -0.2457
     36  OE2       60.5550   68.7210   11.4420 O.co2 186  GLU186     -0.2457
     37  N         52.5130   72.0000   10.7260 N.3   188  LEU188     -0.1245
     38  CA        52.9950   73.3130   11.1300 C.3   188  LEU188      0.1561
     39  C         52.0030   73.9820   12.0720 C.2   188  LEU188      0.2260
     40  O         51.2190   74.8310   11.6540 O.2   188  LEU188     -0.2867
     41  CB        53.2540   74.1930    9.9080 C.3   188  LEU188      0.0270
     42  CG        53.9800   75.5250   10.0950 C.3   188  LEU188      0.0019
     43  CD1       55.2880   75.3450   10.8400 C.3   188  LEU188      0.0001
     44  CD2       54.2210   76.1660    8.7220 C.3   188  LEU188      0.0001
     45  N         51.6820   76.5090   14.1260 N.3   190  PRO190     -0.2116
     46  CA        51.2960   77.9280   14.1770 C.3   190  PRO190      0.1372
     47  C         50.3160   78.3880   13.1040 C.2   190  PRO190      0.2244
     48  O         49.6560   79.4100   13.3020 O.2   190  PRO190     -0.2868
     49  CB        52.6370   78.6510   14.0120 C.3   190  PRO190      0.0268
     50  CG        53.6250   77.7080   14.6230 C.3   190  PRO190      0.0207
     51  CD        53.1510   76.3510   14.1730 C.3   190  PRO190      0.0892
     52  N         55.5470   71.4440   16.5740 N.3   223  PHE223     -0.1241
     53  CA        56.3170   72.6180   16.9760 C.3   223  PHE223      0.1605
     54  C         55.7280   73.3120   18.1940 C.2   223  PHE223      0.2264
     55  O         55.9070   74.5120   18.3810 O.2   223  PHE223     -0.2867
     56  CB        56.4750   73.5940   15.7980 C.3   223  PHE223      0.0534
     57  CG        56.9940   72.9410   14.5520 C.ar  223  PHE223     -0.0203
     58  CD1       58.3450   72.6810   14.4080 C.ar  223  PHE223     -0.0042
     59  CD2       56.1230   72.5520   13.5420 C.ar  223  PHE223     -0.0042
     60  CE1       58.8320   72.0630   13.2660 C.ar  223  PHE223     -0.0003
     61  CE2       56.5990   71.9320   12.3970 C.ar  223  PHE223     -0.0003
     62  CZ        57.9510   71.6900   12.2570 C.ar  223  PHE223     -0.0000
     63  N         66.4930   71.5740   15.9010 N.3   249  TYR249     -0.1241
     64  CA        67.5530   72.1910   15.1130 C.3   249  TYR249      0.1605
     65  C         67.8360   73.5690   15.6670 C.2   249  TYR249      0.2264
     66  O         67.0080   74.1300   16.3770 O.2   249  TYR249     -0.2867
     67  CB        67.1180   72.3540   13.6630 C.3   249  TYR249      0.0534
     68  CG        66.8410   71.0540   12.9740 C.ar  249  TYR249     -0.0201
     69  CD1       67.8780   70.2050   12.6430 C.ar  249  TYR249     -0.0009
     70  CD2       65.5380   70.6760   12.6470 C.ar  249  TYR249     -0.0009
     71  CE1       67.6330   69.0120   12.0000 C.ar  249  TYR249      0.0417
     72  CE2       65.2810   69.4780   11.9990 C.ar  249  TYR249      0.0417
     73  CZ        66.3410   68.6500   11.6800 C.ar  249  TYR249      0.1957
     74  OH        66.1200   67.4540   11.0260 O.3   249  TYR249     -0.2866
     75  N         67.4100   77.3990   11.7760 N.3   252  PHE252     -0.1241
     76  CA        66.3490   77.9130   10.9000 C.3   252  PHE252      0.1605
     77  C         65.8370   79.3170   11.2300 C.2   252  PHE252      0.2264
     78  O         64.7400   79.6980   10.8330 O.2   252  PHE252     -0.2867
     79  CB        65.2130   76.9040   10.7260 C.3   252  PHE252      0.0534
     80  CG        65.6260   75.6790    9.9470 C.ar  252  PHE252     -0.0203
     81  CD1       65.9120   75.7700    8.5900 C.ar  252  PHE252     -0.0042
     82  CD2       65.7640   74.4460   10.5790 C.ar  252  PHE252     -0.0042
     83  CE1       66.3120   74.6490    7.8650 C.ar  252  PHE252     -0.0003
     84  CE2       66.1620   73.3200    9.8620 C.ar  252  PHE252     -0.0003
     85  CZ        66.4430   73.4240    8.5020 C.ar  252  PHE252     -0.0000
     86  N         69.0040   81.8160   16.0680 N.3   256  GLU256     -0.1245
     87  CA        69.5600   80.5160   16.3960 C.3   256  GLU256      0.1567
     88  C         70.9410   80.3780   15.7890 C.2   256  GLU256      0.2260
     89  O         71.8560   79.8630   16.4170 O.2   256  GLU256     -0.2867
     90  CB        68.6550   79.3990   15.8630 C.3   256  GLU256      0.0388
     91  CG        67.3870   79.1670   16.6780 C.3   256  GLU256      0.1160
     92  CD        66.3950   78.2850   15.9310 C.2   256  GLU256      0.3649
     93  OE1       65.7490   78.7940   14.9900 O.co2 256  GLU256     -0.2457
     94  OE2       66.2880   77.0850   16.2600 O.co2 256  GLU256     -0.2457
     95  N         68.9060   73.8960    1.3780 N.3   298  LEU298     -0.1231
     96  CA        68.3170   73.4390    2.6420 C.3   298  LEU298      0.1693
     97  C         66.9940   74.1620    2.9300 C.2   298  LEU298      0.2592
     98  O         66.0280   73.5630    3.4000 O.2   298  LEU298     -0.2718
     99  CB        69.2890   73.6500    3.8020 C.3   298  LEU298      0.0284
    100  CG        68.7290   73.2590    5.1720 C.3   298  LEU298      0.0019
    101  CD1       68.5630   71.7440    5.2760 C.3   298  LEU298      0.0001
    102  CD2       69.6050   73.7850    6.2950 C.3   298  LEU298      0.0001
    103  N         66.9620   75.4540    2.6300 N.am  299  ASN299     -0.1974
    104  CA        65.7800   76.2700    2.8410 C.3   299  ASN299      0.1688
    105  C         64.7880   76.1640    1.6870 C.2   299  ASN299      0.2292
    106  O         63.6630   76.6740    1.7690 O.2   299  ASN299     -0.2864
    107  CB        66.1880   77.7260    3.0580 C.3   299  ASN299      0.1181
    108  CG        66.9480   77.9190    4.3530 C.2   299  ASN299      0.2629
    109  OD1       66.5580   77.3790    5.3820 O.2   299  ASN299     -0.2716
    110  ND2       68.0460   78.6680    4.3080 N.am  299  ASN299     -0.0877
    111  N         70.5160   81.8290    5.3140 N.3   306  ARG306     -0.1245
    112  CA        70.4940   82.9220    6.2810 C.3   306  ARG306      0.1563
    113  C         71.8850   83.1330    6.8560 C.2   306  ARG306      0.2260
    114  O         72.2390   84.2460    7.2360 O.2   306  ARG306     -0.2867
    115  CB        69.5290   82.6250    7.4330 C.3   306  ARG306      0.0307
    116  CG        68.0610   82.5790    7.0210 C.3   306  ARG306      0.0489
    117  CD        67.1500   82.5860    8.2420 C.3   306  ARG306      0.2205
    118  NE        65.7550   82.7340    7.8500 N.pl3 306  ARG306     -0.0865
    119  CZ        64.9460   81.7180    7.5600 C.cat 306  ARG306      0.5346
    120  NH1       65.3940   80.4650    7.6280 N.pl3 306  ARG306      0.1354
    121  NH2       63.6870   81.9610    7.2080 N.pl3 306  ARG306      0.1354
    122  N         74.4170   66.9530    7.3490 N.3   367  TRP367     -0.1241
    123  CA        73.1450   66.2490    7.3320 C.3   367  TRP367      0.1605
    124  C         73.2990   64.7620    7.0030 C.2   367  TRP367      0.2264
    125  O         72.3300   64.0870    6.6680 O.2   367  TRP367     -0.2867
    126  CB        72.2310   66.9370    6.3200 C.3   367  TRP367      0.0550
    127  CG        71.9490   68.3660    6.7040 C.ar  367  TRP367      0.0003
    128  CD1       72.6290   69.4890    6.3070 C.ar  367  TRP367      0.0946
    129  CD2       70.9150   68.8140    7.5840 C.ar  367  TRP367      0.0152
    130  NE1       72.0590   70.6130    6.8790 N.ar  367  TRP367     -0.2442
    131  CE2       71.0140   70.2180    7.6740 C.ar  367  TRP367      0.0810
    132  CE3       69.9110   68.1650    8.3010 C.ar  367  TRP367      0.0012
    133  CZ2       70.1440   70.9740    8.4550 C.ar  367  TRP367      0.0191
    134  CZ3       69.0570   68.9150    9.0720 C.ar  367  TRP367      0.0001
    135  CH2       69.1740   70.3060    9.1430 C.ar  367  TRP367      0.0015
@<TRIPOS>BOND
     1    16    17    1
     2    16    13    1
     3    19    17   ar
     4    15    14    2
     5    17    18   ar
     6    13    14    1
     7    13    12    1
     8    14    20   am
     9    95    96    1
    10    12     3   am
    11   105   106    2
    12   105   104    1
    13     4     3    2
    14    20    21    1
    15     3     2    1
    16    21    22    1
    17    21    24    1
    18    22    23    2
    19   103   104    1
    20   103    97   am
    21    96    97    1
    22    96    99    1
    23   104   107    1
    24    97    98    2
    25   107   108    1
    26     2     1    1
    27     2     5    1
    28    24    25    1
    29    99   100    1
    30   110   108   am
    31   108   109    2
    32     5     6    1
    33    25    27   am
    34    25    26    2
    35   100   101    1
    36   100   102    1
    37   111   112    1
    38     6     7   ar
    39     6     8   ar
    40     7     9   ar
    41   112   113    1
    42   112   115    1
    43   128   127   ar
    44   128   130   ar
    45   126   127    1
    46   126   123    1
    47   125   124    2
    48   127   129   ar
    49   113   114    2
    50   130   131   ar
    51   124   123    1
    52   116   115    1
    53   116   117    1
    54     8    10   ar
    55   121   119    1
    56   123   122    1
    57     9    11   ar
    58   119   120    1
    59   119   118    2
    60   129   131   ar
    61   129   132   ar
    62   131   133   ar
    63   118   117    1
    64    83    85   ar
    65    83    81   ar
    66   132   134   ar
    67    10    11   ar
    68   133   135   ar
    69    85    84   ar
    70    81    80   ar
    71    44    42    1
    72   134   135   ar
    73    35    34   ar
    74    84    82   ar
    75    31    30    2
    76    41    42    1
    77    41    38    1
    78    80    82   ar
    79    80    79    1
    80    42    43    1
    81    32    33    1
    82    32    29    1
    83    30    29    1
    84    37    38    1
    85    79    76    1
    86    34    33    1
    87    34    36   ar
    88    78    77    2
    89    76    77    1
    90    76    75    1
    91    74    73    1
    92    38    39    1
    93    28    29    1
    94    40    39    2
    95    73    72   ar
    96    73    71   ar
    97    72    70   ar
    98    71    69   ar
    99    62    61   ar
   100    62    60   ar
   101    61    59   ar
   102    69    68   ar
   103    70    68   ar
   104    68    67    1
   105    47    48    2
   106    47    46    1
   107    60    58   ar
   108    59    57   ar
   109    67    64    1
   110    49    46    1
   111    49    50    1
   112    45    51    1
   113    45    46    1
   114    51    50    1
   115    58    57   ar
   116    57    56    1
   117    93    92   ar
   118    64    65    1
   119    64    63    1
   120    65    66    2
   121    88    87    1
   122    88    89    2
   123    56    53    1
   124    90    87    1
   125    90    91    1
   126    92    94   ar
   127    92    91    1
   128    86    87    1
   129    52    53    1
   130    53    54    1
   131    54    55    2
