@<TRIPOS>MOLECULE
tmp/4m82A00.pdb
 204 199 0 0 0
SMALL
GASTEIGER

@<TRIPOS>ATOM
      1  N         24.4750    1.3420    1.6340 N.3    20  GLU20      -0.1245
      2  CA        24.1210    2.6120    1.0250 C.3    20  GLU20       0.1567
      3  C         22.9390    3.1570    1.7880 C.2    20  GLU20       0.2260
      4  O         21.8730    2.5380    1.8190 O.2    20  GLU20      -0.2867
      5  CB        23.7880    2.4390   -0.4520 C.3    20  GLU20       0.0388
      6  CG        24.9510    1.8260   -1.2060 C.3    20  GLU20       0.1160
      7  CD        24.8360    1.9420   -2.7050 C.2    20  GLU20       0.3649
      8  OE1       24.2570    2.9280   -3.1910 O.co2  20  GLU20      -0.2457
      9  OE2       25.3670    1.0460   -3.3950 O.co2  20  GLU20      -0.2457
     10  N         20.6940    5.3080    1.4130 N.3    22  TYR22      -0.1241
     11  CA        19.3740    5.4560    0.8020 C.3    22  TYR22       0.1605
     12  C         18.6760    4.1210    0.5750 C.2    22  TYR22       0.2264
     13  O         17.4510    4.0780    0.4340 O.2    22  TYR22      -0.2867
     14  CB        19.4170    6.2660   -0.5000 C.3    22  TYR22       0.0534
     15  CG        19.7190    5.4700   -1.7540 C.ar   22  TYR22      -0.0201
     16  CD1       21.0240    5.2350   -2.1510 C.ar   22  TYR22      -0.0009
     17  CD2       18.6920    4.9830   -2.5570 C.ar   22  TYR22      -0.0009
     18  CE1       21.2950    4.5100   -3.3020 C.ar   22  TYR22       0.0417
     19  CE2       18.9570    4.2690   -3.7070 C.ar   22  TYR22       0.0417
     20  CZ        20.2610    4.0430   -4.0770 C.ar   22  TYR22       0.1957
     21  OH        20.5180    3.3410   -5.2350 O.3    22  TYR22      -0.2866
     22  N         33.4590   -2.8390   -5.7770 N.3   128  HIS128     -0.1241
     23  CA        32.6420   -1.6310   -5.7720 C.3   128  HIS128      0.1621
     24  C         33.2800   -0.4920   -4.9900 C.2   128  HIS128      0.2264
     25  O         32.9000    0.6800   -5.1450 O.2   128  HIS128     -0.2867
     26  CB        31.2820   -1.9990   -5.1760 C.3   128  HIS128      0.0745
     27  CG        30.1430   -1.1670   -5.6750 C.ar  128  HIS128      0.0817
     28  ND1       29.5660   -1.3570   -6.9110 N.ar  128  HIS128     -0.2268
     29  CD2       29.4580   -0.1580   -5.0830 C.ar  128  HIS128      0.1154
     30  CE1       28.5730   -0.4950   -7.0650 C.ar  128  HIS128      0.1986
     31  NE2       28.4930    0.2440   -5.9740 N.ar  128  HIS128     -0.2212
     32  N         31.9280    8.7040   -3.6000 N.3   137  PHE137     -0.1227
     33  CA        30.5130    8.4120   -3.3890 C.3   137  PHE137      0.1736
     34  C         30.3770    7.5960   -2.1110 C.2   137  PHE137      0.2595
     35  O         31.2650    6.8070   -1.7710 O.2   137  PHE137     -0.2718
     36  CB        29.9500    7.5470   -4.5180 C.3   137  PHE137      0.0547
     37  CG        30.1760    8.0850   -5.9080 C.ar  137  PHE137     -0.0202
     38  CD1       30.3280    9.4420   -6.1520 C.ar  137  PHE137     -0.0042
     39  CD2       30.1980    7.2080   -6.9840 C.ar  137  PHE137     -0.0042
     40  CE1       30.5190    9.9110   -7.4490 C.ar  137  PHE137     -0.0003
     41  CE2       30.3900    7.6660   -8.2860 C.ar  137  PHE137     -0.0003
     42  CZ        30.5530    9.0180   -8.5200 C.ar  137  PHE137     -0.0000
     43  N         29.2540    7.7290   -1.4120 N.am  138  ASP138     -0.1960
     44  CA        29.1080    6.9290   -0.2020 C.3   138  ASP138      0.1840
     45  C         29.1330    5.4340   -0.5150 C.2   138  ASP138      0.2622
     46  O         29.5800    4.6240    0.3070 O.2   138  ASP138     -0.2715
     47  CB        27.8820    7.3270    0.6350 C.3   138  ASP138      0.1450
     48  CG        26.5710    7.2670   -0.1350 C.2   138  ASP138      0.3671
     49  OD1       26.5060    6.7720   -1.2810 O.co2 138  ASP138     -0.2456
     50  OD2       25.5640    7.7150    0.4440 O.co2 138  ASP138     -0.2456
     51  N         28.7060    5.0780   -1.7240 N.am  139  ASN139     -0.1972
     52  CA        28.6740    3.6750   -2.1110 C.3   139  ASN139      0.1688
     53  C         30.0460    3.0760   -2.4210 C.2   139  ASN139      0.2292
     54  O         30.1380    1.8950   -2.7530 O.2   139  ASN139     -0.2864
     55  CB        27.7330    3.4570   -3.2940 C.3   139  ASN139      0.1181
     56  CG        28.0620    4.3420   -4.4650 C.2   139  ASN139      0.2629
     57  OD1       29.1160    4.2000   -5.0930 O.2   139  ASN139     -0.2716
     58  ND2       27.1680    5.2800   -4.7630 N.am  139  ASN139     -0.0877
     59  N         34.2290   -0.4480   -9.7370 N.3   184  ASN184     -0.1225
     60  CA        33.0110    0.3060   -9.9890 C.3   184  ASN184      0.1785
     61  C         33.2760    1.8050  -10.0440 C.2   184  ASN184      0.2597
     62  O         33.8910    2.3570   -9.1300 O.2   184  ASN184     -0.2718
     63  CB        31.9960    0.0570   -8.8790 C.3   184  ASN184      0.1169
     64  CG        30.7210    0.8400   -9.0940 C.2   184  ASN184      0.2627
     65  OD1       29.9890    0.5940  -10.0550 O.2   184  ASN184     -0.2716
     66  ND2       30.4500    1.8020   -8.2110 N.am  184  ASN184     -0.0877
     67  N         32.8000    2.4580  -11.1050 N.am  185  GLU185     -0.1979
     68  CA        32.7220    3.9230  -11.1350 C.3   185  GLU185      0.1602
     69  C         33.9380    4.7150  -10.6360 C.2   185  GLU185      0.2287
     70  O         33.7950    5.5830   -9.7820 O.2   185  GLU185     -0.2864
     71  CB        31.4530    4.3900  -10.4190 C.3   185  GLU185      0.0415
     72  CG        30.2010    3.9400  -11.1680 C.3   185  GLU185      0.1163
     73  CD        28.9150    4.3580  -10.4940 C.2   185  GLU185      0.3649
     74  OE1       28.9670    4.7280   -9.3020 O.co2 185  GLU185     -0.2457
     75  OE2       27.8470    4.3110  -11.1560 O.co2 185  GLU185     -0.2457
     76  N         35.9760    7.7850  -10.6950 N.3   187  LEU187     -0.1245
     77  CA        35.4770    9.0820  -11.1110 C.3   187  LEU187      0.1561
     78  C         36.4990    9.7300  -12.0370 C.2   187  LEU187      0.2260
     79  O         37.3100   10.5590  -11.6170 O.2   187  LEU187     -0.2867
     80  CB        35.1880    9.9560   -9.8870 C.3   187  LEU187      0.0270
     81  CG        34.5110   11.3020  -10.1550 C.3   187  LEU187      0.0019
     82  CD1       33.2010   11.1080  -10.8940 C.3   187  LEU187      0.0001
     83  CD2       34.2920   12.0270   -8.8280 C.3   187  LEU187      0.0001
     84  N         36.8000   12.1620  -14.1600 N.3   189  PRO189     -0.2116
     85  CA        37.1220   13.5930  -14.1930 C.3   189  PRO189      0.1372
     86  C         38.0930   14.0800  -13.1160 C.2   189  PRO189      0.2244
     87  O         38.7100   15.1360  -13.3210 O.2   189  PRO189     -0.2868
     88  CB        35.7540   14.2500  -14.0200 C.3   189  PRO189      0.0268
     89  CG        34.8230   13.2960  -14.6730 C.3   189  PRO189      0.0207
     90  CD        35.3470   11.9340  -14.3120 C.3   189  PRO189      0.0892
     91  N         32.9540    7.2090  -16.4490 N.3   222  PHE222     -0.1241
     92  CA        32.1950    8.4030  -16.8100 C.3   222  PHE222      0.1605
     93  C         32.7250    9.1130  -18.0460 C.2   222  PHE222      0.2264
     94  O         32.5010   10.3150  -18.2350 O.2   222  PHE222     -0.2867
     95  CB        32.0770    9.3530  -15.6130 C.3   222  PHE222      0.0534
     96  CG        31.4870    8.7010  -14.4020 C.ar  222  PHE222     -0.0203
     97  CD1       30.1100    8.5130  -14.3100 C.ar  222  PHE222     -0.0042
     98  CD2       32.2980    8.2510  -13.3670 C.ar  222  PHE222     -0.0042
     99  CE1       29.5470    7.9060  -13.1980 C.ar  222  PHE222     -0.0003
    100  CE2       31.7340    7.6310  -12.2410 C.ar  222  PHE222     -0.0003
    101  CZ        30.3620    7.4680  -12.1570 C.ar  222  PHE222     -0.0000
    102  N         27.0960    3.0460  -17.0000 N.3   246  HIS246     -0.1241
    103  CA        25.9960    3.3480  -16.0940 C.3   246  HIS246      0.1621
    104  C         25.2550    4.5650  -16.6120 C.2   246  HIS246      0.2264
    105  O         25.8560    5.4550  -17.2140 O.2   246  HIS246     -0.2867
    106  CB        26.5120    3.6040  -14.6780 C.3   246  HIS246      0.0745
    107  CG        27.1570    2.4070  -14.0630 C.ar  246  HIS246      0.0817
    108  ND1       27.7310    2.4260  -12.8080 N.ar  246  HIS246     -0.2268
    109  CD2       27.3200    1.1460  -14.5300 C.ar  246  HIS246      0.1154
    110  CE1       28.2140    1.2270  -12.5300 C.ar  246  HIS246      0.1986
    111  NE2       27.9820    0.4330  -13.5610 N.ar  246  HIS246     -0.2212
    112  N         21.9950    7.3770  -15.7460 N.3   248  TYR248     -0.1241
    113  CA        20.8900    7.9930  -15.0240 C.3   248  TYR248      0.1605
    114  C         20.6260    9.3660  -15.5890 C.2   248  TYR248      0.2264
    115  O         21.4280    9.9090  -16.3590 O.2   248  TYR248     -0.2867
    116  CB        21.2090    8.1420  -13.5360 C.3   248  TYR248      0.0534
    117  CG        21.6460    6.8760  -12.8670 C.ar  248  TYR248     -0.0201
    118  CD1       20.7250    5.9250  -12.4320 C.ar  248  TYR248     -0.0009
    119  CD2       22.9890    6.6200  -12.6780 C.ar  248  TYR248     -0.0009
    120  CE1       21.1690    4.7520  -11.8200 C.ar  248  TYR248      0.0417
    121  CE2       23.4180    5.4750  -12.0810 C.ar  248  TYR248      0.0417
    122  CZ        22.5180    4.5460  -11.6580 C.ar  248  TYR248      0.1957
    123  OH        23.0300    3.4150  -11.0460 O.3   248  TYR248     -0.2866
    124  N         21.1850   13.2080  -11.6080 N.3   251  PHE251     -0.1241
    125  CA        22.2470   13.7080  -10.7330 C.3   251  PHE251      0.1605
    126  C         22.7710   15.0990  -11.0750 C.2   251  PHE251      0.2264
    127  O         23.8520   15.4950  -10.6290 O.2   251  PHE251     -0.2867
    128  CB        23.3760   12.6820  -10.6000 C.3   251  PHE251      0.0534
    129  CG        22.9710   11.4630   -9.8150 C.ar  251  PHE251     -0.0203
    130  CD1       22.5930   11.5850   -8.4860 C.ar  251  PHE251     -0.0042
    131  CD2       22.9310   10.2100  -10.4090 C.ar  251  PHE251     -0.0042
    132  CE1       22.2020   10.4710   -7.7440 C.ar  251  PHE251     -0.0003
    133  CE2       22.5400    9.0930   -9.6770 C.ar  251  PHE251     -0.0003
    134  CZ        22.1740    9.2270   -8.3400 C.ar  251  PHE251     -0.0000
    135  N         19.5660   17.6380  -15.9150 N.3   255  GLU255     -0.1245
    136  CA        18.9680   16.3670  -16.2730 C.3   255  GLU255      0.1567
    137  C         17.5850   16.2380  -15.6590 C.2   255  GLU255      0.2260
    138  O         16.6610   15.7280  -16.2880 O.2   255  GLU255     -0.2867
    139  CB        19.8520   15.2230  -15.7890 C.3   255  GLU255      0.0388
    140  CG        21.1260   15.0810  -16.5610 C.3   255  GLU255      0.1160
    141  CD        22.1040   14.1930  -15.8500 C.2   255  GLU255      0.3649
    142  OE1       22.8160   14.7010  -14.9560 O.co2 255  GLU255     -0.2457
    143  OE2       22.1450   12.9870  -16.1680 O.co2 255  GLU255     -0.2457
    144  N         24.2900   -0.4750  -14.5000 N.3   285  SER285     -0.1217
    145  CA        23.5790    0.2620  -13.4590 C.3   285  SER285      0.1889
    146  C         22.7390    1.3610  -14.0940 C.2   285  SER285      0.2288
    147  O         23.2370    2.1590  -14.9030 O.2   285  SER285     -0.2866
    148  CB        24.5600    0.8460  -12.4410 C.3   285  SER285      0.2089
    149  OG        23.8680    1.2400  -11.2650 O.3   285  SER285     -0.2183
    150  N         19.6390    9.8390   -1.2470 N.3   297  LEU297     -0.1231
    151  CA        20.1900    9.3500   -2.5160 C.3   297  LEU297      0.1693
    152  C         21.5270   10.0210   -2.7990 C.2   297  LEU297      0.2592
    153  O         22.4750    9.3670   -3.2370 O.2   297  LEU297     -0.2718
    154  CB        19.2350    9.6180   -3.6780 C.3   297  LEU297      0.0284
    155  CG        19.7320    9.0910   -5.0310 C.3   297  LEU297      0.0019
    156  CD1       19.7250    7.5660   -5.0430 C.3   297  LEU297      0.0001
    157  CD2       18.8510    9.6310   -6.1290 C.3   297  LEU297      0.0001
    158  N         21.6010   11.3270   -2.5360 N.am  298  ASN298     -0.1974
    159  CA        22.8220   12.0840   -2.7640 C.3   298  ASN298      0.1688
    160  C         23.8030   11.9710   -1.6070 C.2   298  ASN298      0.2292
    161  O         24.9330   12.4690   -1.6830 O.2   298  ASN298     -0.2864
    162  CB        22.4580   13.5470   -2.9840 C.3   298  ASN298      0.1181
    163  CG        21.6240   13.7380   -4.2180 C.2   298  ASN298      0.2629
    164  OD1       21.9380   13.1840   -5.2810 O.2   298  ASN298     -0.2716
    165  ND2       20.5470   14.5040   -4.0980 N.am  298  ASN298     -0.0877
    166  N         18.1420   17.6530   -5.2470 N.3   305  ARG305     -0.1245
    167  CA        18.1420   18.7620   -6.1990 C.3   305  ARG305      0.1563
    168  C         16.7530   18.9940   -6.7750 C.2   305  ARG305      0.2260
    169  O         16.4050   20.1190   -7.1300 O.2   305  ARG305     -0.2867
    170  CB        19.1200   18.5130   -7.3490 C.3   305  ARG305      0.0307
    171  CG        20.5810   18.5330   -6.9330 C.3   305  ARG305      0.0489
    172  CD        21.4940   18.5500   -8.1500 C.3   305  ARG305      0.2205
    173  NE        22.8950   18.6880   -7.7540 N.pl3 305  ARG305     -0.0865
    174  CZ        23.6740   17.6760   -7.3720 C.cat 305  ARG305      0.5346
    175  NH1       23.2040   16.4230   -7.3490 N.pl3 305  ARG305      0.1354
    176  NH2       24.9360   17.9180   -7.0280 N.pl3 305  ARG305      0.1354
    177  N         19.6240   -1.1300  -11.1680 N.3   356  TRP356     -0.1241
    178  CA        19.9800   -0.7870   -9.8000 C.3   356  TRP356      0.1605
    179  C         18.7300   -0.3500   -9.0510 C.2   356  TRP356      0.2264
    180  O         18.2570    0.7640   -9.2620 O.2   356  TRP356     -0.2867
    181  CB        21.0170    0.3530   -9.7360 C.3   356  TRP356      0.0550
    182  CG        21.4870    0.4480   -8.3240 C.ar  356  TRP356      0.0003
    183  CD1       20.8400    1.0460   -7.2800 C.ar  356  TRP356      0.0946
    184  CD2       22.6480   -0.1780   -7.7710 C.ar  356  TRP356      0.0152
    185  NE1       21.5450    0.8540   -6.1180 N.ar  356  TRP356     -0.2442
    186  CE2       22.6660    0.1170   -6.3930 C.ar  356  TRP356      0.0810
    187  CE3       23.7110   -0.9070   -8.3190 C.ar  356  TRP356      0.0012
    188  CZ2       23.6860   -0.3260   -5.5490 C.ar  356  TRP356      0.0191
    189  CZ3       24.7260   -1.3450   -7.4830 C.ar  356  TRP356      0.0001
    190  CH2       24.7060   -1.0600   -6.1140 C.ar  356  TRP356      0.0015
    191  N         14.1200    2.7780   -7.1570 N.3   366  TRP366     -0.1241
    192  CA        15.3850    2.0700   -7.1440 C.3   366  TRP366      0.1605
    193  C         15.2050    0.6030   -6.7850 C.2   366  TRP366      0.2264
    194  O         16.1620   -0.0690   -6.4190 O.2   366  TRP366     -0.2867
    195  CB        16.3310    2.7510   -6.1430 C.3   366  TRP366      0.0550
    196  CG        16.5710    4.1810   -6.5200 C.ar  366  TRP366      0.0003
    197  CD1       15.8410    5.2730   -6.1350 C.ar  366  TRP366      0.0946
    198  CD2       17.5980    4.6680   -7.3880 C.ar  366  TRP366      0.0152
    199  NE1       16.3570    6.4100   -6.7130 N.ar  366  TRP366     -0.2442
    200  CE2       17.4390    6.0630   -7.4850 C.ar  366  TRP366      0.0810
    201  CE3       18.6460    4.0550   -8.0890 C.ar  366  TRP366      0.0012
    202  CZ2       18.2860    6.8590   -8.2610 C.ar  366  TRP366      0.0191
    203  CZ3       19.4910    4.8450   -8.8510 C.ar  366  TRP366      0.0001
    204  CH2       19.3070    6.2300   -8.9320 C.ar  366  TRP366      0.0015
@<TRIPOS>BOND
     1    94    93    2
     2    93    92    1
     3   105   104    2
     4   102   103    1
     5    92    91    1
     6    92    95    1
     7   104   103    1
     8   140   141    1
     9   140   139    1
    10   115   114    2
    11   138   137    2
    12   136   135    1
    13   136   139    1
    14   136   137    1
    15   143   141   ar
    16   103   106    1
    17   141   142   ar
    18   112   113    1
    19    95    96    1
    20   114   113    1
    21   113   116    1
    22   147   146    2
    23   106   107    1
    24    89    90    1
    25    89    88    1
    26   109   107   ar
    27   109   111   ar
    28   144   145    1
    29    96    97   ar
    30    96    98   ar
    31    90    84    1
    32    97    99   ar
    33    85    84    1
    34    85    88    1
    35    85    86    1
    36   146   145    1
    37   107   108   ar
    38   111   110   ar
    39   116   117    1
    40   145   148    1
    41    98   100   ar
    42    87    86    2
    43    99   101   ar
    44   117   119   ar
    45   117   118   ar
    46   108   110   ar
    47   119   121   ar
    48   148   149    1
    49   118   120   ar
    50   100   101   ar
    51   121   122   ar
    52    78    79    2
    53    78    77    1
    54   120   122   ar
    55   122   123    1
    56   124   125    1
    57    72    73    1
    58    72    71    1
    59   177   178    1
    60    75    73   ar
    61    68    67    1
    62    68    69    1
    63    68    71    1
    64    77    76    1
    65    77    80    1
    66    67    61   am
    67   126   125    1
    68   126   127    2
    69    82    81    1
    70   125   128    1
    71    69    70    2
    72   128   129    1
    73    73    74   ar
    74   131   129   ar
    75   131   133   ar
    76    81    80    1
    77    81    83    1
    78    65    64    2
    79    61    60    1
    80    61    62    2
    81    60    59    1
    82    60    63    1
    83   129   130   ar
    84   178   181    1
    85   178   179    1
    86   181   182    1
    87   133   134   ar
    88   180   179    2
    89    64    63    1
    90    64    66   am
    91   204   203   ar
    92   204   202   ar
    93   203   201   ar
    94    42    41   ar
    95    42    40   ar
    96   130   132   ar
    97   134   132   ar
    98   182   184   ar
    99   182   183   ar
   100   187   184   ar
   101   187   189   ar
   102    41    39   ar
   103   202   200   ar
   104   172   173    1
   105   172   171    1
   106   201   198   ar
   107   184   186   ar
   108   173   174    2
   109   200   198   ar
   110   200   199   ar
   111   189   190   ar
   112    40    38   ar
   113   198   196   ar
   114   174   175    1
   115   174   176    1
   116   170   171    1
   117   170   167    1
   118   183   185   ar
   119   191   192    1
   120   192   193    1
   121   192   195    1
   122   169   168    2
   123    30    28   ar
   124    30    31   ar
   125    39    37   ar
   126    28    27   ar
   127   193   194    2
   128   168   167    1
   129   199   197   ar
   130   196   195    1
   131   196   197   ar
   132   186   185   ar
   133   186   188   ar
   134   167   166    1
   135    38    37   ar
   136   157   155    1
   137   190   188   ar
   138    31    29   ar
   139    37    36    1
   140    22    23    1
   141    23    26    1
   142    23    24    1
   143    27    26    1
   144    27    29   ar
   145   164   163    2
   146    21    20    1
   147    25    24    2
   148    57    56    2
   149   156   155    1
   150   155   154    1
   151    58    56   am
   152    36    33    1
   153    56    55    1
   154   163   165   am
   155   163   162    1
   156    20    19   ar
   157    20    18   ar
   158    19    17   ar
   159   154   151    1
   160    32    33    1
   161     9     7   ar
   162    33    34    1
   163    18    16   ar
   164    55    52    1
   165   153   152    2
   166     8     7   ar
   167   162   159    1
   168   152   158   am
   169   152   151    1
   170   159   158    1
   171   159   160    1
   172    54    53    2
   173     7     6    1
   174    17    15   ar
   175   151   150    1
   176    53    52    1
   177    16    15   ar
   178    52    51    1
   179    34    35    2
   180    34    43   am
   181    15    14    1
   182    51    45   am
   183   161   160    2
   184    43    44    1
   185    49    48   ar
   186     6     5    1
   187    45    44    1
   188    45    46    2
   189    14    11    1
   190     5     2    1
   191    44    47    1
   192    48    50   ar
   193    48    47    1
   194    13    12    2
   195    12    11    1
   196    11    10    1
   197     2     1    1
   198     2     3    1
   199     3     4    2
