@<TRIPOS>MOLECULE
tmp/4m84A00.pdb
 163 152 0 0 0
SMALL
GASTEIGER

@<TRIPOS>ATOM
      1  N         26.1350   17.3000   67.7000 N.3    14  LEU14      -0.1231
      2  CA        26.1790   16.7770   66.3430 C.3    14  LEU14       0.1693
      3  C         26.0540   17.9130   65.3670 C.2    14  LEU14       0.2593
      4  O         26.7760   17.9770   64.3880 O.2    14  LEU14      -0.2718
      5  CB        25.0520   15.7690   66.1100 C.3    14  LEU14       0.0284
      6  CG        25.2610   14.4270   66.8040 C.3    14  LEU14       0.0019
      7  CD1       24.0130   13.5780   66.7050 C.3    14  LEU14       0.0001
      8  CD2       26.4930   13.6960   66.2500 C.3    14  LEU14       0.0001
      9  N         25.1030   18.7970   65.6260 N.am   15  GLY15      -0.1942
     10  CA        24.9660   19.9990   64.8490 C.3    15  GLY15       0.2014
     11  C         23.7720   20.8190   65.2810 C.2    15  GLY15       0.2639
     12  O         23.2080   20.6400   66.3500 O.2    15  GLY15      -0.2714
     13  N         23.4020   21.7290   64.4100 N.am   16  LYS16      -0.1963
     14  CA        22.4070   22.7290   64.6750 C.3    16  LYS16       0.1728
     15  C         21.4640   22.6130   63.5050 C.2    16  LYS16       0.2616
     16  O         21.9090   22.6500   62.3640 O.2    16  LYS16      -0.2715
     17  CB        23.0760   24.1080   64.7220 C.3    16  LYS16       0.0311
     18  CG        22.2060   25.2850   64.3130 C.3    16  LYS16       0.0038
     19  CD        21.0460   25.5080   65.2700 C.3    16  LYS16       0.0206
     20  CE        20.0380   26.4900   64.6830 C.3    16  LYS16       0.1093
     21  NZ        18.7360   26.3940   65.3900 N.3    16  LYS16      -0.1314
     22  N         20.1720   22.4580   63.7740 N.am   17  GLY17      -0.1955
     23  CA        19.2200   22.3510   62.7040 C.3    17  GLY17       0.1869
     24  C         18.0640   23.3040   62.9020 C.2    17  GLY17       0.2309
     25  O         18.1330   24.2590   63.6890 O.2    17  GLY17      -0.2863
     26  N         21.0760   19.6770   67.8570 N.3    22  VAL22      -0.1245
     27  CA        20.9660   18.2450   67.8680 C.3    22  VAL22       0.1561
     28  C         22.2050   17.7460   68.5800 C.2    22  VAL22       0.2260
     29  O         23.3420   18.1090   68.2110 O.2    22  VAL22      -0.2867
     30  CB        20.9240   17.6580   66.4610 C.3    22  VAL22       0.0252
     31  CG1       20.6860   16.1700   66.5460 C.3    22  VAL22       0.0019
     32  CG2       19.8580   18.3590   65.6380 C.3    22  VAL22       0.0019
     33  N         20.0190   10.6110   68.5690 N.3    35  ALA35      -0.1245
     34  CA        20.1740   12.0010   68.2040 C.3    35  ALA35       0.1562
     35  C         18.9740   12.7620   68.7740 C.2    35  ALA35       0.2260
     36  O         17.8030   12.4470   68.4730 O.2    35  ALA35      -0.2867
     37  CB        20.2450   12.1320   66.6810 C.3    35  ALA35       0.0290
     38  N         17.0160   16.2810   69.2470 N.3    37  LYS37      -0.1245
     39  CA        16.8190   17.6630   68.8960 C.3    37  LYS37       0.1561
     40  C         16.2350   18.3560   70.0960 C.2    37  LYS37       0.2260
     41  O         15.1740   17.9590   70.5820 O.2    37  LYS37      -0.2867
     42  CB        15.8690   17.8200   67.6890 C.3    37  LYS37       0.0271
     43  CG        15.6150   19.2950   67.3710 C.3    37  LYS37       0.0035
     44  CD        15.2140   19.5440   65.9230 C.3    37  LYS37       0.0206
     45  CE        16.4480   19.4630   65.0170 C.3    37  LYS37       0.1093
     46  NZ        16.1450   19.7430   63.5920 N.3    37  LYS37      -0.1314
     47  N         13.3870    9.6540   59.0150 N.3    69  MET69      -0.1245
     48  CA        14.0120    9.5420   60.3370 C.3    69  MET69       0.1570
     49  C         13.0380    8.9390   61.3530 C.2    69  MET69       0.2261
     50  O         11.8920    9.3190   61.4100 O.2    69  MET69      -0.2867
     51  CB        14.4480   10.8780   60.8650 C.3    69  MET69       0.0387
     52  CG        15.0910   10.7760   62.2320 C.3    69  MET69       0.0595
     53  SD        15.1690   12.3170   63.1260 S.3    69  MET69      -0.1393
     54  CE        13.6680   12.1770   64.1120 C.3    69  MET69       0.0692
     55  N         11.5610    8.4640   64.9520 N.3    71  LEU71      -0.1245
     56  CA        11.3990    9.1040   66.2570 C.3    71  LEU71       0.1561
     57  C         11.0930    8.0560   67.3100 C.2    71  LEU71       0.2260
     58  O         10.1920    7.2240   67.1430 O.2    71  LEU71      -0.2867
     59  CB        10.2940   10.1740   66.2140 C.3    71  LEU71       0.0270
     60  CG        10.0140   10.9750   67.5230 C.3    71  LEU71       0.0019
     61  CD1       11.1200   11.9700   67.8650 C.3    71  LEU71       0.0001
     62  CD2        8.7030   11.7320   67.4620 C.3    71  LEU71       0.0001
     63  N         13.2890   15.8740   71.3580 N.3    83  LEU83      -0.1231
     64  CA        12.8360   14.9030   70.3910 C.3    83  LEU83       0.1693
     65  C         13.9660   13.9290   70.1770 C.2    83  LEU83       0.2592
     66  O         15.0620   14.2960   69.7190 O.2    83  LEU83      -0.2718
     67  CB        12.4830   15.5360   69.0750 C.3    83  LEU83       0.0284
     68  CG        11.7760   16.8750   69.0340 C.3    83  LEU83       0.0019
     69  CD1       11.3120   17.1120   67.6080 C.3    83  LEU83       0.0001
     70  CD2       10.6100   16.9890   69.9620 C.3    83  LEU83       0.0001
     71  N         13.7060   12.6860   70.5200 N.am   84  VAL84      -0.1966
     72  CA        14.7450   11.6590   70.5090 C.3    84  VAL84       0.1727
     73  C         14.5670   10.7200   69.3410 C.2    84  VAL84       0.2617
     74  O         13.5880    9.9450   69.3000 O.2    84  VAL84      -0.2715
     75  CB        14.7430   10.8330   71.7990 C.3    84  VAL84       0.0290
     76  CG1       15.9120    9.8600   71.7990 C.3    84  VAL84       0.0023
     77  CG2       14.8290   11.7490   73.0160 C.3    84  VAL84       0.0023
     78  N         15.5500   10.7450   68.4340 N.am   85  GLY85      -0.1940
     79  CA        15.4960    9.9820   67.1940 C.3    85  GLY85       0.2014
     80  C         16.7350    9.1490   66.9830 C.2    85  GLY85       0.2639
     81  O         17.6750    9.1760   67.7810 O.2    85  GLY85      -0.2714
     82  N         16.7160    8.3990   65.9030 N.am   86  GLU86      -0.1963
     83  CA        17.8090    7.5650   65.5080 C.3    86  GLU86       0.1733
     84  C         18.9130    8.4770   65.0100 C.2    86  GLU86       0.2616
     85  O         18.6300    9.5240   64.3990 O.2    86  GLU86      -0.2715
     86  CB        17.3260    6.6410   64.4010 C.3    86  GLU86       0.0429
     87  CG        18.2100    5.4330   64.1490 C.3    86  GLU86       0.1163
     88  CD        17.7390    4.5910   62.9690 C.2    86  GLU86       0.3649
     89  OE1       16.6530    4.8460   62.3660 O.co2  86  GLU86      -0.2457
     90  OE2       18.4890    3.6860   62.5930 O.co2  86  GLU86      -0.2457
     91  N         20.1670    8.0880   65.2360 N.am   87  VAL87      -0.1963
     92  CA        21.2820    8.8830   64.7640 C.3    87  VAL87       0.1727
     93  C         21.8030    8.3090   63.4590 C.2    87  VAL87       0.2616
     94  O         21.9420    7.1190   63.3120 O.2    87  VAL87      -0.2715
     95  CB        22.4210    9.0580   65.8070 C.3    87  VAL87       0.0290
     96  CG1       22.7580    7.7720   66.4890 C.3    87  VAL87       0.0023
     97  CG2       23.6940    9.6450   65.1780 C.3    87  VAL87       0.0023
     98  N         22.0540    9.1950   62.5000 N.am   88  TYR88      -0.1974
     99  CA        22.6180    8.8370   61.2100 C.3    88  TYR88       0.1639
    100  C         23.9230    9.5960   60.9900 C.2    88  TYR88       0.2290
    101  O         24.0330   10.7670   61.3450 O.2    88  TYR88      -0.2864
    102  CB        21.6150    9.1730   60.0990 C.3    88  TYR88       0.0560
    103  CG        20.2050    8.6550   60.3640 C.ar   88  TYR88      -0.0198
    104  CD1       19.9390    7.2860   60.3940 C.ar   88  TYR88      -0.0009
    105  CD2       19.1360    9.5380   60.5890 C.ar   88  TYR88      -0.0009
    106  CE1       18.6580    6.8010   60.6400 C.ar   88  TYR88       0.0417
    107  CE2       17.8480    9.0490   60.8590 C.ar   88  TYR88       0.0417
    108  CZ        17.6140    7.6770   60.8850 C.ar   88  TYR88       0.1957
    109  OH        16.3300    7.1690   61.1380 O.3    88  TYR88      -0.2866
    110  N         25.9470   12.1850   56.9960 N.3    91  GLY91      -0.1210
    111  CA        26.0190   13.6140   56.7420 C.3    91  GLY91       0.1956
    112  C         24.9670   14.0520   55.7330 C.2    91  GLY91       0.2611
    113  O         24.1030   13.2640   55.3280 O.2    91  GLY91      -0.2717
    114  N         25.0190   15.3140   55.3410 N.am   92  GLU92      -0.1979
    115  CA        24.0650   15.8380   54.3500 C.3    92  GLU92       0.1602
    116  C         24.3460   15.3030   52.9440 C.2    92  GLU92       0.2287
    117  O         25.5120   15.2100   52.5050 O.2    92  GLU92      -0.2864
    118  CB        24.0680   17.3650   54.3690 C.3    92  GLU92       0.0415
    119  CG        23.5760   17.9350   55.6900 C.3    92  GLU92       0.1163
    120  CD        23.7220   19.4460   55.8040 C.2    92  GLU92       0.3649
    121  OE1       23.8520   20.1570   54.7730 O.co2  92  GLU92      -0.2457
    122  OE2       23.6630   19.9330   56.9490 O.co2  92  GLU92      -0.2457
    123  N         19.4240   20.1250   53.1180 N.3   135  GLU135     -0.1245
    124  CA        19.8420   19.9270   54.5270 C.3   135  GLU135      0.1567
    125  C         18.9870   18.9060   55.2900 C.2   135  GLU135      0.2260
    126  O         19.4200   18.3490   56.3000 O.2   135  GLU135     -0.2867
    127  CB        19.7690   21.2300   55.3110 C.3   135  GLU135      0.0388
    128  CG        20.8150   22.2460   54.9190 C.3   135  GLU135      0.1160
    129  CD        20.8870   23.3590   55.9400 C.2   135  GLU135      0.3649
    130  OE1       19.8580   23.5750   56.6650 O.co2 135  GLU135     -0.2457
    131  OE2       21.9680   23.9790   56.0120 O.co2 135  GLU135     -0.2457
    132  N         19.5430   13.4430   54.9680 N.3   138  LEU138     -0.1245
    133  CA        20.7470   12.8850   55.6000 C.3   138  LEU138      0.1561
    134  C         20.9960   11.5130   55.0460 C.2   138  LEU138      0.2260
    135  O         20.0740   10.8780   54.5870 O.2   138  LEU138     -0.2867
    136  CB        20.5790   12.7910   57.1080 C.3   138  LEU138      0.0270
    137  CG        20.4960   14.0960   57.8670 C.3   138  LEU138      0.0019
    138  CD1       20.6520   13.7940   59.3390 C.3   138  LEU138      0.0001
    139  CD2       21.5940   15.0950   57.4410 C.3   138  LEU138      0.0001
    140  N         14.7300   14.2970   57.5160 N.3   151  ILE151     -0.1231
    141  CA        14.5440   14.7350   58.9060 C.3   151  ILE151      0.1692
    142  C         13.5340   15.8730   58.9450 C.2   151  ILE151      0.2592
    143  O         13.3480   16.5820   57.9550 O.2   151  ILE151     -0.2718
    144  CB        15.8670   15.1900   59.5400 C.3   151  ILE151      0.0266
    145  CG1       16.4780   16.3380   58.7680 C.3   151  ILE151      0.0019
    146  CG2       16.8390   14.0190   59.5570 C.3   151  ILE151      0.0020
    147  CD1       17.6510   17.0130   59.4230 C.3   151  ILE151      0.0001
    148  N         12.9020   16.0180   60.1010 N.am  152  ASP152     -0.1974
    149  CA        12.0210   17.1520   60.4510 C.3   152  ASP152      0.1709
    150  C         10.6210   17.0660   59.8490 C.2   152  ASP152      0.2293
    151  O          9.8810   18.0610   59.8560 O.2   152  ASP152     -0.2864
    152  CB        12.6650   18.5090   60.1260 C.3   152  ASP152      0.1436
    153  CG        13.7670   18.9100   61.0960 C.2   152  ASP152      0.3671
    154  OD1       14.0020   18.2150   62.1120 O.co2 152  ASP152     -0.2456
    155  OD2       14.4330   19.9440   60.7910 O.co2 152  ASP152     -0.2456
    156  N          7.4340   18.7960   61.9320 N.3   155  LEU155     -0.1245
    157  CA         7.7430   19.7720   62.9720 C.3   155  LEU155      0.1561
    158  C          7.2460   21.1610   62.6260 C.2   155  LEU155      0.2260
    159  O          6.8210   21.8740   63.4980 O.2   155  LEU155     -0.2867
    160  CB         9.2380   19.7610   63.2730 C.3   155  LEU155      0.0270
    161  CG         9.7470   18.4010   63.7690 C.3   155  LEU155      0.0019
    162  CD1       11.1770   18.5800   64.2560 C.3   155  LEU155      0.0001
    163  CD2        8.8870   17.8210   64.8840 C.3   155  LEU155      0.0001
@<TRIPOS>BOND
     1   117   116    2
     2   116   115    1
     3   123   124    1
     4   115   118    1
     5   115   114    1
     6   118   119    1
     7   124   125    1
     8   124   127    1
     9   135   134    2
    10   121   120   ar
    11   128   127    1
    12   128   129    1
    13   132   133    1
    14   134   133    1
    15   125   126    2
    16   113   112    2
    17   114   112   am
    18   133   136    1
    19   119   120    1
    20   112   111    1
    21   120   122   ar
    22   129   131   ar
    23   129   130   ar
    24   111   110    1
    25   136   137    1
    26   139   137    1
    27   140   141    1
    28   137   138    1
    29   143   142    2
    30   145   147    1
    31   145   144    1
    32   141   142    1
    33   141   144    1
    34   142   148   am
    35    47    48    1
    36   144   146    1
    37   150   151    2
    38   150   149    1
    39   102   103    1
    40   102    99    1
    41   148   149    1
    42   152   149    1
    43   152   153    1
    44    48    51    1
    45    48    49    1
    46   103   104   ar
    47   103   105   ar
    48   104   106   ar
    49   105   107   ar
    50   106   108   ar
    51   155   153   ar
    52   107   108   ar
    53    51    52    1
    54   108   109    1
    55   100    99    1
    56   100   101    2
    57   153   154   ar
    58    99    98    1
    59    49    50    2
    60   156   157    1
    61    52    53    1
    62    16    15    2
    63    89    88   ar
    64    98    93   am
    65    90    88   ar
    66   158   157    1
    67   158   159    2
    68    23    24    1
    69    23    22    1
    70    24    25    2
    71    88    87    1
    72   157   160    1
    73    53    54    1
    74   160   161    1
    75    94    93    2
    76    93    92    1
    77    15    22   am
    78    15    14    1
    79    46    45    1
    80   161   162    1
    81   161   163    1
    82    87    86    1
    83    18    17    1
    84    18    19    1
    85     4     3    2
    86    85    84    2
    87    86    83    1
    88    13    14    1
    89    13    11   am
    90    14    17    1
    91    20    19    1
    92    20    21    1
    93    92    91    1
    94    92    95    1
    95    10    11    1
    96    10     9    1
    97    55    56    1
    98    84    91   am
    99    84    83    1
   100    45    44    1
   101    97    95    1
   102    11    12    2
   103     3     9   am
   104     3     2    1
   105    83    82    1
   106    32    30    1
   107    95    96    1
   108    82    80   am
   109    44    43    1
   110     5     2    1
   111     5     6    1
   112    59    56    1
   113    59    60    1
   114     8     6    1
   115    56    57    1
   116     2     1    1
   117    30    31    1
   118    30    27    1
   119    37    34    1
   120     7     6    1
   121    80    79    1
   122    80    81    2
   123    58    57    2
   124    79    78    1
   125    43    42    1
   126    62    60    1
   127    60    61    1
   128    69    68    1
   129    42    39    1
   130    26    27    1
   131    27    28    1
   132    34    33    1
   133    34    35    1
   134    29    28    2
   135    78    73   am
   136    36    35    2
   137    39    38    1
   138    39    40    1
   139    68    67    1
   140    68    70    1
   141    67    64    1
   142    74    73    2
   143    73    72    1
   144    66    65    2
   145    40    41    2
   146    65    64    1
   147    65    71   am
   148    64    63    1
   149    72    71    1
   150    72    75    1
   151    75    76    1
   152    75    77    1
