@<TRIPOS>MOLECULE
tmp/4m89A01.pdb
 153 145 0 0 0
SMALL
GASTEIGER

@<TRIPOS>ATOM
      1  N         29.7150  -28.1150   -2.6360 N.3    91  ILE91      -0.1231
      2  CA        29.5110  -26.7180   -2.9520 C.3    91  ILE91       0.1692
      3  C         29.2340  -25.9150   -1.6950 C.2    91  ILE91       0.2593
      4  O         28.6190  -26.4080   -0.7440 O.2    91  ILE91      -0.2718
      5  CB        28.3540  -26.5210   -3.9590 C.3    91  ILE91       0.0266
      6  CG1       27.0290  -27.0200   -3.3830 C.3    91  ILE91       0.0019
      7  CG2       28.6680  -27.2200   -5.2860 C.3    91  ILE91       0.0020
      8  CD1       25.8940  -27.0060   -4.3800 C.3    91  ILE91       0.0001
      9  N         29.6940  -24.6740   -1.6970 N.am   92  GLY92      -0.1942
     10  CA        29.4490  -23.7890   -0.5890 C.3    92  GLY92       0.2014
     11  C         29.7520  -22.3630   -0.9850 C.2    92  GLY92       0.2639
     12  O         30.5120  -22.1230   -1.9230 O.2    92  GLY92      -0.2714
     13  N         29.1440  -21.4280   -0.2650 N.am   93  PHE93      -0.1959
     14  CA        29.4170  -20.0150   -0.4560 C.3    93  PHE93       0.1771
     15  C         28.9300  -19.1750    0.7200 C.2    93  PHE93       0.2619
     16  O         27.8780  -19.4290    1.2920 O.2    93  PHE93      -0.2715
     17  CB        28.7960  -19.4500   -1.7380 C.3    93  PHE93       0.0574
     18  CG        29.1530  -18.0020   -1.9610 C.ar   93  PHE93      -0.0200
     19  CD1       30.4090  -17.6560   -2.4350 C.ar   93  PHE93      -0.0042
     20  CD2       28.2580  -16.9910   -1.6340 C.ar   93  PHE93      -0.0042
     21  CE1       30.7570  -16.3210   -2.6090 C.ar   93  PHE93      -0.0003
     22  CE2       28.5970  -15.6560   -1.8030 C.ar   93  PHE93      -0.0003
     23  CZ        29.8470  -15.3220   -2.2920 C.ar   93  PHE93      -0.0000
     24  N         29.7410  -18.1790    1.0640 N.am   94  ALA94      -0.1977
     25  CA        29.3500  -17.0880    1.9450 C.3    94  ALA94       0.1597
     26  C         30.1950  -15.8720    1.5300 C.2    94  ALA94       0.2287
     27  O         31.3040  -16.0620    1.0430 O.2    94  ALA94      -0.2864
     28  CB        29.5880  -17.4380    3.3990 C.3    94  ALA94       0.0319
     29  N         32.8400  -13.1360    1.5170 N.3    96  LYS96      -0.1245
     30  CA        34.1590  -13.1910    2.1270 C.3    96  LYS96       0.1561
     31  C         34.2630  -12.3540    3.4090 C.2    96  LYS96       0.2260
     32  O         34.9270  -12.7630    4.3660 O.2    96  LYS96      -0.2867
     33  CB        35.1940  -12.7370    1.1020 C.3    96  LYS96       0.0271
     34  CG        36.6210  -12.9530    1.5410 C.3    96  LYS96       0.0035
     35  CD        37.6050  -12.5160    0.4620 C.3    96  LYS96       0.0206
     36  CE        39.0290  -12.5020    1.0010 C.3    96  LYS96       0.1093
     37  NZ        39.9100  -13.4790    0.2990 N.3    96  LYS96      -0.1314
     38  N         33.5570  -13.9600    6.7490 N.3    99  LEU99      -0.1245
     39  CA        34.4980  -14.9940    7.1920 C.3    99  LEU99       0.1561
     40  C         35.8400  -14.4280    7.6320 C.2    99  LEU99       0.2260
     41  O         36.8870  -15.0540    7.4540 O.2    99  LEU99      -0.2867
     42  CB        34.7430  -15.9840    6.0680 C.3    99  LEU99       0.0270
     43  CG        33.4910  -16.5700    5.4250 C.3    99  LEU99       0.0019
     44  CD1       33.9120  -17.6460    4.4440 C.3    99  LEU99       0.0001
     45  CD2       32.5400  -17.1300    6.4650 C.3    99  LEU99       0.0001
     46  N         32.2310  -29.4660    7.2950 N.3   146  TYR146     -0.1241
     47  CA        33.4410  -29.0740    8.0040 C.3   146  TYR146      0.1605
     48  C         33.1210  -28.9510    9.4950 C.2   146  TYR146      0.2264
     49  O         31.9920  -28.6530    9.8810 O.2   146  TYR146     -0.2867
     50  CB        34.0560  -27.7540    7.4370 C.3   146  TYR146      0.0534
     51  CG        35.3200  -27.3700    8.1830 C.ar  146  TYR146     -0.0201
     52  CD1       36.4040  -28.2130    8.1720 C.ar  146  TYR146     -0.0009
     53  CD2       35.4140  -26.1860    8.9340 C.ar  146  TYR146     -0.0009
     54  CE1       37.5500  -27.9060    8.8770 C.ar  146  TYR146      0.0417
     55  CE2       36.5680  -25.8680    9.6430 C.ar  146  TYR146      0.0417
     56  CZ        37.6280  -26.7410    9.6080 C.ar  146  TYR146      0.1957
     57  OH        38.7740  -26.4830   10.2990 O.3   146  TYR146     -0.2866
     58  N         35.7300  -18.8150   10.4800 N.3   156  TYR156     -0.1241
     59  CA        34.7930  -19.6180    9.7060 C.3   156  TYR156      0.1605
     60  C         33.3980  -19.0630    9.9340 C.2   156  TYR156      0.2264
     61  O         32.5590  -19.0640    9.0370 O.2   156  TYR156     -0.2867
     62  CB        34.8690  -21.0700   10.1430 C.3   156  TYR156      0.0534
     63  CG        34.2890  -22.0320    9.1330 C.ar  156  TYR156     -0.0201
     64  CD1       34.8530  -22.1490    7.8650 C.ar  156  TYR156     -0.0009
     65  CD2       33.1880  -22.8250    9.4440 C.ar  156  TYR156     -0.0009
     66  CE1       34.3300  -23.0240    6.9330 C.ar  156  TYR156      0.0417
     67  CE2       32.6620  -23.7140    8.5160 C.ar  156  TYR156      0.0417
     68  CZ        33.2400  -23.8150    7.2630 C.ar  156  TYR156      0.1957
     69  OH        32.7280  -24.6980    6.3480 O.3   156  TYR156     -0.2866
     70  N         29.6930  -19.5870    8.3130 N.3   159  MET159     -0.1245
     71  CA        29.7460  -20.8630    7.5740 C.3   159  MET159      0.1570
     72  C         29.5690  -22.0490    8.5100 C.2   159  MET159      0.2261
     73  O         29.0980  -23.1020    8.0850 O.2   159  MET159     -0.2867
     74  CB        31.0450  -21.0490    6.7790 C.3   159  MET159      0.0387
     75  CG        31.0230  -20.4920    5.3720 C.3   159  MET159      0.0595
     76  SD        29.7470  -21.2830    4.3450 S.3   159  MET159     -0.1393
     77  CE        30.4310  -22.9060    4.0810 C.3   159  MET159      0.0692
     78  N         27.0180  -25.0520    7.9520 N.3   163  LYS163     -0.1245
     79  CA        27.4180  -26.4560    7.9530 C.3   163  LYS163      0.1561
     80  C         26.6320  -27.2860    8.9670 C.2   163  LYS163      0.2260
     81  O         26.3100  -28.4440    8.7020 O.2   163  LYS163     -0.2867
     82  CB        28.9220  -26.6070    8.2100 C.3   163  LYS163      0.0271
     83  CG        29.8230  -26.1620    7.0570 C.3   163  LYS163      0.0035
     84  CD        29.4910  -26.8480    5.7430 C.3   163  LYS163      0.0206
     85  CE        30.5870  -26.6120    4.7250 C.3   163  LYS163      0.1093
     86  NZ        30.2680  -27.1800    3.3900 N.3   163  LYS163     -0.1314
     87  N         39.0190  -32.4920    6.6570 N.3   190  GLY190     -0.1210
     88  CA        39.9830  -31.5480    7.1950 C.3   190  GLY190      0.1940
     89  C         40.3170  -30.4890    6.1490 C.2   190  GLY190      0.2454
     90  O         39.8780  -30.5790    5.0000 O.2   190  GLY190     -0.2732
     91  N         41.0900  -29.4670    6.5440 N.am  191  PRO191     -0.2717
     92  CA        41.4250  -28.3880    5.6300 C.3   191  PRO191      0.1535
     93  C         42.3090  -28.8400    4.4690 C.2   191  PRO191      0.2598
     94  O         43.2100  -29.6580    4.6340 O.2   191  PRO191     -0.2715
     95  CB        42.1530  -27.3690    6.5070 C.3   191  PRO191      0.0310
     96  CG        42.5850  -28.1110    7.7040 C.3   191  PRO191      0.0237
     97  CD        41.6570  -29.2670    7.8820 C.3   191  PRO191      0.0939
     98  N         41.9930  -28.2990    3.3050 N.am  192  ILE192     -0.1978
     99  CA        42.6670  -28.5820    2.0490 C.3   192  ILE192      0.1596
    100  C         42.7150  -27.2640    1.2850 C.2   192  ILE192      0.2287
    101  O         41.7000  -26.5700    1.1820 O.2   192  ILE192     -0.2864
    102  CB        41.8920  -29.6220    1.2070 C.3   192  ILE192      0.0276
    103  CG1       41.7720  -30.9600    1.9570 C.3   192  ILE192      0.0022
    104  CG2       42.5720  -29.8590   -0.1360 C.3   192  ILE192      0.0022
    105  CD1       40.8790  -31.9780    1.2650 C.3   192  ILE192      0.0001
    106  N         42.0560  -25.2020   -1.4110 N.3   194  THR194     -0.1218
    107  CA        41.2170  -25.1650   -2.5890 C.3   194  THR194      0.1862
    108  C         40.9450  -23.6920   -2.8980 C.2   194  THR194      0.2287
    109  O         41.2610  -22.8170   -2.1030 O.2   194  THR194     -0.2866
    110  CB        39.8760  -25.8820   -2.3350 C.3   194  THR194      0.1770
    111  OG1       39.1920  -25.2110   -1.2650 O.3   194  THR194     -0.2211
    112  CG2       40.1020  -27.3680   -1.9960 C.3   194  THR194      0.0375
    113  N         38.0300  -22.0710   -2.8830 N.3   196  ALA196     -0.1231
    114  CA        37.1220  -21.5470   -1.8620 C.3   196  ALA196      0.1694
    115  C         37.7930  -21.3000   -0.5200 C.2   196  ALA196      0.2591
    116  O         37.3930  -20.3930    0.2050 O.2   196  ALA196     -0.2718
    117  CB        35.9470  -22.4930   -1.6610 C.3   196  ALA196      0.0304
    118  N         38.7930  -22.1070   -0.1820 N.am  197  ALA197     -0.1980
    119  CA        39.4840  -21.9680    1.1030 C.3   197  ALA197      0.1597
    120  C         40.0670  -20.5560    1.3190 C.2   197  ALA197      0.2287
    121  O         40.1410  -20.0740    2.4520 O.2   197  ALA197     -0.2864
    122  CB        40.5830  -23.0100    1.2380 C.3   197  ALA197      0.0319
    123  N         38.7390  -17.7870    0.7930 N.3   199  GLY199     -0.1210
    124  CA        37.7230  -16.9300    1.4030 C.3   199  GLY199      0.1956
    125  C         37.7670  -16.8760    2.9230 C.2   199  GLY199      0.2611
    126  O         37.2370  -15.9430    3.5260 O.2   199  GLY199     -0.2717
    127  N         38.3800  -17.8750    3.5500 N.am  200  ILE200     -0.1979
    128  CA        38.5020  -17.8840    5.0100 C.3   200  ILE200      0.1595
    129  C         39.7600  -17.1210    5.3940 C.2   200  ILE200      0.2287
    130  O         40.8560  -17.5200    5.0090 O.2   200  ILE200     -0.2864
    131  CB        38.5930  -19.3030    5.6120 C.3   200  ILE200      0.0276
    132  CG1       37.4390  -20.1830    5.1490 C.3   200  ILE200      0.0022
    133  CG2       38.5710  -19.2290    7.1360 C.3   200  ILE200      0.0022
    134  CD1       37.6920  -21.6580    5.3790 C.3   200  ILE200      0.0001
    135  N         43.4810  -18.7020    6.3800 N.3   203  PHE203     -0.1241
    136  CA        43.3290  -20.1330    6.1170 C.3   203  PHE203      0.1605
    137  C         44.6580  -20.8810    6.2660 C.2   203  PHE203      0.2264
    138  O         44.6740  -21.9780    6.8150 O.2   203  PHE203     -0.2867
    139  CB        42.7340  -20.4060    4.7380 C.3   203  PHE203      0.0534
    140  CG        42.6900  -21.8680    4.3980 C.ar  203  PHE203     -0.0203
    141  CD1       41.7290  -22.6880    4.9630 C.ar  203  PHE203     -0.0042
    142  CD2       43.6280  -22.4310    3.5460 C.ar  203  PHE203     -0.0042
    143  CE1       41.6880  -24.0430    4.6740 C.ar  203  PHE203     -0.0003
    144  CE2       43.5910  -23.7880    3.2480 C.ar  203  PHE203     -0.0003
    145  CZ        42.6210  -24.5950    3.8110 C.ar  203  PHE203     -0.0000
    146  N         45.2080  -22.0250    9.7430 N.3   206  LEU206     -0.1245
    147  CA        44.2740  -23.0740   10.0780 C.3   206  LEU206      0.1561
    148  C         44.8250  -24.4140    9.5550 C.2   206  LEU206      0.2260
    149  O         44.9380  -25.4180   10.2920 O.2   206  LEU206     -0.2867
    150  CB        42.9230  -22.6650    9.4790 C.3   206  LEU206      0.0270
    151  CG        41.6670  -23.4480    9.7890 C.3   206  LEU206      0.0019
    152  CD1       40.4520  -22.7160    9.2300 C.3   206  LEU206      0.0001
    153  CD2       41.7810  -24.8360    9.1910 C.3   206  LEU206      0.0001
@<TRIPOS>BOND
     1     7     5    1
     2     8     6    1
     3     5     6    1
     4     5     2    1
     5     2     1    1
     6     2     3    1
     7   108   107    1
     8   108   109    2
     9   113   114    1
    10    21    19   ar
    11    21    23   ar
    12   107   110    1
    13   107   106    1
    14    19    18   ar
    15   110   112    1
    16   110   111    1
    17    23    22   ar
    18    18    17    1
    19    18    20   ar
    20    12    11    2
    21   114   117    1
    22   114   115    1
    23    22    20   ar
    24    17    14    1
    25     9     3   am
    26     9    10    1
    27     3     4    2
    28    11    10    1
    29    11    13   am
    30   115   118   am
    31   115   116    2
    32    14    13    1
    33    14    15    1
    34   118   119    1
    35   104   102    1
    36    37    36    1
    37    35    36    1
    38    35    34    1
    39    15    24   am
    40    15    16    2
    41   123   124    1
    42    27    26    2
    43    24    25    1
    44    33    34    1
    45    33    30    1
    46   119   122    1
    47   119   120    1
    48   101   100    2
    49   102   103    1
    50   102    99    1
    51   105   103    1
    52   100    99    1
    53   120   121    2
    54   124   125    1
    55    29    30    1
    56    26    25    1
    57    25    28    1
    58    99    98    1
    59    30    31    1
    60   125   126    2
    61   125   127   am
    62   144   142   ar
    63   144   145   ar
    64    98    93   am
    65    86    85    1
    66    31    32    2
    67   142   140   ar
    68   127   128    1
    69   145   143   ar
    70    77    76    1
    71    76    75    1
    72   140   139    1
    73   140   141   ar
    74    44    43    1
    75    93    94    2
    76    93    92    1
    77   143   141   ar
    78    85    84    1
    79   139   136    1
    80    90    89    2
    81   130   129    2
    82   128   129    1
    83   128   131    1
    84   132   134    1
    85   132   131    1
    86    75    74    1
    87    43    42    1
    88    43    45    1
    89   131   133    1
    90    92    95    1
    91    92    91    1
    92    84    83    1
    93    42    39    1
    94   136   137    1
    95   136   135    1
    96    89    91   am
    97    89    88    1
    98   137   138    2
    99    69    68    1
   100    95    96    1
   101    91    97    1
   102    87    88    1
   103    38    39    1
   104    74    71    1
   105    66    68   ar
   106    66    64   ar
   107    83    82    1
   108    39    40    1
   109    68    67   ar
   110    46    47    1
   111    50    47    1
   112    50    51    1
   113    41    40    2
   114    71    70    1
   115    71    72    1
   116    96    97    1
   117    64    63   ar
   118    78    79    1
   119    79    82    1
   120    79    80    1
   121    47    48    1
   122    73    72    2
   123    52    51   ar
   124    52    54   ar
   125    51    53   ar
   126    67    65   ar
   127    81    80    2
   128    54    56   ar
   129    53    55   ar
   130    61    60    2
   131    63    65   ar
   132    63    62    1
   133   153   151    1
   134   152   151    1
   135   150   151    1
   136   150   147    1
   137    48    49    2
   138   148   147    1
   139   148   149    2
   140    56    55   ar
   141    56    57    1
   142    59    60    1
   143    59    62    1
   144    59    58    1
   145   146   147    1
