@<TRIPOS>MOLECULE
tmp/4m8dH00.pdb
 125 121 0 0 0
SMALL
GASTEIGER

@<TRIPOS>ATOM
      1  N        -13.8080   -8.8220   44.6230 N.3    35  LEU35      -0.1245
      2  CA       -14.1520   -8.7910   46.0500 C.3    35  LEU35       0.1561
      3  C        -15.5630   -9.2870   46.3610 C.2    35  LEU35       0.2260
      4  O        -16.5230   -8.9550   45.6620 O.2    35  LEU35      -0.2867
      5  CB       -14.0030   -7.3740   46.6030 C.3    35  LEU35       0.0270
      6  CG       -14.3130   -7.1680   48.0930 C.3    35  LEU35       0.0019
      7  CD1      -13.2970   -7.9050   48.9520 C.3    35  LEU35       0.0001
      8  CD2      -14.3360   -5.6850   48.4350 C.3    35  LEU35       0.0001
      9  N        -18.2790   -9.3000   49.5810 N.3    37  LEU37      -0.1245
     10  CA       -18.5880   -8.8060   50.9130 C.3    37  LEU37       0.1561
     11  C        -19.7610   -9.6120   51.4440 C.2    37  LEU37       0.2260
     12  O        -20.5190  -10.1890   50.6560 O.2    37  LEU37      -0.2867
     13  CB       -18.9030   -7.3100   50.8820 C.3    37  LEU37       0.0270
     14  CG       -17.7280   -6.3880   50.5190 C.3    37  LEU37       0.0019
     15  CD1      -18.2230   -5.0480   50.0230 C.3    37  LEU37       0.0001
     16  CD2      -16.8090   -6.1990   51.7180 C.3    37  LEU37       0.0001
     17  N        -24.1440   -7.3080   54.7030 N.3    41  PHE41      -0.1241
     18  CA       -23.4220   -6.0850   55.0420 C.3    41  PHE41       0.1605
     19  C        -23.4210   -5.0530   53.9090 C.2    41  PHE41       0.2264
     20  O        -23.5400   -3.8530   54.1520 O.2    41  PHE41      -0.2867
     21  CB       -21.9810   -6.4240   55.4350 C.3    41  PHE41       0.0534
     22  CG       -21.0780   -5.2250   55.5440 C.ar   41  PHE41      -0.0203
     23  CD1      -21.1860   -4.3520   56.6170 C.ar   41  PHE41      -0.0042
     24  CD2      -20.1070   -4.9840   54.5830 C.ar   41  PHE41      -0.0042
     25  CE1      -20.3510   -3.2520   56.7160 C.ar   41  PHE41      -0.0003
     26  CE2      -19.2700   -3.8860   54.6760 C.ar   41  PHE41      -0.0003
     27  CZ       -19.3900   -3.0200   55.7470 C.ar   41  PHE41      -0.0000
     28  N        -13.8990   -0.8800   40.8110 N.3    73  HIS73      -0.1241
     29  CA       -12.9670   -1.6150   41.6430 C.3    73  HIS73       0.1621
     30  C        -12.8530   -3.0560   41.1570 C.2    73  HIS73       0.2264
     31  O        -13.3500   -3.9910   41.7960 O.2    73  HIS73      -0.2867
     32  CB       -13.4060   -1.5210   43.1070 C.3    73  HIS73       0.0745
     33  CG       -13.3700   -0.1220   43.6380 C.ar   73  HIS73       0.0817
     34  ND1      -12.3520    0.3480   44.4480 N.ar   73  HIS73      -0.2268
     35  CD2      -14.1990    0.9260   43.4280 C.ar   73  HIS73       0.1154
     36  CE1      -12.5760    1.6180   44.7340 C.ar   73  HIS73       0.1986
     37  NE2      -13.6870    1.9950   44.1270 N.ar   73  HIS73      -0.2212
     38  N         -6.3290   -2.2470   40.2020 N.3    77  HIS77      -0.1241
     39  CA        -7.0860   -1.0100   40.2160 C.3    77  HIS77       0.1621
     40  C         -6.6440   -0.0230   41.2810 C.2    77  HIS77       0.2264
     41  O         -5.7830   -0.3080   42.1220 O.2    77  HIS77      -0.2867
     42  CB        -8.5960   -1.3060   40.3520 C.3    77  HIS77       0.0745
     43  CG        -9.0560   -1.6560   41.7370 C.ar   77  HIS77       0.0817
     44  ND1       -9.0460   -2.9460   42.2160 N.ar   77  HIS77      -0.2268
     45  CD2       -9.6140   -0.8990   42.7150 C.ar   77  HIS77       0.1154
     46  CE1       -9.5440   -2.9680   43.4400 C.ar   77  HIS77       0.1986
     47  NE2       -9.9010   -1.7380   43.7640 N.ar   77  HIS77      -0.2212
     48  N         -7.7720    3.0590   44.0640 N.3    79  ASP79      -0.1239
     49  CA        -8.7610    3.6620   44.9620 C.3    79  ASP79       0.1674
     50  C         -8.5080    5.1520   45.1150 C.2    79  ASP79       0.2266
     51  O         -7.4390    5.5400   45.5970 O.2    79  ASP79      -0.2867
     52  CB        -8.7180    3.0430   46.3610 C.3    79  ASP79       0.1410
     53  CG        -8.9940    1.5650   46.3670 C.2    79  ASP79       0.3668
     54  OD1       -9.8550    1.1280   45.5960 O.co2  79  ASP79      -0.2456
     55  OD2       -8.3510    0.8430   47.1630 O.co2  79  ASP79      -0.2456
     56  N        -13.5830    7.1300   47.6300 N.3    83  HIS83      -0.1226
     57  CA       -13.9520    5.7370   47.8550 C.3    83  HIS83       0.1752
     58  C        -14.3420    5.4470   49.3140 C.2    83  HIS83       0.2596
     59  O        -15.2390    4.6460   49.5610 O.2    83  HIS83      -0.2718
     60  CB       -12.8060    4.8220   47.4240 C.3    83  HIS83       0.0759
     61  CG       -13.1100    3.3660   47.5640 C.ar   83  HIS83       0.0818
     62  ND1      -14.3490    2.8330   47.2770 N.ar   83  HIS83      -0.2268
     63  CD2      -12.3320    2.3270   47.9540 C.ar   83  HIS83       0.1154
     64  CE1      -14.3230    1.5290   47.4920 C.ar   83  HIS83       0.1986
     65  NE2      -13.1110    1.1970   47.9030 N.ar   83  HIS83      -0.2212
     66  N        -13.6800    6.0900   50.2740 N.am   84  TRP84      -0.1976
     67  CA       -14.0200    5.8710   51.6820 C.3    84  TRP84       0.1640
     68  C        -14.6880    7.0810   52.3010 C.2    84  TRP84       0.2290
     69  O        -14.4630    8.2170   51.8790 O.2    84  TRP84      -0.2864
     70  CB       -12.7930    5.5110   52.5180 C.3    84  TRP84       0.0576
     71  CG       -13.0800    4.4190   53.5150 C.ar   84  TRP84       0.0006
     72  CD1      -13.1690    4.5280   54.8770 C.ar   84  TRP84       0.0946
     73  CD2      -13.3230    3.0440   53.2050 C.ar   84  TRP84       0.0152
     74  NE1      -13.4450    3.2950   55.4330 N.ar   84  TRP84      -0.2442
     75  CE2      -13.5460    2.3710   54.4230 C.ar   84  TRP84       0.0810
     76  CE3      -13.3630    2.3140   52.0060 C.ar   84  TRP84       0.0012
     77  CZ2      -13.8150    1.0060   54.4780 C.ar   84  TRP84       0.0191
     78  CZ3      -13.6260    0.9650   52.0620 C.ar   84  TRP84       0.0001
     79  CH2      -13.8480    0.3220   53.2900 C.ar   84  TRP84       0.0015
     80  N         -6.7700   -8.6550   46.9720 N.3   195  ILE195     -0.1231
     81  CA        -8.0010   -8.1190   46.3880 C.3   195  ILE195      0.1692
     82  C         -8.2360   -6.6480   46.7740 C.2   195  ILE195      0.2592
     83  O         -8.8550   -5.9000   46.0210 O.2   195  ILE195     -0.2718
     84  CB        -9.2390   -8.9910   46.7990 C.3   195  ILE195      0.0266
     85  CG1      -10.4820   -8.6370   45.9680 C.3   195  ILE195      0.0019
     86  CG2       -9.5070   -8.9110   48.3130 C.3   195  ILE195      0.0020
     87  CD1      -10.3420   -8.9780   44.4970 C.3   195  ILE195      0.0001
     88  N         -7.7380   -6.2400   47.9420 N.am  196  GLY196     -0.1957
     89  CA        -7.8670   -4.8610   48.3890 C.3   196  GLY196      0.1869
     90  C         -6.6130   -4.3620   49.0900 C.2   196  GLY196      0.2309
     91  O         -5.6700   -5.1200   49.2780 O.2   196  GLY196     -0.2863
     92  N         -6.3630   -3.5110   52.1550 N.3   198  ASP198     -0.1239
     93  CA        -6.3150   -4.0250   53.5270 C.3   198  ASP198      0.1674
     94  C         -6.1970   -5.5440   53.5710 C.2   198  ASP198      0.2266
     95  O         -6.4090   -6.2250   52.5680 O.2   198  ASP198     -0.2867
     96  CB        -7.5570   -3.5960   54.3130 C.3   198  ASP198      0.1410
     97  CG        -7.4640   -2.1700   54.8160 C.2   198  ASP198      0.3668
     98  OD1       -6.6420   -1.9200   55.7270 O.co2 198  ASP198     -0.2456
     99  OD2       -8.2050   -1.3060   54.2890 O.co2 198  ASP198     -0.2456
    100  N         -9.8750   -7.3160   57.4780 N.3   202  ALA202     -0.1245
    101  CA        -9.9350   -5.8890   57.7850 C.3   202  ALA202      0.1562
    102  C        -11.2530   -5.4610   58.4090 C.2   202  ALA202      0.2260
    103  O        -11.3300   -4.4080   59.0390 O.2   202  ALA202     -0.2867
    104  CB        -9.6820   -5.0720   56.5320 C.3   202  ALA202      0.0290
    105  N        -11.0260   -1.7330   58.0120 N.3   209  PHE209     -0.1241
    106  CA       -10.3390   -1.4170   56.7630 C.3   209  PHE209      0.1605
    107  C         -9.4150   -0.2020   56.9410 C.2   209  PHE209      0.2264
    108  O         -9.6320    0.8510   56.3380 O.2   209  PHE209     -0.2867
    109  CB       -11.3610   -1.1810   55.6500 C.3   209  PHE209      0.0534
    110  CG       -12.4110   -2.2680   55.5480 C.ar  209  PHE209     -0.0203
    111  CD1      -13.6350   -2.1380   56.1920 C.ar  209  PHE209     -0.0042
    112  CD2      -12.1700   -3.4190   54.8140 C.ar  209  PHE209     -0.0042
    113  CE1      -14.5990   -3.1410   56.1020 C.ar  209  PHE209     -0.0003
    114  CE2      -13.1300   -4.4240   54.7220 C.ar  209  PHE209     -0.0003
    115  CZ       -14.3440   -4.2810   55.3640 C.ar  209  PHE209     -0.0000
    116  N         -7.8210    1.7020   53.8930 N.3   212  HIS212     -0.1241
    117  CA        -8.8540    2.4960   53.2340 C.3   212  HIS212      0.1621
    118  C         -9.1810    3.7410   54.0390 C.2   212  HIS212      0.2264
    119  O         -9.1970    4.8530   53.5170 O.2   212  HIS212     -0.2867
    120  CB       -10.1330    1.6780   53.0430 C.3   212  HIS212      0.0745
    121  CG       -10.0620    0.6970   51.9200 C.ar  212  HIS212      0.0817
    122  ND1       -9.5680   -0.5820   52.0780 N.ar  212  HIS212     -0.2268
    123  CD2      -10.4200    0.8060   50.6210 C.ar  212  HIS212      0.1154
    124  CE1       -9.6300   -1.2180   50.9210 C.ar  212  HIS212      0.1986
    125  NE2      -10.1420   -0.3970   50.0210 N.ar  212  HIS212     -0.2212
@<TRIPOS>BOND
     1    38    39    1
     2    39    42    1
     3    39    40    1
     4    42    43    1
     5    28    29    1
     6    30    29    1
     7    30    31    2
     8    40    41    2
     9    29    32    1
    10    43    44   ar
    11    43    45   ar
    12    44    46   ar
    13    45    47   ar
    14    32    33    1
    15    35    33   ar
    16    35    37   ar
    17    46    47   ar
    18    33    34   ar
    19    48    49    1
    20    37    36   ar
    21    34    36   ar
    22    87    85    1
    23     1     2    1
    24    49    50    1
    25    49    52    1
    26    50    51    2
    27    54    53   ar
    28     4     3    2
    29    85    84    1
    30    83    82    2
    31     2     3    1
    32     2     5    1
    33    52    53    1
    34    53    55   ar
    35    81    82    1
    36    81    84    1
    37    81    80    1
    38     5     6    1
    39    82    88   am
    40    84    86    1
    41    62    64   ar
    42    62    61   ar
    43    60    61    1
    44    60    57    1
    45    64    65   ar
    46    61    63   ar
    47    56    57    1
    48    57    58    1
    49    65    63   ar
    50    88    89    1
    51     6     8    1
    52     6     7    1
    53    89    90    1
    54    90    91    2
    55    58    59    2
    56    58    66   am
    57     9    10    1
    58   125   123   ar
    59   125   124   ar
    60    15    14    1
    61    66    67    1
    62    14    13    1
    63    14    16    1
    64   123   121   ar
    65    12    11    2
    66    13    10    1
    67    10    11    1
    68   124   122   ar
    69    67    68    1
    70    67    70    1
    71    69    68    2
    72   121   122   ar
    73   121   120    1
    74    76    78   ar
    75    76    73   ar
    76    78    79   ar
    77    92    93    1
    78    70    71    1
    79    95    94    2
    80   120   117    1
    81    73    71   ar
    82    73    75   ar
    83   117   116    1
    84   117   118    1
    85    79    77   ar
    86    71    72   ar
    87   119   118    2
    88    93    94    1
    89    93    96    1
    90    19    20    2
    91    19    18    1
    92    99    97   ar
    93    96    97    1
    94    75    77   ar
    95    75    74   ar
    96    24    26   ar
    97    24    22   ar
    98    26    27   ar
    99    17    18    1
   100   114   112   ar
   101   114   115   ar
   102   112   110   ar
   103    97    98   ar
   104    72    74   ar
   105    18    21    1
   106   115   113   ar
   107    21    22    1
   108    22    23   ar
   109   110   109    1
   110   110   111   ar
   111   109   106    1
   112    27    25   ar
   113   113   111   ar
   114   108   107    2
   115   104   101    1
   116    23    25   ar
   117   106   107    1
   118   106   105    1
   119   100   101    1
   120   101   102    1
   121   102   103    2
