@<TRIPOS>MOLECULE
tmp/4m8iA00.pdb
 180 169 0 0 0
SMALL
GASTEIGER

@<TRIPOS>ATOM
      1  N        -18.7940   -5.6900   11.8220 N.3    10  GLY10      -0.1210
      2  CA       -19.6140   -6.6890   12.5700 C.3    10  GLY10       0.1956
      3  C        -20.1780   -6.0670   13.8220 C.2    10  GLY10       0.2612
      4  O        -20.0360   -4.8790   14.1090 O.2    10  GLY10      -0.2717
      5  N        -20.8360   -6.9300   14.6160 N.am   11  GLY11      -0.1942
      6  CA       -21.5620   -6.4430   15.7720 C.3    11  GLY11       0.2014
      7  C        -20.7090   -5.7750   16.8640 C.2    11  GLY11       0.2639
      8  O        -20.9140   -4.6060   17.2390 O.2    11  GLY11      -0.2714
      9  N        -19.7190   -6.4840   17.3520 N.am   12  GLY12      -0.1954
     10  CA       -18.8350   -5.9330   18.3300 C.3    12  GLY12       0.1869
     11  C        -18.1100   -4.6780   17.8680 C.2    12  GLY12       0.2309
     12  O        -17.9530   -3.7400   18.6400 O.2    12  GLY12      -0.2863
     13  N        -20.5540   -1.8440   17.8030 N.3    15  ASN15      -0.1240
     14  CA       -20.8340   -1.4090   19.1780 C.3    15  ASN15       0.1653
     15  C        -19.7310   -0.4540   19.6970 C.2    15  ASN15       0.2266
     16  O        -19.9940    0.5570   20.3490 O.2    15  ASN15      -0.2867
     17  CB       -20.8880   -2.6370   20.1510 C.3    15  ASN15       0.1155
     18  CG       -22.1070   -3.5690   19.9870 C.2    15  ASN15       0.2627
     19  OD1      -23.1290   -3.2740   19.3820 O.2    15  ASN15      -0.2716
     20  ND2      -21.9710   -4.7610   20.5720 N.am   15  ASN15      -0.0877
     21  N        -20.1250    3.4110   20.8850 N.3    19  ARG19      -0.1245
     22  CA       -19.7270    3.8710   22.2220 C.3    19  ARG19       0.1563
     23  C        -18.6080    4.9400   22.1470 C.2    19  ARG19       0.2260
     24  O        -18.6180    5.8790   22.9550 O.2    19  ARG19      -0.2867
     25  CB       -19.3470    2.7000   23.1240 C.3    19  ARG19       0.0307
     26  CG       -20.5660    1.8370   23.4490 C.3    19  ARG19       0.0489
     27  CD       -20.2270    0.7770   24.4820 C.3    19  ARG19       0.2205
     28  NE       -19.2470   -0.2100   24.0450 N.pl3  19  ARG19      -0.0865
     29  CZ       -19.5040   -1.4440   23.6150 C.cat  19  ARG19       0.5346
     30  NH1      -20.7600   -1.9020   23.5090 N.pl3  19  ARG19       0.1354
     31  NH2      -18.5000   -2.2280   23.2570 N.pl3  19  ARG19       0.1354
     32  N        -21.2350   -3.6410    8.1880 N.3    34  ASN34      -0.1240
     33  CA       -21.9170   -4.8330    8.7230 C.3    34  ASN34       0.1653
     34  C        -22.7630   -5.4540    7.6690 C.2    34  ASN34       0.2266
     35  O        -23.1240   -4.8360    6.6640 O.2    34  ASN34      -0.2867
     36  CB       -22.7470   -4.4130    9.9120 C.3    34  ASN34       0.1155
     37  CG       -22.9860   -5.5410   10.9340 C.2    34  ASN34       0.2627
     38  OD1      -22.8280   -6.7380   10.6600 O.2    34  ASN34      -0.2716
     39  ND2      -23.3180   -5.1210   12.1500 N.am   34  ASN34      -0.0877
     40  N        -24.2920  -12.6970    9.5580 N.3    61  ALA61      -0.1231
     41  CA       -23.6180  -13.8090    8.9470 C.3    61  ALA61       0.1694
     42  C        -23.9330  -15.1460    9.6270 C.2    61  ALA61       0.2593
     43  O        -23.4270  -16.1850    9.2170 O.2    61  ALA61      -0.2718
     44  CB       -22.1050  -13.5450    8.9020 C.3    61  ALA61       0.0304
     45  N        -24.7090  -15.1250   10.7120 N.am   62  GLY62      -0.1942
     46  CA       -25.0570  -16.4180   11.3560 C.3    62  GLY62       0.2014
     47  C        -23.8450  -17.2360   11.8180 C.2    62  GLY62       0.2638
     48  O        -23.7900  -18.4750   11.7200 O.2    62  GLY62      -0.2714
     49  N        -22.8620  -16.5150   12.3350 N.am   63  ALA63      -0.1977
     50  CA       -21.6150  -17.0180   12.8880 C.3    63  ALA63       0.1597
     51  C        -20.6690  -17.6320   11.8230 C.2    63  ALA63       0.2287
     52  O        -19.7550  -18.3080   12.2020 O.2    63  ALA63      -0.2864
     53  CB       -21.8670  -18.0220   14.0200 C.3    63  ALA63       0.0319
     54  N        -15.0080   -7.8980   16.8220 N.3    94  GLY94      -0.1210
     55  CA       -15.0280   -9.0610   17.7280 C.3    94  GLY94       0.1956
     56  C        -14.7440  -10.2880   16.8760 C.2    94  GLY94       0.2611
     57  O        -15.4360  -10.4780   15.9010 O.2    94  GLY94      -0.2717
     58  N        -13.7270  -11.0620   17.2050 N.am   95  MET95      -0.1979
     59  CA       -13.3970  -12.3270   16.4910 C.3    95  MET95       0.1605
     60  C        -14.2700  -13.4450   17.0890 C.2    95  MET95       0.2287
     61  O        -14.5560  -13.4600   18.2860 O.2    95  MET95      -0.2864
     62  CB       -11.9400  -12.7020   16.6650 C.3    95  MET95       0.0413
     63  CG       -10.9190  -11.7290   16.0760 C.3    95  MET95       0.0598
     64  SD       -10.9220  -11.5350   14.2660 S.3    95  MET95      -0.1393
     65  CE       -12.1250  -10.2300   14.1420 C.3    95  MET95       0.0692
     66  N        -17.4010  -14.5940   15.5890 N.3    97  GLY97      -0.1210
     67  CA       -18.6100  -14.5630   14.8090 C.3    97  GLY97       0.1956
     68  C        -18.2730  -14.6730   13.3090 C.2    97  GLY97       0.2612
     69  O        -17.2340  -15.2310   12.9250 O.2    97  GLY97      -0.2717
     70  N        -19.2320  -14.2710   12.4820 N.am   98  GLY98      -0.1942
     71  CA       -19.0910  -14.3910   11.0170 C.3    98  GLY98       0.2014
     72  C        -18.5950  -13.1260   10.3850 C.2    98  GLY98       0.2640
     73  O        -17.6630  -13.1820    9.5640 O.2    98  GLY98      -0.2714
     74  N        -19.2170  -11.9960   10.7160 N.am   99  THR99      -0.1936
     75  CA       -18.8620  -10.7530   10.0240 C.3    99  THR99       0.2028
     76  C        -17.5300  -10.2040   10.4870 C.2    99  THR99       0.2642
     77  O        -16.6740   -9.9180    9.6250 O.2    99  THR99      -0.2714
     78  CB       -19.9970   -9.7370   10.1610 C.3    99  THR99       0.1808
     79  OG1      -21.1850  -10.2970    9.5830 O.3    99  THR99      -0.2208
     80  CG2      -19.6010   -8.4690    9.4060 C.3    99  THR99       0.0379
     81  N        -17.3020   -9.9760   11.7580 N.am  100  GLY100     -0.1954
     82  CA       -15.9990   -9.5220   12.2060 C.3   100  GLY100      0.1869
     83  C        -14.8810  -10.4850   11.7800 C.2   100  GLY100      0.2309
     84  O        -13.9330  -10.0930   11.1150 O.2   100  GLY100     -0.2863
     85  N        -11.1900   -8.3780   19.6820 N.3   123  THR123     -0.1203
     86  CA       -11.4180   -9.2120   20.8600 C.3   123  THR123      0.1994
     87  C        -11.4380  -10.7070   20.4970 C.2   123  THR123      0.2618
     88  O        -11.7610  -11.0680   19.3840 O.2   123  THR123     -0.2717
     89  CB       -12.7300   -8.8560   21.5920 C.3   123  THR123      0.1784
     90  OG1      -13.8390   -9.0570   20.7200 O.3   123  THR123     -0.2211
     91  CG2      -12.7520   -7.4690   22.1120 C.3   123  THR123      0.0376
     92  N        -11.0190  -11.5430   21.4410 N.am  124  ARG124     -0.1965
     93  CA       -11.2730  -12.9820   21.3850 C.3   124  ARG124      0.1714
     94  C        -12.4790  -13.2750   22.2850 C.2   124  ARG124      0.2458
     95  O        -12.7300  -12.5760   23.2610 O.2   124  ARG124     -0.2730
     96  CB       -10.1070  -13.7700   21.9250 C.3   124  ARG124      0.0347
     97  CG        -8.8510  -13.8170   21.1040 C.3   124  ARG124      0.0492
     98  CD        -7.8200  -14.7030   21.7800 C.3   124  ARG124      0.2205
     99  NE        -6.5060  -14.5580   21.1830 N.pl3 124  ARG124     -0.0865
    100  CZ        -6.0110  -15.2400   20.1540 C.cat 124  ARG124      0.5346
    101  NH1       -6.7110  -16.1480   19.4900 N.pl3 124  ARG124      0.1354
    102  NH2       -4.7770  -14.9730   19.7700 N.pl3 124  ARG124      0.1354
    103  N        -13.2400  -14.3480   21.9720 N.am  125  PRO125     -0.2716
    104  CA       -14.4570  -14.6230   22.7280 C.3   125  PRO125      0.1536
    105  C        -14.2010  -15.1380   24.1230 C.2   125  PRO125      0.2598
    106  O        -13.1690  -15.6240   24.5090 O.2   125  PRO125     -0.2715
    107  CB       -15.1410  -15.6720   21.9200 C.3   125  PRO125      0.0310
    108  CG       -14.1990  -16.2030   20.9270 C.3   125  PRO125      0.0237
    109  CD       -13.1120  -15.1770   20.7490 C.3   125  PRO125      0.0939
    110  N        -15.2530  -14.9700   24.9170 N.am  126  PHE126     -0.1974
    111  CA       -15.2400  -15.5660   26.2460 C.3   126  PHE126      0.1639
    112  C        -15.1880  -17.0790   26.1540 C.2   126  PHE126      0.2290
    113  O        -15.7630  -17.6930   25.2490 O.2   126  PHE126     -0.2864
    114  CB       -16.5210  -15.2090   27.0240 C.3   126  PHE126      0.0560
    115  CG       -16.7040  -13.7450   27.3440 C.ar  126  PHE126     -0.0200
    116  CD1      -16.0790  -13.1700   28.4760 C.ar  126  PHE126     -0.0042
    117  CD2      -17.5220  -12.9460   26.5400 C.ar  126  PHE126     -0.0042
    118  CE1      -16.2600  -11.8260   28.7690 C.ar  126  PHE126     -0.0003
    119  CE2      -17.6780  -11.5790   26.8210 C.ar  126  PHE126     -0.0003
    120  CZ       -17.0770  -11.0480   27.9470 C.ar  126  PHE126     -0.0000
    121  N        -18.3330  -19.0290   25.6530 N.3   129  GLU129     -0.1245
    122  CA       -18.9110  -19.1220   24.3180 C.3   129  GLU129      0.1567
    123  C        -18.5240  -20.4200   23.5830 C.2   129  GLU129      0.2260
    124  O        -19.0690  -20.7170   22.5500 O.2   129  GLU129     -0.2867
    125  CB       -18.4800  -17.8880   23.4930 C.3   129  GLU129      0.0388
    126  CG       -19.0200  -16.5800   24.0640 C.3   129  GLU129      0.1160
    127  CD       -18.6460  -15.3920   23.1430 C.2   129  GLU129      0.3649
    128  OE1      -19.3340  -15.3220   22.1000 O.co2 129  GLU129     -0.2457
    129  OE2      -17.7620  -14.5920   23.4970 O.co2 129  GLU129     -0.2457
    130  N        -16.2620  -21.2550   18.7560 N.3   133  ARG133     -0.1245
    131  CA       -16.1230  -19.8020   18.6430 C.3   133  ARG133      0.1563
    132  C        -14.6580  -19.4390   18.8390 C.2   133  ARG133      0.2260
    133  O        -14.1210  -18.5830   18.1170 O.2   133  ARG133     -0.2867
    134  CB       -16.9860  -19.1440   19.7290 C.3   133  ARG133      0.0307
    135  CG       -17.3500  -17.6720   19.4720 C.3   133  ARG133      0.0489
    136  CD       -18.6660  -17.6150   18.7360 C.3   133  ARG133      0.2205
    137  NE       -19.1310  -16.2740   18.6110 N.pl3 133  ARG133     -0.0865
    138  CZ       -20.1940  -15.9230   17.9190 C.cat 133  ARG133      0.5346
    139  NH1      -20.5200  -14.6710   17.9340 N.pl3 133  ARG133      0.1354
    140  NH2      -20.9060  -16.7960   17.2060 N.pl3 133  ARG133      0.1354
    141  N        -11.6040  -11.4610   25.6800 N.3   156  ASN156     -0.1240
    142  CA       -12.7650  -11.0730   26.5190 C.3   156  ASN156      0.1653
    143  C        -12.6850  -11.7440   27.9160 C.2   156  ASN156      0.2266
    144  O        -13.1660  -11.1550   28.8970 O.2   156  ASN156     -0.2867
    145  CB       -14.0840  -11.3300   25.8440 C.3   156  ASN156      0.1155
    146  CG       -14.5270  -10.1840   24.9330 C.2   156  ASN156      0.2627
    147  OD1      -14.0940   -9.0430   25.1070 O.2   156  ASN156     -0.2716
    148  ND2      -15.4060  -10.4760   24.0050 N.am  156  ASN156     -0.0877
    149  N        -11.8020   -9.5790   30.8580 N.3   159  LEU159     -0.1245
    150  CA       -12.8450   -8.7380   31.4890 C.3   159  LEU159      0.1561
    151  C        -13.2870   -9.4050   32.7960 C.2   159  LEU159      0.2260
    152  O        -13.6810   -8.7000   33.7340 O.2   159  LEU159     -0.2867
    153  CB       -14.0210   -8.4530   30.6180 C.3   159  LEU159      0.0270
    154  CG       -13.6540   -7.6340   29.3660 C.3   159  LEU159      0.0019
    155  CD1      -14.8260   -7.6080   28.4230 C.3   159  LEU159      0.0001
    156  CD2      -13.2280   -6.2220   29.7060 C.3   159  LEU159      0.0001
    157  N        -17.6010   -3.7770   29.0060 N.3   173  PHE173     -0.1241
    158  CA       -17.3470   -3.5270   27.5890 C.3   173  PHE173      0.1605
    159  C        -16.6990   -2.1620   27.4180 C.2   173  PHE173      0.2264
    160  O        -15.8290   -2.0000   26.5650 O.2   173  PHE173     -0.2867
    161  CB       -18.5850   -3.6590   26.7230 C.3   173  PHE173      0.0534
    162  CG       -19.0630   -5.0670   26.4910 C.ar  173  PHE173     -0.0203
    163  CD1      -18.2640   -6.1650   26.7460 C.ar  173  PHE173     -0.0042
    164  CD2      -20.2560   -5.2660   25.8110 C.ar  173  PHE173     -0.0042
    165  CE1      -18.6910   -7.4400   26.4320 C.ar  173  PHE173     -0.0003
    166  CE2      -20.7350   -6.5680   25.5650 C.ar  173  PHE173     -0.0003
    167  CZ       -19.9160   -7.6180   25.8130 C.ar  173  PHE173     -0.0000
    168  N        -12.9300   -2.3670   27.8880 N.3   176  ALA176     -0.1231
    169  CA       -12.2210   -2.8850   26.7310 C.3   176  ALA176      0.1694
    170  C        -12.1390   -1.7980   25.6530 C.2   176  ALA176      0.2592
    171  O        -11.1110   -1.6670   25.0000 O.2   176  ALA176     -0.2718
    172  CB       -12.8930   -4.1320   26.1840 C.3   176  ALA176      0.0304
    173  N        -13.2060   -1.0340   25.4740 N.am  177  ASP177     -0.1974
    174  CA       -13.2650    0.0700   24.4940 C.3   177  ASP177      0.1709
    175  C        -12.1640    1.0470   24.7100 C.2   177  ASP177      0.2293
    176  O        -11.7100    1.7080   23.7160 O.2   177  ASP177     -0.2864
    177  CB       -14.5380    0.9270   24.6590 C.3   177  ASP177      0.1436
    178  CG       -15.8200    0.2610   24.1860 C.2   177  ASP177      0.3671
    179  OD1      -15.8070   -0.8000   23.4920 O.co2 177  ASP177     -0.2456
    180  OD2      -16.9110    0.8520   24.5450 O.co2 177  ASP177     -0.2456
@<TRIPOS>BOND
     1    35    34    2
     2    34    33    1
     3    32    33    1
     4    33    36    1
     5    44    41    1
     6    41    40    1
     7    41    42    1
     8    43    42    2
     9    80    78    1
    10    73    72    2
    11    79    78    1
    12    77    76    2
    13    42    45   am
    14    36    37    1
    15    75    78    1
    16    75    76    1
    17    75    74    1
    18    72    74   am
    19    72    71    1
    20    76    81   am
    21    38    37    2
    22    45    46    1
    23    37    39   am
    24    71    70    1
    25    84    83    2
    26    46    47    1
    27    48    47    2
    28    81    82    1
    29    83    82    1
    30    47    49   am
    31     1     2    1
    32    51    52    2
    33    51    50    1
    34    49    50    1
    35    70    68   am
    36     2     3    1
    37    50    53    1
    38    69    68    2
    39    68    67    1
    40     3     4    2
    41     3     5   am
    42    65    64    1
    43    64    63    1
    44     5     6    1
    45    67    66    1
    46     6     7    1
    47    57    56    2
    48    63    62    1
    49    59    62    1
    50    59    60    1
    51    59    58    1
    52    54    55    1
    53     7     8    2
    54     7     9   am
    55    56    58   am
    56    56    55    1
    57    60    61    2
    58   140   138    1
    59     9    10    1
    60    13    14    1
    61    11    10    1
    62    11    12    2
    63   138   139    1
    64   138   137    2
    65   133   132    2
    66   137   136    1
    67   131   130    1
    68   131   132    1
    69   131   134    1
    70   136   135    1
    71    14    15    1
    72    14    17    1
    73    19    18    2
    74    88    87    2
    75   135   134    1
    76   101   100    1
    77    85    86    1
    78    15    16    2
    79   102   100    1
    80    18    17    1
    81    18    20   am
    82   100    99    2
    83    87    86    1
    84    87    92   am
    85    90    89    1
    86   109   108    1
    87   109   103    1
    88    86    89    1
    89    21    22    1
    90   108   107    1
    91    97    98    1
    92    97    96    1
    93    99    98    1
    94    93    92    1
    95    93    96    1
    96    93    94    1
    97    89    91    1
    98   107   104    1
    99   103    94   am
   100   103   104    1
   101   128   127   ar
   102    23    22    1
   103    23    24    2
   104    22    25    1
   105    94    95    2
   106   124   123    2
   107   104   105    1
   108    25    26    1
   109   127   129   ar
   110   127   126    1
   111    31    29    1
   112    26    27    1
   113   179   178   ar
   114   125   126    1
   115   125   122    1
   116    30    29    1
   117   123   122    1
   118    29    28    2
   119   176   175    2
   120   148   146   am
   121    28    27    1
   122   105   106    2
   123   105   110   am
   124   178   180   ar
   125   178   177    1
   126   122   121    1
   127   174   177    1
   128   174   175    1
   129   174   173    1
   130   110   111    1
   131   146   147    2
   132   146   145    1
   133   171   170    2
   134   113   112    2
   135   173   170   am
   136   166   164   ar
   137   166   167   ar
   138   170   169    1
   139   141   142    1
   140   164   162   ar
   141   167   165   ar
   142   145   142    1
   143   112   111    1
   144   172   169    1
   145   111   114    1
   146   165   163   ar
   147   162   161    1
   148   162   163   ar
   149   142   143    1
   150   117   119   ar
   151   117   115   ar
   152   160   159    2
   153   161   158    1
   154   169   168    1
   155   119   120   ar
   156   114   115    1
   157   115   116   ar
   158   159   158    1
   159   158   157    1
   160   143   144    2
   161   120   118   ar
   162   155   154    1
   163   116   118   ar
   164   154   156    1
   165   154   153    1
   166   153   150    1
   167   149   150    1
   168   150   151    1
   169   151   152    2
