@<TRIPOS>MOLECULE
tmp/4m8lA00.pdb
 102 95 0 0 0
SMALL
GASTEIGER

@<TRIPOS>ATOM
      1  N         54.0420   -0.4170    9.3750 N.3     9  LYS9       -0.1245
      2  CA        55.0080    0.6760    9.5470 C.3     9  LYS9        0.1561
      3  C         56.2320    0.2210   10.3440 C.2     9  LYS9        0.2260
      4  O         57.3690    0.5210    9.9720 O.2     9  LYS9       -0.2867
      5  CB        54.3550    1.8750   10.2430 C.3     9  LYS9        0.0271
      6  CG        53.3350    2.6260    9.3960 C.3     9  LYS9        0.0035
      7  CD        52.6820    3.7520   10.1930 C.3     9  LYS9        0.0206
      8  CE        51.7190    4.5670    9.3490 C.3     9  LYS9        0.1093
      9  NZ        51.0490    5.6350   10.1400 N.3     9  LYS9       -0.1314
     10  N         60.9680   12.2220    9.5140 N.3    30  THR30      -0.1203
     11  CA        59.8790   12.6770   10.3790 C.3    30  THR30       0.1994
     12  C         58.6110   11.8560   10.0990 C.2    30  THR30       0.2618
     13  O         58.4350   11.3400    8.9930 O.2    30  THR30      -0.2717
     14  CB        59.5930   14.1760   10.1310 C.3    30  THR30       0.1784
     15  OG1       60.7700   14.9380   10.4100 O.3    30  THR30      -0.2211
     16  CG2       58.4590   14.6890   11.0020 C.3    30  THR30       0.0376
     17  N         57.7430   11.7290   11.1060 N.am   31  GLY31      -0.1942
     18  CA        56.4550   11.0490   10.9460 C.3    31  GLY31       0.2014
     19  C         56.2720    9.8160   11.8140 C.2    31  GLY31       0.2640
     20  O         57.1580    9.4420   12.5890 O.2    31  GLY31      -0.2714
     21  N         55.1110    9.1830   11.6810 N.am   32  SER32      -0.1935
     22  CA        54.7630    8.0140   12.4920 C.3    32  SER32       0.2055
     23  C         55.5740    6.7780   12.1080 C.2    32  SER32       0.2643
     24  O         56.0000    6.0230   12.9840 O.2    32  SER32      -0.2714
     25  CB        53.2630    7.7040   12.3920 C.3    32  SER32       0.2130
     26  OG        52.8660    7.5260   11.0440 O.3    32  SER32      -0.2179
     27  N         55.7830    6.5710   10.8090 N.am   33  THR33      -0.1950
     28  CA        56.5840    5.4420   10.3360 C.3    33  THR33       0.1897
     29  C         58.0320    5.5750   10.8050 C.2    33  THR33       0.2313
     30  O         58.6460    4.5940   11.2290 O.2    33  THR33      -0.2863
     31  CB        56.5450    5.3160    8.8010 C.3    33  THR33       0.1794
     32  OG1       55.1950    5.4520    8.3420 O.3    33  THR33      -0.2208
     33  CG2       57.0740    3.9610    8.3590 C.3    33  THR33       0.0378
     34  N         63.5050    8.0660    5.8650 N.3    83  ASP83      -0.1225
     35  CA        62.3260    8.9060    6.0440 C.3    83  ASP83       0.1805
     36  C         61.0850    8.2340    5.4580 C.2    83  ASP83       0.2598
     37  O         61.1880    7.3390    4.6190 O.2    83  ASP83      -0.2718
     38  CB        62.5690   10.2480    5.3590 C.3    83  ASP83       0.1424
     39  CG        61.6710   11.3620    5.8780 C.2    83  ASP83       0.3668
     40  OD1       60.7620   11.1090    6.7070 O.co2  83  ASP83      -0.2456
     41  OD2       61.8890   12.5120    5.4480 O.co2  83  ASP83      -0.2456
     42  N         59.9130    8.6660    5.9200 N.am   84  GLY84      -0.1942
     43  CA        58.6450    8.2080    5.3730 C.3    84  GLY84       0.2014
     44  C         58.2320    9.0160    4.1600 C.2    84  GLY84       0.2639
     45  O         59.0140    9.8210    3.6360 O.2    84  GLY84      -0.2714
     46  N         57.0020    8.7950    3.7050 N.am   85  ALA85      -0.1963
     47  CA        56.4500    9.5580    2.5930 C.3    85  ALA85       0.1728
     48  C         54.9390    9.4710    2.6150 C.2    85  ALA85       0.2616
     49  O         54.3870    8.5050    3.1220 O.2    85  ALA85      -0.2715
     50  CB        56.9900    9.0410    1.2720 C.3    85  ALA85       0.0334
     51  N         54.2730   10.4860    2.0780 N.am   86  ASP86      -0.1971
     52  CA        52.8050   10.4840    2.0070 C.3    86  ASP86       0.1709
     53  C         52.3140    9.6980    0.7900 C.2    86  ASP86       0.2293
     54  O         51.2720    9.0450    0.8450 O.2    86  ASP86      -0.2864
     55  CB        52.2640   11.9070    1.9770 C.3    86  ASP86       0.1436
     56  CG        52.6820   12.7110    3.1960 C.2    86  ASP86       0.3671
     57  OD1       52.3750   12.2840    4.3350 O.co2  86  ASP86      -0.2456
     58  OD2       53.3260   13.7690    3.0160 O.co2  86  ASP86      -0.2456
     59  N         55.7760   14.3920   -0.0400 N.3    96  LYS96      -0.1231
     60  CA        56.1170   14.4660    1.3720 C.3    96  LYS96       0.1693
     61  C         55.7030   15.8220    1.9110 C.2    96  LYS96       0.2593
     62  O         55.4350   16.7360    1.1390 O.2    96  LYS96      -0.2718
     63  CB        57.6200   14.2840    1.5620 C.3    96  LYS96       0.0285
     64  CG        58.1150   12.8770    1.2790 C.3    96  LYS96       0.0035
     65  CD        59.6190   12.7280    1.4720 C.3    96  LYS96       0.0206
     66  CE        60.0950   13.1520    2.8510 C.3    96  LYS96       0.1093
     67  NZ        59.3130   12.5500    3.9640 N.3    96  LYS96      -0.1314
     68  N         55.6560   15.9430    3.2350 N.am   97  GLY97      -0.1942
     69  CA        55.2750   17.1920    3.8880 C.3    97  GLY97       0.2014
     70  C         53.9540   17.1400    4.6380 C.2    97  GLY97       0.2639
     71  O         53.4830   18.1710    5.1210 O.2    97  GLY97      -0.2714
     72  N         53.3490   15.9530    4.7280 N.am   98  GLY98      -0.1939
     73  CA        52.1250   15.7530    5.5100 C.3    98  GLY98       0.2014
     74  C         52.2920   16.1330    6.9740 C.2    98  GLY98       0.2639
     75  O         51.3460   16.5990    7.6070 O.2    98  GLY98      -0.2714
     76  N         53.4970   15.9280    7.5030 N.am   99  GLY99      -0.1954
     77  CA        53.8570   16.3690    8.8540 C.3    99  GLY99       0.1869
     78  C         54.7370   17.6170    8.9160 C.2    99  GLY99       0.2309
     79  O         55.4890   17.8110    9.8730 O.2    99  GLY99      -0.2863
     80  N         57.4940   18.9300    7.8480 N.3   101  ALA101     -0.1245
     81  CA        58.9680   19.0560    7.9130 C.3   101  ALA101      0.1562
     82  C         59.6370   18.9960    6.5410 C.2   101  ALA101      0.2260
     83  O         60.8290   18.7160    6.4350 O.2   101  ALA101     -0.2867
     84  CB        59.5470   17.9770    8.8030 C.3   101  ALA101      0.0290
     85  N         63.5670   18.0710    5.4040 N.3   105  GLU105     -0.1245
     86  CA        63.5730   16.7210    4.8490 C.3   105  GLU105      0.1567
     87  C         64.2070   16.7140    3.4680 C.2   105  GLU105      0.2260
     88  O         64.9470   15.8000    3.1340 O.2   105  GLU105     -0.2867
     89  CB        62.1560   16.1540    4.7680 C.3   105  GLU105      0.0388
     90  CG        61.6080   15.6760    6.1000 C.3   105  GLU105      0.1160
     91  CD        60.1600   15.2430    6.0040 C.2   105  GLU105      0.3649
     92  OE1       59.3780   15.8690    5.2580 O.co2 105  GLU105     -0.2457
     93  OE2       59.8040   14.2640    6.6770 O.co2 105  GLU105     -0.2457
     94  N         50.3620    3.8180    0.8780 N.3   123  LYS123     -0.1245
     95  CA        51.0000    4.9920    0.3010 C.3   123  LYS123      0.1561
     96  C         51.5330    4.7580   -1.1150 C.2   123  LYS123      0.2260
     97  O         51.9640    5.7000   -1.7790 O.2   123  LYS123     -0.2867
     98  CB        52.1190    5.4440    1.2260 C.3   123  LYS123      0.0271
     99  CG        51.6570    5.5170    2.6700 C.3   123  LYS123      0.0035
    100  CD        52.5140    6.4600    3.4680 C.3   123  LYS123      0.0206
    101  CE        52.0610    6.5620    4.9090 C.3   123  LYS123      0.1093
    102  NZ        53.2270    6.8850    5.7700 N.3   123  LYS123     -0.1314
@<TRIPOS>BOND
     1    97    96    2
     2    96    95    1
     3    59    60    1
     4    95    94    1
     5    95    98    1
     6    53    54    2
     7    53    52    1
     8    62    61    2
     9    98    99    1
    10    50    47    1
    11    64    65    1
    12    64    63    1
    13    60    63    1
    14    60    61    1
    15    65    66    1
    16    61    68   am
    17    55    52    1
    18    55    56    1
    19    52    51    1
    20    51    48   am
    21    47    48    1
    22    47    46    1
    23    48    49    2
    24    99   100    1
    25    66    67    1
    26    58    56   ar
    27    88    87    2
    28    56    57   ar
    29    68    69    1
    30    87    86    1
    31   100   101    1
    32    45    44    2
    33    46    44   am
    34    69    70    1
    35    44    43    1
    36    37    36    2
    37    70    72   am
    38    70    71    2
    39    72    73    1
    40    89    86    1
    41    89    90    1
    42    86    85    1
    43   101   102    1
    44    92    91   ar
    45    38    39    1
    46    38    35    1
    47    43    42    1
    48    41    39   ar
    49    36    42   am
    50    36    35    1
    51    73    74    1
    52    34    35    1
    53    39    40   ar
    54    91    90    1
    55    91    93   ar
    56    83    82    2
    57    82    81    1
    58    74    76   am
    59    74    75    2
    60    76    77    1
    61    80    81    1
    62    81    84    1
    63    32    31    1
    64    33    31    1
    65    31    28    1
    66    77    78    1
    67    78    79    2
    68    13    12    2
    69     8     9    1
    70     8     7    1
    71     1     2    1
    72     6     7    1
    73     6     5    1
    74    10    11    1
    75     2     5    1
    76     2     3    1
    77     4     3    2
    78    12    11    1
    79    12    17   am
    80    14    11    1
    81    14    15    1
    82    14    16    1
    83    28    29    1
    84    28    27    1
    85    29    30    2
    86    27    23   am
    87    18    17    1
    88    18    19    1
    89    26    25    1
    90    21    19   am
    91    21    22    1
    92    19    20    2
    93    23    22    1
    94    23    24    2
    95    25    22    1
