@<TRIPOS>MOLECULE
tmp/4m8nG00.pdb
 180 176 0 0 0
SMALL
GASTEIGER

@<TRIPOS>ATOM
      1  N         14.9490  147.4150 -104.8920 N.3    12  GLY12      -0.1210
      2  CA        14.5250  148.5980 -105.6140 C.3    12  GLY12       0.1956
      3  C         13.8790  149.6550 -104.7410 C.2    12  GLY12       0.2612
      4  O         12.8540  149.4090 -104.1110 O.2    12  GLY12      -0.2717
      5  N         14.4840  150.8370 -104.7000 N.am   13  GLY13      -0.1942
      6  CA        13.8990  151.9670 -104.0030 C.3    13  GLY13       0.2014
      7  C         14.2580  152.0580 -102.5340 C.2    13  GLY13       0.2639
      8  O         13.6390  152.8150 -101.7880 O.2    13  GLY13      -0.2714
      9  N         15.2620  151.2950 -102.1160 N.am   14  VAL14      -0.1963
     10  CA        15.6850  151.2960 -100.7190 C.3    14  VAL14       0.1727
     11  C         16.4630  152.5610 -100.3620 C.2    14  VAL14       0.2617
     12  O         16.5860  152.9140  -99.1900 O.2    14  VAL14      -0.2715
     13  CB        16.5330  150.0560 -100.3800 C.3    14  VAL14       0.0290
     14  CG1       15.7260  148.7890 -100.5980 C.3    14  VAL14       0.0023
     15  CG2       17.7990  150.0310 -101.2160 C.3    14  VAL14       0.0023
     16  N         16.9920  153.2360 -101.3780 N.am   15  GLY15      -0.1940
     17  CA        17.6870  154.4950 -101.1750 C.3    15  GLY15       0.2014
     18  C         19.1710  154.4710 -101.4920 C.2    15  GLY15       0.2639
     19  O         19.9400  155.2540 -100.9380 O.2    15  GLY15      -0.2714
     20  N         19.5780  153.5780 -102.3880 N.am   16  LYS16      -0.1963
     21  CA        20.9820  153.4730 -102.7670 C.3    16  LYS16       0.1728
     22  C         21.4590  154.7470 -103.4600 C.2    16  LYS16       0.2617
     23  O         22.4210  155.3910 -103.0240 O.2    16  LYS16      -0.2715
     24  CB        21.1990  152.2680 -103.6870 C.3    16  LYS16       0.0311
     25  CG        20.7600  150.9370 -103.0990 C.3    16  LYS16       0.0038
     26  CD        21.1230  149.7870 -104.0250 C.3    16  LYS16       0.0206
     27  CE        20.2020  149.7100 -105.2300 C.3    16  LYS16       0.1093
     28  NZ        18.9020  149.0760 -104.8900 N.3    16  LYS16      -0.1314
     29  N         20.7690  155.1070 -104.5360 N.am   17  SER17      -0.1936
     30  CA        21.1390  156.2650 -105.3390 C.3    17  SER17       0.2055
     31  C         21.0540  157.5640 -104.5410 C.2    17  SER17       0.2642
     32  O         21.9060  158.4390 -104.6790 O.2    17  SER17      -0.2714
     33  CB        20.2580  156.3480 -106.5860 C.3    17  SER17       0.2130
     34  OG        20.3020  155.1330 -107.3150 O.3    17  SER17      -0.2179
     35  N         20.0280  157.6790 -103.7050 N.am   18  ALA18      -0.1977
     36  CA        19.8610  158.8600 -102.8670 C.3    18  ALA18       0.1597
     37  C         21.0240  159.0010 -101.8880 C.2    18  ALA18       0.2287
     38  O         21.5390  160.1030 -101.6740 O.2    18  ALA18      -0.2864
     39  CB        18.5390  158.8050 -102.1200 C.3    18  ALA18       0.0319
     40  N         19.7870  166.3020 -101.8410 N.3    28  PHE28      -0.1227
     41  CA        18.7770  165.2580 -101.6930 C.3    28  PHE28       0.1736
     42  C         17.4550  165.6890 -102.3140 C.2    28  PHE28       0.2595
     43  O         16.7570  166.5490 -101.7750 O.2    28  PHE28      -0.2718
     44  CB        18.5590  164.9020 -100.2190 C.3    28  PHE28       0.0547
     45  CG        17.4340  163.9300  -99.9930 C.ar   28  PHE28      -0.0202
     46  CD1       17.6200  162.5740 -100.2070 C.ar   28  PHE28      -0.0042
     47  CD2       16.1900  164.3690  -99.5720 C.ar   28  PHE28      -0.0042
     48  CE1       16.5860  161.6740 -100.0050 C.ar   28  PHE28      -0.0003
     49  CE2       15.1530  163.4760  -99.3700 C.ar   28  PHE28      -0.0003
     50  CZ        15.3530  162.1270  -99.5870 C.ar   28  PHE28      -0.0000
     51  N         17.1100  165.0840 -103.4450 N.am   29  VAL29      -0.1966
     52  CA        15.8730  165.4180 -104.1400 C.3    29  VAL29       0.1727
     53  C         14.9220  164.2270 -104.1810 C.2    29  VAL29       0.2616
     54  O         15.3210  163.1180 -104.5390 O.2    29  VAL29      -0.2715
     55  CB        16.1480  165.8850 -105.5830 C.3    29  VAL29       0.0290
     56  CG1       14.8550  166.3270 -106.2570 C.3    29  VAL29       0.0023
     57  CG2       17.1680  167.0120 -105.5890 C.3    29  VAL29       0.0023
     58  N         13.6670  164.4620 -103.8070 N.am   30  GLU30      -0.1963
     59  CA        12.6290  163.4450 -103.9210 C.3    30  GLU30       0.1733
     60  C         12.2880  163.2250 -105.3920 C.2    30  GLU30       0.2616
     61  O         11.2720  163.7170 -105.8860 O.2    30  GLU30      -0.2715
     62  CB        11.3700  163.8640 -103.1540 C.3    30  GLU30       0.0429
     63  CG        10.2910  162.7870 -103.0860 C.3    30  GLU30       0.1163
     64  CD         8.9120  163.3530 -102.8030 C.2    30  GLU30       0.3649
     65  OE1        8.7980  164.5820 -102.6110 O.co2  30  GLU30      -0.2457
     66  OE2        7.9400  162.5670 -102.7770 O.co2  30  GLU30      -0.2457
     67  N         13.1510  162.4970 -106.0920 N.am   31  LYS31      -0.1963
     68  CA        12.9270  162.1910 -107.4990 C.3    31  LYS31       0.1728
     69  C         12.6560  160.7040 -107.6930 C.2    31  LYS31       0.2616
     70  O         12.7570  159.9190 -106.7520 O.2    31  LYS31      -0.2715
     71  CB        14.1220  162.6350 -108.3440 C.3    31  LYS31       0.0311
     72  CG        15.4620  162.1850 -107.7980 C.3    31  LYS31       0.0038
     73  CD        16.6070  162.8040 -108.5750 C.3    31  LYS31       0.0206
     74  CE        17.9460  162.4460 -107.9520 C.3    31  LYS31       0.1093
     75  NZ        19.0880  163.0810 -108.6690 N.3    31  LYS31      -0.1314
     76  N         12.3040  160.3210 -108.9130 N.am   32  TYR32      -0.1960
     77  CA        11.9870  158.9270 -109.1980 C.3    32  TYR32       0.1771
     78  C         12.5880  158.4760 -110.5220 C.2    32  TYR32       0.2620
     79  O         11.8820  158.2580 -111.5070 O.2    32  TYR32      -0.2715
     80  CB        10.4730  158.7030 -109.1630 C.3    32  TYR32       0.0574
     81  CG         9.8850  158.9580 -107.7970 C.ar   32  TYR32      -0.0198
     82  CD1       10.0520  158.0410 -106.7720 C.ar   32  TYR32      -0.0009
     83  CD2        9.1850  160.1250 -107.5270 C.ar   32  TYR32      -0.0009
     84  CE1        9.5310  158.2710 -105.5190 C.ar   32  TYR32       0.0417
     85  CE2        8.6580  160.3650 -106.2750 C.ar   32  TYR32       0.0417
     86  CZ         8.8340  159.4330 -105.2740 C.ar   32  TYR32       0.1957
     87  OH         8.3100  159.6610 -104.0210 O.3    32  TYR32      -0.2866
     88  N         13.9080  158.3420 -110.5270 N.am   33  ASP33      -0.1958
     89  CA        14.6380  157.9380 -111.7150 C.3    33  ASP33       0.1825
     90  C         15.3610  156.6250 -111.4360 C.2    33  ASP33       0.2464
     91  O         16.4040  156.6140 -110.7800 O.2    33  ASP33      -0.2730
     92  CB        15.6450  159.0230 -112.1130 C.3    33  ASP33       0.1450
     93  CG        15.0400  160.4230 -112.0980 C.2    33  ASP33       0.3671
     94  OD1       13.8210  160.5570 -112.3450 O.co2  33  ASP33      -0.2456
     95  OD2       15.7840  161.3930 -111.8430 O.co2  33  ASP33      -0.2456
     96  N         14.8000  155.5100 -111.9260 N.am   34  PRO34      -0.2715
     97  CA        15.3500  154.1700 -111.6910 C.3    34  PRO34       0.1536
     98  C         16.7870  154.0540 -112.1940 C.2    34  PRO34       0.2599
     99  O         17.1110  154.5630 -113.2670 O.2    34  PRO34      -0.2715
    100  CB        14.4210  153.2660 -112.5020 C.3    34  PRO34       0.0310
    101  CG        13.1600  154.0420 -112.6430 C.3    34  PRO34       0.0237
    102  CD        13.5810  155.4690 -112.7490 C.3    34  PRO34       0.0939
    103  N         17.6350  153.3940 -111.4100 N.am   35  THR35      -0.1951
    104  CA        19.0600  153.2950 -111.7090 C.3    35  THR35       0.1897
    105  C         19.3830  151.9850 -112.4050 C.2    35  THR35       0.2313
    106  O         18.8440  150.9400 -112.0570 O.2    35  THR35      -0.2863
    107  CB        19.9010  153.3600 -110.4190 C.3    35  THR35       0.1794
    108  OG1       19.4760  154.4690 -109.6150 O.3    35  THR35      -0.2208
    109  CG2       21.3780  153.5020 -110.7420 C.3    35  THR35       0.0378
    110  N         21.5300  148.4440 -109.4300 N.3    59  ALA59      -0.1231
    111  CA        20.0860  148.5100 -109.6120 C.3    59  ALA59       0.1694
    112  C         19.3760  147.7080 -108.5240 C.2    59  ALA59       0.2592
    113  O         19.9990  147.2780 -107.5530 O.2    59  ALA59      -0.2718
    114  CB        19.7130  147.9850 -110.9860 C.3    59  ALA59       0.0304
    115  N         18.0700  147.5120 -108.6850 N.am   60  GLY60      -0.1957
    116  CA        17.3150  146.6590 -107.7850 C.3    60  GLY60       0.1869
    117  C         17.7380  145.2210 -107.9670 C.2    60  GLY60       0.2309
    118  O         18.4250  144.8960 -108.9330 O.2    60  GLY60      -0.2863
    119  N         15.0720  143.7050 -111.1820 N.3    63  GLN63      -0.1245
    120  CA        14.3320  144.5930 -112.0750 C.3    63  GLN63       0.1566
    121  C         14.6540  144.1530 -113.4890 C.2    63  GLN63       0.2260
    122  O         13.8700  144.3490 -114.4190 O.2    63  GLN63      -0.2867
    123  CB        14.7320  146.0500 -111.8550 C.3    63  GLN63       0.0367
    124  CG        14.2720  146.6180 -110.5260 C.3    63  GLN63       0.0905
    125  CD        14.9430  147.9300 -110.1900 C.2    63  GLN63       0.2608
    126  OE1       15.6080  148.5330 -111.0290 O.2    63  GLN63      -0.2717
    127  NE2       14.7740  148.3780 -108.9520 N.am   63  GLN63      -0.0878
    128  N         18.4030  152.2520  -94.5000 N.3   116  ASN116     -0.1225
    129  CA        18.1390  153.6190  -94.9320 C.3   116  ASN116      0.1785
    130  C         16.7100  154.0580  -94.6210 C.2   116  ASN116      0.2597
    131  O         15.9020  153.2660  -94.1310 O.2   116  ASN116     -0.2718
    132  CB        18.4320  153.7730  -96.4260 C.3   116  ASN116      0.1169
    133  CG        18.7730  155.1980  -96.8090 C.2   116  ASN116      0.2627
    134  OD1       19.3330  155.9480  -96.0120 O.2   116  ASN116     -0.2716
    135  ND2       18.4270  155.5820  -98.0320 N.am  116  ASN116     -0.0877
    136  N         16.4140  155.3230  -94.9100 N.am  117  LYS117     -0.1980
    137  CA        15.1020  155.9100  -94.6470 C.3   117  LYS117      0.1596
    138  C         14.7270  155.8340  -93.1710 C.2   117  LYS117      0.2287
    139  O         13.5980  155.4870  -92.8280 O.2   117  LYS117     -0.2864
    140  CB        14.0180  155.2520  -95.5090 C.3   117  LYS117      0.0298
    141  CG        14.2760  155.3430  -97.0010 C.3   117  LYS117      0.0038
    142  CD        13.1140  154.7900  -97.8040 C.3   117  LYS117      0.0206
    143  CE        13.3760  154.9210  -99.2960 C.3   117  LYS117      0.1093
    144  NZ        12.2330  154.4370 -100.1180 N.3   117  LYS117     -0.1314
    145  N         14.6360  158.3940  -91.3130 N.3   119  ASP119     -0.1225
    146  CA        14.0150  159.6730  -90.9890 C.3   119  ASP119      0.1805
    147  C         12.5090  159.5040  -90.8280 C.2   119  ASP119      0.2597
    148  O         11.8880  160.1420  -89.9770 O.2   119  ASP119     -0.2718
    149  CB        14.3230  160.7190  -92.0650 C.3   119  ASP119      0.1424
    150  CG        14.1300  160.1870  -93.4730 C.2   119  ASP119      0.3668
    151  OD1       14.5680  159.0500  -93.7460 O.co2 119  ASP119     -0.2456
    152  OD2       13.5420  160.9070  -94.3080 O.co2 119  ASP119     -0.2456
    153  N         11.9300  158.6380  -91.6530 N.am  120  LEU120     -0.1979
    154  CA        10.5120  158.3210  -91.5610 C.3   120  LEU120      0.1596
    155  C         10.2800  157.2090  -90.5440 C.2   120  LEU120      0.2287
    156  O         10.2370  156.0300  -90.9000 O.2   120  LEU120     -0.2864
    157  CB         9.9650  157.9090  -92.9290 C.3   120  LEU120      0.0297
    158  CG         9.9710  158.9890  -94.0120 C.3   120  LEU120      0.0022
    159  CD1        9.4590  158.4320  -95.3330 C.3   120  LEU120      0.0001
    160  CD2        9.1430  160.1900  -93.5750 C.3   120  LEU120      0.0001
    161  N         20.0390  157.8530  -93.2910 N.3   147  SER147     -0.1202
    162  CA        18.9620  158.6890  -93.8000 C.3   147  SER147      0.2020
    163  C         19.5170  159.7840  -94.7010 C.2   147  SER147      0.2619
    164  O         19.9240  160.8420  -94.2240 O.2   147  SER147     -0.2717
    165  CB        18.1720  159.3170  -92.6550 C.3   147  SER147      0.2103
    166  OG        17.2350  160.2510  -93.1550 O.3   147  SER147     -0.2182
    167  N         19.5250  159.5200  -96.0050 N.am  148  ALA148     -0.1965
    168  CA        19.9860  160.4860  -96.9960 C.3   148  ALA148      0.1728
    169  C         19.1780  161.7790  -96.9300 C.2   148  ALA148      0.2616
    170  O         19.6610  162.8470  -97.3090 O.2   148  ALA148     -0.2715
    171  CB        19.9070  159.8830  -98.3910 C.3   148  ALA148      0.0334
    172  N         17.9450  161.6750  -96.4450 N.am  149  LYS149     -0.1977
    173  CA        17.0870  162.8360  -96.2870 C.3   149  LYS149      0.1596
    174  C         17.5830  163.7070  -95.1390 C.2   149  LYS149      0.2287
    175  O         17.6940  164.9260  -95.2750 O.2   149  LYS149     -0.2864
    176  CB        15.6510  162.4020  -96.0450 C.3   149  LYS149      0.0298
    177  CG        14.7870  163.6620  -96.2860 C.3   149  LYS149      0.0038
    178  CD        13.3240  163.4340  -96.1050 C.3   149  LYS149      0.0206
    179  CE        12.5750  164.7460  -96.5080 C.3   149  LYS149      0.1093
    180  NZ        11.7900  165.2320  -95.3430 N.3   149  LYS149     -0.1314
@<TRIPOS>BOND
     1   122   121    2
     2   121   120    1
     3    99    98    2
     4   102   101    1
     5   102    96    1
     6   101   100    1
     7   100    97    1
     8   105   106    2
     9   105   104    1
    10    94    93   ar
    11    98    97    1
    12    98   103   am
    13    92    93    1
    14    92    89    1
    15    93    95   ar
    16   120   123    1
    17   120   119    1
    18    96    97    1
    19    96    90   am
    20   123   124    1
    21    89    90    1
    22    89    88    1
    23   104   103    1
    24   104   107    1
    25    79    78    2
    26    90    91    2
    27   126   125    2
    28   114   111    1
    29   109   107    1
    30    88    78   am
    31   124   125    1
    32    78    77    1
    33   107   108    1
    34   125   127   am
    35   111   110    1
    36   111   112    1
    37    77    80    1
    38    77    76    1
    39    80    81    1
    40   118   117    2
    41    76    69   am
    42   115   112   am
    43   115   116    1
    44    75    74    1
    45    73    74    1
    46    73    72    1
    47   112   113    2
    48    71    72    1
    49    71    68    1
    50   117   116    1
    51    81    83   ar
    52    81    82   ar
    53    69    68    1
    54    69    70    2
    55    83    85   ar
    56    68    67    1
    57    34    33    1
    58    82    84   ar
    59    33    30    1
    60    85    86   ar
    61    56    55    1
    62    67    60   am
    63    61    60    2
    64     2     1    1
    65     2     3    1
    66    57    55    1
    67    55    52    1
    68    84    86   ar
    69    60    59    1
    70    30    31    1
    71    30    29    1
    72    86    87    1
    73    27    28    1
    74    27    26    1
    75     3     5   am
    76     3     4    2
    77     5     6    1
    78    32    31    2
    79    31    35   am
    80    54    53    2
    81    29    22   am
    82    53    52    1
    83    53    58   am
    84    52    51    1
    85    26    25    1
    86     6     7    1
    87    59    58    1
    88    59    62    1
    89    35    36    1
    90    24    25    1
    91    24    21    1
    92    22    23    2
    93    22    21    1
    94    51    42   am
    95    62    63    1
    96    63    64    1
    97    36    39    1
    98    36    37    1
    99    64    66   ar
   100    64    65   ar
   101    21    20    1
   102     7     9   am
   103     7     8    2
   104    20    18   am
   105    42    43    2
   106    42    41    1
   107     9    10    1
   108    37    38    2
   109    40    41    1
   110    41    44    1
   111    18    17    1
   112    18    19    2
   113    16    17    1
   114    16    11   am
   115    15    13    1
   116    10    13    1
   117    10    11    1
   118    14    13    1
   119    11    12    2
   120    44    45    1
   121    46    48   ar
   122    46    45   ar
   123   144   143    1
   124    48    50   ar
   125    45    47   ar
   126    50    49   ar
   127    47    49   ar
   128   143   142    1
   129   171   168    1
   130   135   133   am
   131   142   141    1
   132   170   169    2
   133   141   140    1
   134   168   169    1
   135   168   167    1
   136   169   172   am
   137   133   132    1
   138   133   134    2
   139   179   178    1
   140   179   180    1
   141   172   173    1
   142   132   129    1
   143   173   176    1
   144   173   174    1
   145   177   178    1
   146   177   176    1
   147   167   163   am
   148   140   137    1
   149   159   158    1
   150   175   174    2
   151   129   130    1
   152   129   128    1
   153   136   137    1
   154   136   130   am
   155   163   164    2
   156   163   162    1
   157   137   138    1
   158   130   131    2
   159   152   150   ar
   160   158   160    1
   161   158   157    1
   162   162   161    1
   163   162   165    1
   164   151   150   ar
   165   150   149    1
   166   138   139    2
   167   166   165    1
   168   157   154    1
   169   149   146    1
   170   153   154    1
   171   153   147   am
   172   154   155    1
   173   145   146    1
   174   146   147    1
   175   156   155    2
   176   147   148    2
