@<TRIPOS>MOLECULE
tmp/4m8tA00.pdb
 144 136 0 0 0
SMALL
GASTEIGER

@<TRIPOS>ATOM
      1  N        -33.1340    7.9270  -25.8160 N.3    19  ILE19      -0.1231
      2  CA       -32.7510    9.2280  -26.3500 C.3    19  ILE19       0.1696
      3  C        -31.2440    9.5020  -26.3380 C.2    19  ILE19       0.2632
      4  O        -30.8080   10.5630  -26.7830 O.2    19  ILE19      -0.2714
      5  CB       -33.4990   10.3720  -25.6360 C.3    19  ILE19       0.0266
      6  CG1      -32.8290   10.7230  -24.3090 C.3    19  ILE19       0.0019
      7  CG2      -34.9520    9.9900  -25.4190 C.3    19  ILE19       0.0020
      8  CD1      -33.4150   11.9450  -23.6460 C.3    19  ILE19       0.0001
      9  N        -30.4450    8.5690  -25.8310 N.am   20  GLY20      -0.1718
     10  CA       -29.0060    8.7480  -25.8880 C.2    20  GLY20       0.1480
     11  C        -28.1650    7.9300  -24.9270 C.2    20  GLY20       0.2820
     12  O        -28.6680    7.2390  -24.0410 O.2    20  GLY20      -0.2669
     13  N        -26.8550    8.0360  -25.1270 N.am   21  VAL21      -0.1929
     14  CA       -25.8390    7.3320  -24.3470 C.3    21  VAL21       0.1730
     15  C        -26.1110    5.8180  -24.2800 C.2    21  VAL21       0.2617
     16  O        -26.6760    5.2580  -25.2210 O.2    21  VAL21      -0.2715
     17  CB       -25.7750    7.9330  -22.9320 C.3    21  VAL21       0.0290
     18  CG1      -25.4550    9.4260  -22.9780 C.3    21  VAL21       0.0023
     19  CG2      -27.0610    7.6720  -22.1640 C.3    21  VAL21       0.0023
     20  N        -25.7430    5.1500  -23.1840 N.am   22  GLY22      -0.1940
     21  CA       -24.8720    5.7000  -22.1580 C.3    22  GLY22       0.2014
     22  C        -23.9690    4.6420  -21.5500 C.2    22  GLY22       0.2640
     23  O        -24.1410    3.4470  -21.7890 O.2    22  GLY22      -0.2714
     24  N        -23.0060    5.0890  -20.7500 N.am   23  SER23      -0.1935
     25  CA       -21.9650    4.2100  -20.2250 C.3    23  SER23       0.2055
     26  C        -22.4850    3.2930  -19.1200 C.2    23  SER23       0.2643
     27  O        -22.5800    2.0790  -19.2970 O.2    23  SER23      -0.2714
     28  CB       -20.8040    5.0540  -19.6870 C.3    23  SER23       0.2130
     29  OG       -19.8680    4.2590  -18.9810 O.3    23  SER23      -0.2179
     30  N        -22.8070    3.8840  -17.9770 N.am   24  TYR24      -0.1959
     31  CA       -23.2880    3.1290  -16.8290 C.3    24  TYR24       0.1771
     32  C        -24.8130    3.0990  -16.7800 C.2    24  TYR24       0.2620
     33  O        -25.3920    2.6230  -15.8020 O.2    24  TYR24      -0.2715
     34  CB       -22.7360    3.7220  -15.5300 C.3    24  TYR24       0.0574
     35  CG       -21.4420    3.0370  -15.1660 C.ar   24  TYR24      -0.0198
     36  CD1      -20.4470    2.7780  -16.1090 C.ar   24  TYR24      -0.0009
     37  CD2      -21.2200    2.6510  -13.8620 C.ar   24  TYR24      -0.0009
     38  CE1      -19.2590    2.1510  -15.7700 C.ar   24  TYR24       0.0417
     39  CE2      -20.0350    2.0270  -13.5010 C.ar   24  TYR24       0.0417
     40  CZ       -19.0640    1.7800  -14.4630 C.ar   24  TYR24       0.1957
     41  OH       -17.9020    1.1450  -14.0480 O.3    24  TYR24      -0.2866
     42  N        -25.4620    3.6080  -17.8280 N.am   25  SER25      -0.1950
     43  CA       -26.8950    3.8920  -17.7670 C.3    25  SER25       0.1924
     44  C        -27.5020    4.3610  -19.0940 C.2    25  SER25       0.2314
     45  O        -26.7870    4.7570  -20.0140 O.2    25  SER25      -0.2863
     46  CB       -27.1270    4.9820  -16.7270 C.3    25  SER25       0.2116
     47  OG       -26.3780    6.1380  -17.0580 O.3    25  SER25      -0.2180
     48  N        -30.4900    6.8590  -20.8650 N.3    27  CYS27      -0.1235
     49  CA       -31.5180    7.8900  -20.8510 C.3    27  CYS27       0.1677
     50  C        -32.5830    7.5830  -21.8890 C.2    27  CYS27       0.2270
     51  O        -32.2860    7.0350  -22.9490 O.2    27  CYS27      -0.2867
     52  CB       -30.8990    9.2600  -21.1020 C.3    27  CYS27       0.0956
     53  SG       -29.6240    9.6520  -19.8930 S.3    27  CYS27      -0.0801
     54  N        -37.3820   13.4820  -19.2820 N.3    40  ALA40      -0.1245
     55  CA       -36.3330   12.5490  -19.6660 C.3    40  ALA40       0.1562
     56  C        -35.9430   11.7980  -18.4110 C.2    40  ALA40       0.2260
     57  O        -35.9780   12.3640  -17.3210 O.2    40  ALA40      -0.2867
     58  CB       -35.1410   13.2960  -20.2310 C.3    40  ALA40       0.0290
     59  N        -32.9080    9.2340  -16.8210 N.3    42  LYS42      -0.1245
     60  CA       -31.6560    8.4930  -16.8330 C.3    42  LYS42       0.1561
     61  C        -31.7550    7.2990  -15.9010 C.2    42  LYS42       0.2260
     62  O        -31.9470    7.4580  -14.7000 O.2    42  LYS42      -0.2867
     63  CB       -30.5160    9.3950  -16.3660 C.3    42  LYS42       0.0271
     64  CG       -29.1800    8.6870  -16.2040 C.3    42  LYS42       0.0035
     65  CD       -28.1060    9.6490  -15.7220 C.3    42  LYS42       0.0206
     66  CE       -26.7270    9.0190  -15.7650 C.3    42  LYS42       0.1093
     67  NZ       -25.6630    9.9960  -15.4250 N.3    42  LYS42      -0.1314
     68  N        -29.4710   21.6260  -15.7240 N.3    68  ILE68      -0.1245
     69  CA       -30.5600   20.6850  -15.9380 C.3    68  ILE68       0.1561
     70  C        -31.2840   20.4820  -14.6110 C.2    68  ILE68       0.2260
     71  O        -30.6640   20.1850  -13.5890 O.2    68  ILE68      -0.2867
     72  CB       -30.0580   19.3310  -16.4820 C.3    68  ILE68       0.0252
     73  CG1      -31.2280   18.5170  -17.0360 C.3    68  ILE68       0.0019
     74  CG2      -29.3370   18.5440  -15.3980 C.3    68  ILE68       0.0019
     75  CD1      -30.8070   17.2630  -17.7710 C.3    68  ILE68       0.0001
     76  N        -35.2200   14.0700  -15.0420 N.3    84  MET84      -0.1230
     77  CA       -34.8880   15.4770  -15.1820 C.3    84  MET84       0.1702
     78  C        -35.6160   16.0230  -16.4050 C.2    84  MET84       0.2592
     79  O        -36.3290   15.2850  -17.0850 O.2    84  MET84      -0.2718
     80  CB       -33.3720   15.6690  -15.2980 C.3    84  MET84       0.0401
     81  CG       -32.6740   14.7070  -16.2540 C.3    84  MET84       0.0596
     82  SD       -31.6680   13.4550  -15.4240 S.3    84  MET84      -0.1393
     83  CE       -30.3110   14.4470  -14.8200 C.3    84  MET84       0.0692
     84  N        -35.4430   17.3120  -16.6810 N.am   85  GLU85      -0.1966
     85  CA       -36.2020   17.9720  -17.7370 C.3    85  GLU85       0.1733
     86  C        -35.7110   17.5900  -19.1310 C.2    85  GLU85       0.2616
     87  O        -34.5210   17.6780  -19.4230 O.2    85  GLU85      -0.2715
     88  CB       -36.1550   19.4920  -17.5590 C.3    85  GLU85       0.0429
     89  CG       -34.7630   20.0800  -17.3840 C.3    85  GLU85       0.1163
     90  CD       -34.7800   21.6000  -17.3510 C.2    85  GLU85       0.3649
     91  OE1      -35.8240   22.1900  -17.7050 O.co2  85  GLU85      -0.2457
     92  OE2      -33.7560   22.2050  -16.9720 O.co2  85  GLU85      -0.2457
     93  N        -36.6380   17.1710  -19.9880 N.am   86  LEU86      -0.1963
     94  CA       -36.3110   16.7900  -21.3600 C.3    86  LEU86       0.1728
     95  C        -35.9580   18.0130  -22.2130 C.2    86  LEU86       0.2616
     96  O        -36.6210   19.0480  -22.1340 O.2    86  LEU86      -0.2715
     97  CB       -37.4860   16.0320  -21.9780 C.3    86  LEU86       0.0311
     98  CG       -37.2590   15.4560  -23.3750 C.3    86  LEU86       0.0022
     99  CD1      -36.0920   14.4820  -23.3760 C.3    86  LEU86       0.0001
    100  CD2      -38.5240   14.7810  -23.8770 C.3    86  LEU86       0.0001
    101  N        -34.9160   17.8820  -23.0320 N.am   87  MET87      -0.1977
    102  CA       -34.3880   19.0110  -23.7940 C.3    87  MET87       0.1605
    103  C        -34.8410   18.9500  -25.2460 C.2    87  MET87       0.2287
    104  O        -34.4200   18.0820  -26.0090 O.2    87  MET87      -0.2864
    105  CB       -32.8590   19.0180  -23.7450 C.3    87  MET87       0.0413
    106  CG       -32.2610   18.9380  -22.3380 C.3    87  MET87       0.0598
    107  SD       -32.1280   20.5090  -21.4540 S.3    87  MET87      -0.1393
    108  CE       -33.8170   20.7160  -20.8950 C.3    87  MET87       0.0692
    109  N        -21.7240   17.7680  -25.9940 N.3   134  SER134     -0.1202
    110  CA       -22.8950   16.9070  -26.0670 C.3   134  SER134      0.2020
    111  C        -23.7130   16.9360  -24.7710 C.2   134  SER134      0.2618
    112  O        -24.8630   16.5000  -24.7500 O.2   134  SER134     -0.2717
    113  CB       -22.4690   15.4720  -26.3670 C.3   134  SER134      0.2103
    114  OG       -21.5970   14.9870  -25.3620 O.3   134  SER134     -0.2182
    115  N        -23.1120   17.4340  -23.6920 N.am  135  ASN135     -0.1974
    116  CA       -23.7890   17.5540  -22.4020 C.3   135  ASN135      0.1688
    117  C        -24.3690   18.9470  -22.1610 C.2   135  ASN135      0.2292
    118  O        -25.0470   19.1870  -21.1650 O.2   135  ASN135     -0.2864
    119  CB       -22.8340   17.1980  -21.2670 C.3   135  ASN135      0.1181
    120  CG       -22.5060   15.7190  -21.2240 C.2   135  ASN135      0.2629
    121  OD1      -23.3060   14.8800  -21.6410 O.2   135  ASN135     -0.2716
    122  ND2      -21.3250   15.3890  -20.7160 N.am  135  ASN135     -0.0877
    123  N        -27.0760   21.2720  -23.6990 N.3   137  LEU137     -0.1245
    124  CA       -28.2030   21.2050  -24.6180 C.3   137  LEU137      0.1561
    125  C        -29.0640   22.4580  -24.5400 C.2   137  LEU137      0.2260
    126  O        -28.7940   23.3690  -23.7590 O.2   137  LEU137     -0.2867
    127  CB       -29.0690   19.9900  -24.2970 C.3   137  LEU137      0.0270
    128  CG       -28.3240   18.6770  -24.0620 C.3   137  LEU137      0.0019
    129  CD1      -29.2950   17.5290  -24.0460 C.3   137  LEU137      0.0001
    130  CD2      -27.2780   18.4240  -25.1240 C.3   137  LEU137      0.0001
    131  N        -25.8410   19.2940  -18.5040 N.3   151  CYS151     -0.1221
    132  CA       -26.5370   18.0300  -18.2650 C.3   151  CYS151      0.1808
    133  C        -25.6120   16.8740  -17.9060 C.2   151  CYS151      0.2601
    134  O        -24.3970   17.0330  -17.8270 O.2   151  CYS151     -0.2717
    135  CB       -27.3480   17.6550  -19.5050 C.3   151  CYS151      0.0970
    136  SG       -28.3700   19.0040  -20.1350 S.3   151  CYS151     -0.0800
    137  N        -26.2160   15.7090  -17.6820 N.am  152  ASP152     -0.1973
    138  CA       -25.4780   14.4780  -17.4120 C.3   152  ASP152      0.1709
    139  C        -24.3400   14.6690  -16.4100 C.2   152  ASP152      0.2293
    140  O        -23.1660   14.6260  -16.7740 O.2   152  ASP152     -0.2864
    141  CB       -24.9220   13.8850  -18.7010 C.3   152  ASP152      0.1436
    142  CG       -24.1130   12.6300  -18.4500 C.2   152  ASP152      0.3671
    143  OD1      -23.1380   12.3860  -19.1910 O.co2 152  ASP152     -0.2456
    144  OD2      -24.4490   11.8940  -17.4980 O.co2 152  ASP152     -0.2456
@<TRIPOS>BOND
     1     4     3    2
     2   113   110    1
     3   113   114    1
     4     2     3    1
     5     2     1    1
     6     2     5    1
     7     3     9    1
     8   110   109    1
     9   110   111    1
    10   104   103    2
    11    10     9    2
    12    10    11    1
    13     5     7    1
    14     5     6    1
    15   103   102    1
    16    16    15    2
    17    13    11   am
    18    13    14    1
    19   130   128    1
    20    11    12    2
    21   111   112    2
    22   111   115   am
    23   124   125    1
    24   124   127    1
    25   124   123    1
    26   125   126    2
    27    14    15    1
    28    14    17    1
    29     6     8    1
    30   127   128    1
    31    15    20   am
    32   128   129    1
    33   100    98    1
    34   102   105    1
    35   102   101    1
    36   105   106    1
    37   115   116    1
    38    99    98    1
    39    98    97    1
    40    20    21    1
    41   101    95   am
    42    18    17    1
    43    51    50    2
    44    17    19    1
    45   116   117    1
    46   116   119    1
    47   106   107    1
    48    95    96    2
    49    95    94    1
    50   117   118    2
    51    21    22    1
    52    97    94    1
    53    50    49    1
    54    23    22    2
    55   121   120    2
    56    22    24   am
    57   107   108    1
    58    94    93    1
    59   119   120    1
    60   120   122   am
    61    52    49    1
    62    52    53    1
    63    48    49    1
    64    24    25    1
    65    58    55    1
    66    25    28    1
    67    25    26    1
    68   136   135    1
    69    45    44    2
    70    93    86   am
    71    28    29    1
    72    55    54    1
    73    55    56    1
    74   135   132    1
    75    87    86    2
    76    27    26    2
    77   143   142   ar
    78    86    85    1
    79    26    30   am
    80    44    43    1
    81   141   142    1
    82   141   138    1
    83   131   132    1
    84   142   144   ar
    85    56    57    2
    86   132   133    1
    87    30    31    1
    88   133   134    2
    89   133   137   am
    90    42    43    1
    91    42    32   am
    92    75    73    1
    93    43    46    1
    94    85    88    1
    95    85    84    1
    96    91    90   ar
    97   137   138    1
    98    88    89    1
    99   138   139    1
   100    89    90    1
   101    90    92   ar
   102    79    78    2
   103    47    46    1
   104    73    72    1
   105    60    59    1
   106    60    63    1
   107    60    61    1
   108    31    32    1
   109    31    34    1
   110    32    33    2
   111   140   139    2
   112    84    78   am
   113    72    69    1
   114    72    74    1
   115    78    77    1
   116    63    64    1
   117    81    82    1
   118    81    80    1
   119    64    65    1
   120    36    38   ar
   121    36    35   ar
   122    69    68    1
   123    69    70    1
   124    61    62    2
   125    38    40   ar
   126    66    65    1
   127    66    67    1
   128    34    35    1
   129    82    83    1
   130    80    77    1
   131    77    76    1
   132    35    37   ar
   133    70    71    2
   134    40    41    1
   135    40    39   ar
   136    37    39   ar
