@<TRIPOS>MOLECULE
tmp/4m8yA00.pdb
 107 101 0 0 0
SMALL
GASTEIGER

@<TRIPOS>ATOM
      1  N         -6.4510   62.4680    1.3530 N.3    23  LEU23      -0.1245
      2  CA        -5.9100   61.4740    2.2530 C.3    23  LEU23       0.1561
      3  C         -5.1140   60.4170    1.4670 C.2    23  LEU23       0.2260
      4  O         -5.6120   59.8650    0.4990 O.2    23  LEU23      -0.2867
      5  CB        -7.0870   60.8590    3.0240 C.3    23  LEU23       0.0270
      6  CG        -6.9700   60.2180    4.4030 C.3    23  LEU23       0.0019
      7  CD1       -6.2400   61.1240    5.4000 C.3    23  LEU23       0.0001
      8  CD2       -8.3660   59.8810    4.8940 C.3    23  LEU23       0.0001
      9  N         -4.3660   56.9790    1.1450 N.3    25  ASP25      -0.1239
     10  CA        -5.2380   55.9710    1.7320 C.3    25  ASP25       0.1674
     11  C         -4.9490   54.5690    1.2000 C.2    25  ASP25       0.2266
     12  O         -5.4940   54.1590    0.1670 O.2    25  ASP25      -0.2867
     13  CB        -6.7060   56.3810    1.5340 C.3    25  ASP25       0.1410
     14  CG        -7.6850   55.4530    2.2400 C.2    25  ASP25       0.3668
     15  OD1       -7.2550   54.4290    2.8090 O.co2  25  ASP25      -0.2456
     16  OD2       -8.8940   55.7460    2.2200 O.co2  25  ASP25      -0.2456
     17  N         -5.9170   51.7810    2.3070 N.3    27  GLY27      -0.1210
     18  CA        -7.0890   50.9050    2.3830 C.3    27  GLY27       0.1956
     19  C         -8.1000   51.1380    1.2710 C.2    27  GLY27       0.2612
     20  O         -9.1750   50.5240    1.2700 O.2    27  GLY27      -0.2717
     21  N         -7.7520   52.0060    0.3180 N.am   28  ALA28      -0.1965
     22  CA        -8.6240   52.3720   -0.7970 C.3    28  ALA28       0.1728
     23  C         -8.0360   51.8720   -2.1100 C.2    28  ALA28       0.2616
     24  O         -6.8720   52.1500   -2.4110 O.2    28  ALA28      -0.2715
     25  CB        -8.7930   53.8790   -0.8460 C.3    28  ALA28       0.0334
     26  N         -8.8200   51.1120   -2.8800 N.am   29  ASP29      -0.1957
     27  CA        -8.3700   50.6210   -4.1750 C.3    29  ASP29       0.1840
     28  C         -8.3440   51.8080   -5.1220 C.2    29  ASP29       0.2622
     29  O         -7.4420   51.9460   -5.9550 O.2    29  ASP29      -0.2715
     30  CB        -9.3370   49.5980   -4.7880 C.3    29  ASP29       0.1450
     31  CG        -9.6050   48.3990   -3.9110 C.2    29  ASP29       0.3671
     32  OD1       -8.7460   47.9720   -3.1040 O.co2  29  ASP29      -0.2456
     33  OD2      -10.7150   47.8590   -4.0660 O.co2  29  ASP29      -0.2456
     34  N         -9.3580   52.6530   -4.9700 N.am   30  ASP30      -0.1971
     35  CA        -9.6830   53.6930   -5.9090 C.3    30  ASP30       0.1709
     36  C         -9.5920   55.0700   -5.2640 C.2    30  ASP30       0.2293
     37  O         -9.7620   55.2230   -4.0590 O.2    30  ASP30      -0.2864
     38  CB       -11.1040   53.4790   -6.4620 C.3    30  ASP30       0.1436
     39  CG       -11.2490   52.1770   -7.2340 C.2    30  ASP30       0.3671
     40  OD1      -10.2340   51.6110   -7.7000 O.co2  30  ASP30      -0.2456
     41  OD2      -12.4010   51.7180   -7.3800 O.co2  30  ASP30      -0.2456
     42  N        -11.0970   58.7390   -4.8400 N.3    32  ILE32      -0.1245
     43  CA       -12.4180   59.4100   -4.8520 C.3    32  ILE32       0.1561
     44  C        -12.3330   60.8540   -4.3530 C.2    32  ILE32       0.2260
     45  O        -11.6580   61.1190   -3.3670 O.2    32  ILE32      -0.2867
     46  CB       -13.4630   58.6950   -3.9660 C.3    32  ILE32       0.0252
     47  CG1      -13.4500   57.1850   -4.2230 C.3    32  ILE32       0.0019
     48  CG2      -14.8470   59.3070   -4.1970 C.3    32  ILE32       0.0019
     49  CD1      -14.3030   56.3680   -3.2810 C.3    32  ILE32       0.0001
     50  N        -19.5470   52.5610   -5.4370 N.3    48  VAL48      -0.1231
     51  CA       -18.3760   52.1860   -4.6190 C.3    48  VAL48       0.1692
     52  C        -18.8650   51.7090   -3.2430 C.2    48  VAL48       0.2593
     53  O        -19.8480   52.2230   -2.7240 O.2    48  VAL48      -0.2718
     54  CB       -17.4100   53.3960   -4.4510 C.3    48  VAL48       0.0266
     55  CG1      -16.2400   53.0730   -3.5440 C.3    48  VAL48       0.0020
     56  CG2      -16.8590   53.8280   -5.7920 C.3    48  VAL48       0.0020
     57  N        -18.1750   50.7430   -2.6470 N.am   49  GLY49      -0.1942
     58  CA       -18.6100   50.2110   -1.3650 C.3    49  GLY49       0.2014
     59  C        -17.6530   50.4340   -0.2060 C.2    49  GLY49       0.2639
     60  O        -16.4360   50.4260   -0.3800 O.2    49  GLY49      -0.2714
     61  N        -18.2000   50.5950    0.9930 N.am   50  GLY50      -0.1939
     62  CA       -17.3670   50.8830    2.1480 C.3    50  GLY50       0.2014
     63  C        -18.0650   50.6230    3.4540 C.2    50  GLY50       0.2638
     64  O        -19.0140   49.8460    3.5130 O.2    50  GLY50      -0.2714
     65  N        -17.5860   51.2840    4.5040 N.am   51  ILE51      -0.1977
     66  CA       -18.1950   51.2020    5.8210 C.3    51  ILE51       0.1596
     67  C        -19.4670   52.0410    5.7830 C.2    51  ILE51       0.2287
     68  O        -19.4190   53.2320    5.4990 O.2    51  ILE51      -0.2864
     69  CB       -17.1860   51.6710    6.9070 C.3    51  ILE51       0.0276
     70  CG1      -16.1610   50.5530    7.1450 C.3    51  ILE51       0.0022
     71  CG2      -17.8900   52.0450    8.2100 C.3    51  ILE51       0.0022
     72  CD1      -15.2100   50.7790    8.2900 C.3    51  ILE51       0.0001
     73  N        -22.0650   51.1230    3.7190 N.3    53  GLY53      -0.1210
     74  CA       -22.8200   50.7230    2.5440 C.3    53  GLY53       0.1956
     75  C        -22.1910   51.1370    1.2340 C.2    53  GLY53       0.2611
     76  O        -20.9790   51.0270    1.0480 O.2    53  GLY53      -0.2717
     77  N        -23.0200   51.6060    0.3170 N.am   54  PHE54      -0.1976
     78  CA       -22.5610   51.9640   -1.0180 C.3    54  PHE54       0.1639
     79  C        -22.8490   53.4190   -1.3540 C.2    54  PHE54       0.2290
     80  O        -23.7380   54.0400   -0.7550 O.2    54  PHE54      -0.2864
     81  CB       -23.1990   51.0440   -2.0640 C.3    54  PHE54       0.0560
     82  CG       -24.6890   51.2210   -2.2140 C.ar   54  PHE54      -0.0200
     83  CD1      -25.5590   50.7370   -1.2570 C.ar   54  PHE54      -0.0042
     84  CD2      -25.2140   51.8520   -3.3280 C.ar   54  PHE54      -0.0042
     85  CE1      -26.9240   50.8910   -1.3990 C.ar   54  PHE54      -0.0003
     86  CE2      -26.5740   52.0060   -3.4790 C.ar   54  PHE54      -0.0003
     87  CZ       -27.4330   51.5280   -2.5140 C.ar   54  PHE54      -0.0000
     88  N        -16.9920   61.7960    2.1700 N.3    82  PRO82      -0.2102
     89  CA       -16.6800   62.7200    3.2700 C.3    82  PRO82       0.1504
     90  C        -15.2320   63.2320    3.2720 C.2    82  PRO82       0.2575
     91  O        -14.9120   64.1790    4.0140 O.2    82  PRO82      -0.2718
     92  CB       -16.9160   61.8660    4.5220 C.3    82  PRO82       0.0282
     93  CG       -16.8070   60.4520    4.0540 C.3    82  PRO82       0.0208
     94  CD       -17.3600   60.4520    2.6650 C.3    82  PRO82       0.0893
     95  N        -14.3670   62.6000    2.4710 N.am   83  ALA83      -0.1980
     96  CA       -12.9550   62.9920    2.3770 C.3    83  ALA83       0.1597
     97  C        -12.4170   62.7150    0.9980 C.2    83  ALA83       0.2287
     98  O        -12.7240   61.6800    0.4100 O.2    83  ALA83      -0.2864
     99  CB       -12.1170   62.2520    3.4230 C.3    83  ALA83       0.0319
    100  N         -9.8210   61.2040   -1.2550 N.3    85  ILE85      -0.1245
    101  CA        -9.0990   59.9560   -0.9750 C.3    85  ILE85       0.1561
    102  C         -8.2030   59.5820   -2.1500 C.2    85  ILE85       0.2260
    103  O         -8.6870   59.3940   -3.2510 O.2    85  ILE85      -0.2867
    104  CB       -10.0890   58.7890   -0.7280 C.3    85  ILE85       0.0252
    105  CG1      -10.8110   58.9420    0.6090 C.3    85  ILE85       0.0019
    106  CG2       -9.3940   57.4310   -0.7230 C.3    85  ILE85       0.0019
    107  CD1      -11.8950   57.8890    0.7560 C.3    85  ILE85       0.0001
@<TRIPOS>BOND
     1    40    39   ar
     2    41    39   ar
     3    39    38    1
     4    38    35    1
     5    29    28    2
     6    35    36    1
     7    35    34    1
     8    56    54    1
     9    50    51    1
    10    36    37    2
    11    28    34   am
    12    28    27    1
    13    43    42    1
    14    43    44    1
    15    43    46    1
    16    30    27    1
    17    30    31    1
    18    51    54    1
    19    51    52    1
    20    54    55    1
    21    44    45    2
    22    47    46    1
    23    47    49    1
    24    48    46    1
    25    27    26    1
    26    33    31   ar
    27    31    32   ar
    28    86    84   ar
    29    86    87   ar
    30    84    82   ar
    31   103   102    2
    32    52    53    2
    33    52    57   am
    34    26    23   am
    35    57    58    1
    36    87    85   ar
    37    24    23    2
    38    82    81    1
    39    82    83   ar
    40   102   101    1
    41    23    22    1
    42    81    78    1
    43    85    83   ar
    44    58    59    1
    45    79    78    1
    46    79    80    2
    47   100   101    1
    48    78    77    1
    49   101   104    1
    50    25    22    1
    51    22    21    1
    52   104   106    1
    53   104   105    1
    54    60    59    2
    55    59    61   am
    56    12    11    2
    57    77    75   am
    58    21    19   am
    59    98    97    2
    60     4     3    2
    61   105   107    1
    62    61    62    1
    63    97    96    1
    64    76    75    2
    65     9    10    1
    66    11    10    1
    67    75    74    1
    68    20    19    2
    69    19    18    1
    70     1     2    1
    71     3     2    1
    72    13    10    1
    73    13    14    1
    74    62    63    1
    75    88    94    1
    76    88    89    1
    77    16    14   ar
    78    14    15   ar
    79     2     5    1
    80    17    18    1
    81    96    95    1
    82    96    99    1
    83    95    90   am
    84    74    73    1
    85    94    93    1
    86     5     6    1
    87    89    90    1
    88    89    92    1
    89    90    91    2
    90    63    64    2
    91    63    65   am
    92    93    92    1
    93     6     8    1
    94     6     7    1
    95    65    66    1
    96    68    67    2
    97    67    66    1
    98    66    69    1
    99    69    70    1
   100    69    71    1
   101    70    72    1
