@<TRIPOS>MOLECULE
tmp/4m92A00.pdb
 124 120 0 0 0
SMALL
GASTEIGER

@<TRIPOS>ATOM
      1  N         -9.9030  -13.3410  -11.5230 N.3    51  ALA51      -0.1245
      2  CA       -11.3130  -13.2290  -11.1070 C.3    51  ALA51       0.1562
      3  C        -11.6050  -14.4320  -10.2160 C.2    51  ALA51       0.2260
      4  O        -11.9610  -15.4860  -10.6550 O.2    51  ALA51      -0.2867
      5  CB       -12.1940  -13.2410  -12.3480 C.3    51  ALA51       0.0290
      6  N        -18.2270  -16.8330   -9.8110 N.3    56  ARG56      -0.1231
      7  CA       -17.8450  -16.8480  -11.1920 C.3    56  ARG56       0.1694
      8  C        -17.2850  -18.2000  -11.6160 C.2    56  ARG56       0.2592
      9  O        -17.2320  -18.4860  -12.7850 O.2    56  ARG56      -0.2718
     10  CB       -16.8580  -15.7300  -11.5290 C.3    56  ARG56       0.0321
     11  CG       -17.3810  -14.3260  -11.3410 C.3    56  ARG56       0.0489
     12  CD       -16.4280  -13.3250  -11.8850 C.3    56  ARG56       0.2205
     13  NE       -16.9000  -11.9270  -11.7710 N.pl3  56  ARG56      -0.0865
     14  CZ       -17.7400  -11.3400  -12.6100 C.cat  56  ARG56       0.5346
     15  NH1      -18.1590  -11.9770  -13.7200 N.pl3  56  ARG56       0.1354
     16  NH2      -18.1360  -10.0800  -12.4010 N.pl3  56  ARG56       0.1354
     17  N        -16.7790  -18.9370  -10.6610 N.am   57  GLN57      -0.1966
     18  CA       -16.2610  -20.3050  -10.8660 C.3    57  GLN57       0.1733
     19  C        -15.1900  -20.3410  -11.9420 C.2    57  GLN57       0.2616
     20  O        -15.1830  -21.2250  -12.8160 O.2    57  GLN57      -0.2715
     21  CB       -17.4380  -21.2700  -11.2090 C.3    57  GLN57       0.0408
     22  CG       -18.3600  -21.5460  -10.0850 C.3    57  GLN57       0.0908
     23  CD       -19.4880  -22.5260  -10.4530 C.2    57  GLN57       0.2608
     24  OE1      -19.5970  -22.9900  -11.5890 O.2    57  GLN57      -0.2717
     25  NE2      -20.3640  -22.7660   -9.5060 N.am   57  GLN57      -0.0878
     26  N        -14.2900  -19.3400  -11.9160 N.am   58  CYS58      -0.1954
     27  CA       -13.2170  -19.2360  -12.9300 C.3    58  CYS58       0.1843
     28  C        -12.0710  -20.1780  -12.5430 C.2    58  CYS58       0.2626
     29  O        -11.1350  -19.8160  -11.8040 O.2    58  CYS58      -0.2714
     30  CB       -12.7510  -17.8260  -13.1680 C.3    58  CYS58       0.0997
     31  SG       -14.0750  -16.8490  -13.9390 S.3    58  CYS58      -0.0797
     32  N        -12.1540  -21.4210  -12.9830 N.am   59  SER59      -0.1936
     33  CA       -11.2070  -22.4360  -12.6190 C.3    59  SER59       0.2055
     34  C         -9.7510  -22.0960  -12.9630 C.2    59  SER59       0.2643
     35  O         -8.8330  -22.4390  -12.2180 O.2    59  SER59      -0.2714
     36  CB       -11.5940  -23.7880  -13.2320 C.3    59  SER59       0.2130
     37  OG       -11.2130  -23.8880  -14.5880 O.3    59  SER59      -0.2179
     38  N         -9.5480  -21.4970  -14.1310 N.am   60  VAL60      -0.1963
     39  CA        -8.2160  -21.1210  -14.5670 C.3    60  VAL60       0.1727
     40  C         -7.6140  -20.1300  -13.6000 C.2    60  VAL60       0.2616
     41  O         -6.4580  -20.2640  -13.1420 O.2    60  VAL60      -0.2715
     42  CB        -8.1370  -20.6530  -16.0410 C.3    60  VAL60       0.0290
     43  CG1       -6.7230  -20.2770  -16.3650 C.3    60  VAL60       0.0023
     44  CG2       -8.6440  -21.7510  -16.9330 C.3    60  VAL60       0.0023
     45  N         -8.3720  -19.0790  -13.2730 N.am   61  SER61      -0.1950
     46  CA        -7.9130  -18.0930  -12.3170 C.3    61  SER61       0.1924
     47  C         -7.5390  -18.7470  -10.9980 C.2    61  SER61       0.2314
     48  O         -6.5510  -18.4010  -10.4010 O.2    61  SER61      -0.2863
     49  CB        -8.9510  -16.9790  -12.0620 C.3    61  SER61       0.2116
     50  OG        -9.1060  -16.1350  -13.2270 O.3    61  SER61      -0.2180
     51  N        -10.9700   -8.7990  -10.8580 N.3    92  TYR92      -0.1227
     52  CA       -11.9480   -8.1430  -11.6910 C.3    92  TYR92       0.1736
     53  C        -13.0370   -7.4210  -10.9220 C.2    92  TYR92       0.2595
     54  O        -13.4570   -6.3030  -11.2870 O.2    92  TYR92      -0.2718
     55  CB       -12.5570   -9.1000  -12.7040 C.3    92  TYR92       0.0548
     56  CG       -13.6330   -8.4440  -13.5630 C.ar   92  TYR92      -0.0200
     57  CD1      -13.2580   -7.5520  -14.5860 C.ar   92  TYR92      -0.0009
     58  CD2      -14.9780   -8.6800  -13.3400 C.ar   92  TYR92      -0.0009
     59  CE1      -14.1970   -6.9580  -15.3950 C.ar   92  TYR92       0.0417
     60  CE2      -15.9380   -8.0720  -14.1720 C.ar   92  TYR92       0.0417
     61  CZ       -15.5220   -7.2010  -15.1750 C.ar   92  TYR92       0.1957
     62  OH       -16.4630   -6.5530  -15.9860 O.3    92  TYR92      -0.2866
     63  N        -13.5140   -8.0380   -9.8360 N.am   93  ASP93      -0.1974
     64  CA       -14.6730   -7.4970   -9.1080 C.3    93  ASP93       0.1709
     65  C        -14.2870   -6.3610   -8.1290 C.2    93  ASP93       0.2293
     66  O        -15.1600   -5.7230   -7.5540 O.2    93  ASP93      -0.2864
     67  CB       -15.4210   -8.6320   -8.4230 C.3    93  ASP93       0.1436
     68  CG       -16.2470   -9.4360   -9.3690 C.2    93  ASP93       0.3671
     69  OD1      -17.0440   -8.8130  -10.1350 O.co2  93  ASP93      -0.2456
     70  OD2      -16.1330  -10.6640   -9.3890 O.co2  93  ASP93      -0.2456
     71  N        -12.4170   -3.4050  -11.4670 N.3    96  THR96      -0.1218
     72  CA       -13.0670   -3.4120  -12.7420 C.3    96  THR96       0.1862
     73  C        -12.6160   -2.2990  -13.6650 C.2    96  THR96       0.2287
     74  O        -12.4790   -2.5060  -14.8640 O.2    96  THR96      -0.2866
     75  CB       -14.6050   -3.3680  -12.6040 C.3    96  THR96       0.1770
     76  OG1      -15.0260   -4.3190  -11.6050 O.3    96  THR96      -0.2211
     77  CG2      -15.2450   -3.6400  -13.9230 C.3    96  THR96       0.0375
     78  N         -9.4120   -3.2790  -15.4120 N.3    99  PHE99      -0.1227
     79  CA        -9.6220   -4.1780  -16.4970 C.3    99  PHE99       0.1736
     80  C        -10.0840   -3.4340  -17.7430 C.2    99  PHE99       0.2595
     81  O         -9.6330   -3.6860  -18.8470 O.2    99  PHE99      -0.2718
     82  CB       -10.6200   -5.2620  -16.1170 C.3    99  PHE99       0.0547
     83  CG       -10.0100   -6.4620  -15.4430 C.ar   99  PHE99      -0.0202
     84  CD1       -9.4720   -6.3540  -14.1620 C.ar   99  PHE99      -0.0042
     85  CD2      -10.0460   -7.7250  -16.0630 C.ar   99  PHE99      -0.0042
     86  CE1       -8.9740   -7.4440  -13.5400 C.ar   99  PHE99      -0.0003
     87  CE2       -9.5370   -8.8380  -15.4090 C.ar   99  PHE99      -0.0003
     88  CZ        -9.0110   -8.6770  -14.1700 C.ar   99  PHE99      -0.0000
     89  N        -10.9450   -2.4610  -17.5460 N.am  100  GLN100     -0.1979
     90  CA       -11.4680   -1.6640  -18.6620 C.3   100  GLN100      0.1601
     91  C        -10.4210   -0.7970  -19.2820 C.2   100  GLN100      0.2287
     92  O        -10.3620   -0.7070  -20.5250 O.2   100  GLN100     -0.2864
     93  CB       -12.6950   -0.8940  -18.2050 C.3   100  GLN100      0.0394
     94  CG       -13.8180   -1.8090  -17.7640 C.3   100  GLN100      0.0908
     95  CD       -15.1150   -1.0920  -17.4130 C.2   100  GLN100      0.2608
     96  OE1      -15.1190   -0.0110  -16.8400 O.2   100  GLN100     -0.2717
     97  NE2      -16.2260   -1.7400  -17.7050 N.am  100  GLN100     -0.0878
     98  N         -9.3010   -5.5950  -20.9200 N.3   104  MET104     -0.1230
     99  CA        -9.3610   -7.0170  -20.5650 C.3   104  MET104      0.1702
    100  C        -10.8020   -7.4810  -20.3530 C.2   104  MET104      0.2592
    101  O        -11.4840   -6.9630  -19.5050 O.2   104  MET104     -0.2718
    102  CB        -8.6080   -7.2320  -19.2550 C.3   104  MET104      0.0401
    103  CG        -7.1270   -7.1480  -19.3600 C.3   104  MET104      0.0596
    104  SD        -6.4160   -7.2030  -17.6870 S.3   104  MET104     -0.1393
    105  CE        -4.7010   -7.0510  -18.1750 C.3   104  MET104      0.0692
    106  N        -11.2370   -8.4920  -21.1210 N.am  105  ASN105     -0.1960
    107  CA       -12.5820   -9.0250  -20.9870 C.3   105  ASN105      0.1819
    108  C        -12.5790  -10.4590  -20.4470 C.2   105  ASN105      0.2622
    109  O        -13.5790  -11.1870  -20.4740 O.2   105  ASN105     -0.2715
    110  CB       -13.2940   -9.0070  -22.3500 C.3   105  ASN105      0.1195
    111  CG       -13.2010   -7.6710  -23.0620 C.2   105  ASN105      0.2630
    112  OD1      -13.7790   -6.6720  -22.6220 O.2   105  ASN105     -0.2716
    113  ND2      -12.4760   -7.6530  -24.1850 N.am  105  ASN105     -0.0877
    114  N        -11.4330  -10.8950  -19.9390 N.am  106  SER106     -0.1936
    115  CA       -11.2920  -12.2020  -19.3340 C.3   106  SER106      0.2055
    116  C        -10.0850  -12.2070  -18.3990 C.2   106  SER106      0.2642
    117  O         -9.3840  -11.2020  -18.2680 O.2   106  SER106     -0.2714
    118  CB       -11.1090  -13.2650  -20.4420 C.3   106  SER106      0.2130
    119  OG       -11.2070  -14.5960  -19.8650 O.3   106  SER106     -0.2179
    120  N         -9.8930  -13.3490  -17.7620 N.am  107  ALA107     -0.1977
    121  CA        -8.8660  -13.5920  -16.8050 C.3   107  ALA107      0.1597
    122  C         -8.4430  -15.0440  -16.8710 C.2   107  ALA107      0.2287
    123  O         -9.2290  -15.9120  -17.2690 O.2   107  ALA107     -0.2864
    124  CB        -9.3700  -13.2410  -15.4210 C.3   107  ALA107      0.0319
@<TRIPOS>BOND
     1   113   111   am
     2   111   112    2
     3   111   110    1
     4   110   107    1
     5   106   107    1
     6   106   100   am
     7   107   108    1
     8    98    99    1
     9    99   100    1
    10    99   102    1
    11    92    91    2
    12   109   108    2
    13   108   114   am
    14   118   119    1
    15   118   115    1
    16   100   101    2
    17   114   115    1
    18   103   102    1
    19   103   104    1
    20   115   116    1
    21    91    90    1
    22    81    80    2
    23    90    93    1
    24    90    89    1
    25   116   117    2
    26   116   120   am
    27    93    94    1
    28   105   104    1
    29    94    95    1
    30   120   121    1
    31    80    89   am
    32    80    79    1
    33    97    95   am
    34    95    96    2
    35   123   122    2
    36    44    42    1
    37   122   121    1
    38   121   124    1
    39    79    82    1
    40    79    78    1
    41    43    42    1
    42    82    83    1
    43    85    83   ar
    44    85    87   ar
    45    42    39    1
    46    62    61    1
    47    83    84   ar
    48    87    88   ar
    49    59    61   ar
    50    59    57   ar
    51    61    60   ar
    52    74    73    2
    53    37    36    1
    54    57    56   ar
    55    39    38    1
    56    39    40    1
    57    60    58   ar
    58    88    86   ar
    59    84    86   ar
    60    38    34   am
    61    31    30    1
    62    77    75    1
    63    15    14    1
    64    73    72    1
    65    40    45   am
    66    40    41    2
    67    56    58   ar
    68    56    55    1
    69    45    46    1
    70    36    33    1
    71    50    49    1
    72    30    27    1
    73    32    33    1
    74    32    28   am
    75    34    33    1
    76    34    35    2
    77    27    28    1
    78    27    26    1
    79    20    19    2
    80     9     8    2
    81    72    75    1
    82    72    71    1
    83    55    52    1
    84    14    16    1
    85    14    13    2
    86    75    76    1
    87    28    29    2
    88     5     2    1
    89    46    49    1
    90    46    47    1
    91    19    26   am
    92    19    18    1
    93    12    13    1
    94    12    11    1
    95    52    53    1
    96    52    51    1
    97     8     7    1
    98     8    17   am
    99    24    23    2
   100    10    11    1
   101    10     7    1
   102     1     2    1
   103    54    53    2
   104    21    18    1
   105    21    22    1
   106     7     6    1
   107     2     3    1
   108    47    48    2
   109    53    63   am
   110    18    17    1
   111     4     3    2
   112    23    22    1
   113    23    25   am
   114    69    68   ar
   115    63    64    1
   116    70    68   ar
   117    68    67    1
   118    64    67    1
   119    64    65    1
   120    65    66    2
