@<TRIPOS>MOLECULE
tmp/4m99C01.pdb
 92 87 0 0 0
SMALL
GASTEIGER

@<TRIPOS>ATOM
      1  N        -18.4010    2.9490  -23.2140 N.3   135  ASP135     -0.1225
      2  CA       -17.9030    1.6950  -23.7430 C.3   135  ASP135      0.1805
      3  C        -18.9610    0.6330  -24.0090 C.2   135  ASP135      0.2597
      4  O        -20.1570    0.9370  -24.1020 O.2   135  ASP135     -0.2718
      5  CB       -16.7610    1.1480  -22.9180 C.3   135  ASP135      0.1424
      6  CG       -15.5610    0.8460  -23.7770 C.2   135  ASP135      0.3668
      7  OD1      -15.6740   -0.0730  -24.6190 O.co2 135  ASP135     -0.2456
      8  OD2      -14.5320    1.5530  -23.6450 O.co2 135  ASP135     -0.2456
      9  N        -18.5100   -0.6100  -24.1530 N.am  136  HIS136     -0.1975
     10  CA       -19.3730   -1.6730  -24.6650 C.3   136  HIS136      0.1656
     11  C        -20.4960   -2.0700  -23.7070 C.2   136  HIS136      0.2291
     12  O        -20.2800   -2.1960  -22.5010 O.2   136  HIS136     -0.2864
     13  CB       -18.5430   -2.8960  -25.0820 C.3   136  HIS136      0.0771
     14  CG       -17.8400   -3.5750  -23.9480 C.ar  136  HIS136      0.0820
     15  ND1      -18.4130   -4.6050  -23.2250 N.ar  136  HIS136     -0.2267
     16  CD2      -16.6060   -3.3890  -23.4240 C.ar  136  HIS136      0.1154
     17  CE1      -17.5600   -5.0170  -22.3030 C.ar  136  HIS136      0.1986
     18  NE2      -16.4560   -4.2970  -22.4000 N.ar  136  HIS136     -0.2212
     19  N        -16.9480    2.7560  -18.2300 N.3   153  SER153     -0.1202
     20  CA       -16.4630    1.4170  -18.5480 C.3   153  SER153      0.2020
     21  C        -17.5800    0.5460  -19.1030 C.2   153  SER153      0.2619
     22  O        -18.7190    1.0100  -19.2700 O.2   153  SER153     -0.2717
     23  CB       -15.8130    0.7640  -17.3410 C.3   153  SER153      0.2103
     24  OG       -14.6970    1.5180  -16.9070 O.3   153  SER153     -0.2182
     25  N        -17.2540   -0.7080  -19.4120 N.am  154  GLY154     -0.1956
     26  CA       -18.2340   -1.6070  -20.0060 C.3   154  GLY154      0.1869
     27  C        -19.3580   -1.9640  -19.0340 C.2   154  GLY154      0.2309
     28  O        -19.1340   -2.0370  -17.8260 O.2   154  GLY154     -0.2863
     29  N        -16.0590    2.4040  -13.0680 N.3   171  ARG171     -0.1231
     30  CA       -15.5090    1.0760  -13.3230 C.3   171  ARG171      0.1694
     31  C        -16.6250    0.2560  -13.9780 C.2   171  ARG171      0.2591
     32  O        -17.7740    0.7100  -14.0370 O.2   171  ARG171     -0.2718
     33  CB       -14.9500    0.4140  -12.0550 C.3   171  ARG171      0.0321
     34  CG       -15.9890   -0.1660  -11.1160 C.3   171  ARG171      0.0489
     35  CD       -15.3400   -0.9630   -9.9980 C.3   171  ARG171      0.2205
     36  NE       -16.3380   -1.4330   -9.0360 N.pl3 171  ARG171     -0.0865
     37  CZ       -16.0580   -1.9220   -7.8310 C.cat 171  ARG171      0.5346
     38  NH1      -14.7980   -2.0140   -7.4160 N.pl3 171  ARG171      0.1354
     39  NH2      -17.0430   -2.3110   -7.0350 N.pl3 171  ARG171      0.1354
     40  N        -16.2930   -0.9190  -14.5080 N.am  172  GLN172     -0.1979
     41  CA       -17.2780   -1.7170  -15.2420 C.3   172  GLN172      0.1601
     42  C        -18.3680   -2.2480  -14.3140 C.2   172  GLN172      0.2287
     43  O        -18.2100   -2.2250  -13.0910 O.2   172  GLN172     -0.2864
     44  CB       -16.6000   -2.8700  -15.9960 C.3   172  GLN172      0.0394
     45  CG       -16.0640   -4.0080  -15.1170 C.3   172  GLN172      0.0908
     46  CD       -14.8410   -3.6120  -14.3030 C.2   172  GLN172      0.2608
     47  OE1      -14.2630   -2.5310  -14.4930 O.2   172  GLN172     -0.2717
     48  NE2      -14.4400   -4.4880  -13.3890 N.am  172  GLN172     -0.0878
     49  N        -15.2690    9.6360   -9.4430 N.3   187  VAL187     -0.1245
     50  CA       -14.7540    8.3040   -9.7160 C.3   187  VAL187      0.1561
     51  C        -15.7250    7.2450   -9.1870 C.2   187  VAL187      0.2260
     52  O        -15.5610    6.7240   -8.0870 O.2   187  VAL187     -0.2867
     53  CB       -13.3740    8.1430   -9.0670 C.3   187  VAL187      0.0252
     54  CG1      -12.7660    6.7900   -9.3920 C.3   187  VAL187      0.0019
     55  CG2      -12.4570    9.2630   -9.5350 C.3   187  VAL187      0.0019
     56  N        -17.0730    4.0410   -8.4100 N.3   189  VAL189     -0.1231
     57  CA       -16.7130    2.6270   -8.2790 C.3   189  VAL189      0.1692
     58  C        -17.7280    1.7780   -7.5010 C.2   189  VAL189      0.2592
     59  O        -17.3930    0.6980   -7.0110 O.2   189  VAL189     -0.2718
     60  CB       -15.3340    2.4510   -7.6360 C.3   189  VAL189      0.0266
     61  CG1      -14.2840    3.1890   -8.4440 C.3   189  VAL189      0.0020
     62  CG2      -15.3510    2.9470   -6.2090 C.3   189  VAL189      0.0020
     63  N        -18.9610    2.2610   -7.3910 N.am  190  CYS190     -0.1970
     64  CA       -20.0440    1.4640   -6.8230 C.3   190  CYS190      0.1712
     65  C        -21.3850    1.9940   -7.3050 C.2   190  CYS190      0.2296
     66  O        -21.4660    3.0920   -7.8550 O.2   190  CYS190     -0.2864
     67  CB       -19.9920    1.4520   -5.2920 C.3   190  CYS190      0.0983
     68  SG       -20.4130    3.0170   -4.5160 S.3   190  CYS190     -0.0798
     69  N        -13.2170   11.1570   -5.1820 N.3   201  ASN201     -0.1226
     70  CA       -12.4720    9.9590   -5.5410 C.3   201  ASN201      0.1770
     71  C        -12.2120    9.1190   -4.2800 C.2   201  ASN201      0.2439
     72  O        -11.2170    9.3340   -3.5760 O.2   201  ASN201     -0.2733
     73  CB       -11.1510   10.3720   -6.2020 C.3   201  ASN201      0.1168
     74  CG       -10.3040    9.1830   -6.6620 C.2   201  ASN201      0.2627
     75  OD1      -10.4810    8.0550   -6.2100 O.2   201  ASN201     -0.2716
     76  ND2       -9.3640    9.4470   -7.5580 N.am  201  ASN201     -0.0877
     77  N        -13.0800    8.1310   -4.0070 N.am  202  PRO202     -0.2729
     78  CA       -14.2110    7.7000   -4.8330 C.3   202  PRO202      0.1401
     79  C        -15.4360    8.5640   -4.6140 C.2   202  PRO202      0.2269
     80  O        -15.4860    9.3290   -3.6500 O.2   202  PRO202     -0.2865
     81  CB       -14.4840    6.2830   -4.3280 C.3   202  PRO202      0.0296
     82  CG       -14.0520    6.3040   -2.9310 C.3   202  PRO202      0.0237
     83  CD       -12.8760    7.2330   -2.8590 C.3   202  PRO202      0.0939
     84  N        -18.6580    9.8350   -3.3280 N.3   204  LYS204     -0.1245
     85  CA       -19.5660    9.6650   -2.1950 C.3   204  LYS204      0.1561
     86  C        -20.6070   10.7700   -2.2640 C.2   204  LYS204      0.2260
     87  O        -20.3690   11.8100   -2.8980 O.2   204  LYS204     -0.2867
     88  CB       -18.8160    9.7830   -0.8710 C.3   204  LYS204      0.0271
     89  CG       -17.5530    8.9640   -0.7630 C.3   204  LYS204      0.0035
     90  CD       -17.8330    7.5120   -0.4280 C.3   204  LYS204      0.0206
     91  CE       -16.5810    6.8600    0.1430 C.3   204  LYS204      0.1093
     92  NZ       -16.7360    5.3930    0.3720 N.3   204  LYS204     -0.1314
@<TRIPOS>BOND
     1    13    10    1
     2    13    14    1
     3    10     9    1
     4    10    11    1
     5     7     6   ar
     6     9     3   am
     7     4     3    2
     8     3     2    1
     9    14    16   ar
    10    14    15   ar
    11     6     8   ar
    12     6     5    1
    13     2     1    1
    14     2     5    1
    15    11    12    2
    16    16    18   ar
    17    15    17   ar
    18    18    17   ar
    19    26    25    1
    20    26    27    1
    21    25    21   am
    22    22    21    2
    23    21    20    1
    24    27    28    2
    25    20    19    1
    26    20    23    1
    27    23    24    1
    28    44    41    1
    29    44    45    1
    30    41    40    1
    31    41    42    1
    32    45    46    1
    33    40    31   am
    34    47    46    2
    35    42    43    2
    36    46    48   am
    37    32    31    2
    38    31    30    1
    39    30    29    1
    40    30    33    1
    41    33    34    1
    42    34    35    1
    43    35    36    1
    44    50    49    1
    45    50    51    1
    46    50    53    1
    47    55    53    1
    48    54    53    1
    49    51    52    2
    50    36    37    2
    51    61    60    1
    52    56    57    1
    53    57    60    1
    54    57    58    1
    55    66    65    2
    56    37    38    1
    57    37    39    1
    58    60    62    1
    59    76    74   am
    60    58    63   am
    61    58    59    2
    62    63    64    1
    63    65    64    1
    64    64    67    1
    65    74    75    2
    66    74    73    1
    67    73    70    1
    68    70    69    1
    69    70    71    1
    70    67    68    1
    71    78    79    1
    72    78    81    1
    73    78    77    1
    74    79    80    2
    75    81    82    1
    76    71    77   am
    77    71    72    2
    78    77    83    1
    79    84    85    1
    80    82    83    1
    81    87    86    2
    82    86    85    1
    83    85    88    1
    84    88    89    1
    85    89    90    1
    86    90    91    1
    87    91    92    1
