@<TRIPOS>MOLECULE
tmp/4m99C00.pdb
 126 118 0 0 0
SMALL
GASTEIGER

@<TRIPOS>ATOM
      1  N        -24.4080   25.3900  -25.4970 N.3    13  HIS13      -0.1241
      2  CA       -24.6920   24.0500  -25.9760 C.3    13  HIS13       0.1621
      3  C        -25.2110   24.0700  -27.4130 C.2    13  HIS13       0.2264
      4  O        -24.7530   23.2990  -28.2560 O.2    13  HIS13      -0.2867
      5  CB       -25.6760   23.3460  -25.0400 C.3    13  HIS13       0.0745
      6  CG       -25.9160   21.9140  -25.3930 C.ar   13  HIS13       0.0817
      7  ND1      -24.8940   20.9980  -25.5000 N.ar   13  HIS13      -0.2268
      8  CD2      -27.0590   21.2460  -25.6790 C.ar   13  HIS13       0.1154
      9  CE1      -25.3980   19.8200  -25.8290 C.ar   13  HIS13       0.1986
     10  NE2      -26.7070   19.9440  -25.9450 N.ar   13  HIS13      -0.2212
     11  N        -22.5260   24.5930  -30.0720 N.3    16  VAL16      -0.1245
     12  CA       -21.8400   23.3460  -30.3730 C.3    16  VAL16       0.1561
     13  C        -22.7130   22.4250  -31.2400 C.2    16  VAL16       0.2260
     14  O        -22.2210   21.8140  -32.1950 O.2    16  VAL16      -0.2867
     15  CB       -21.3720   22.6400  -29.0980 C.3    16  VAL16       0.0252
     16  CG1      -20.6360   21.3650  -29.4410 C.3    16  VAL16       0.0019
     17  CG2      -20.4710   23.5680  -28.3110 C.3    16  VAL16       0.0019
     18  N        -21.1460   14.0770  -24.5640 N.3   129  ASN129     -0.1225
     19  CA       -20.4560   15.3220  -24.8820 C.3   129  ASN129      0.1785
     20  C        -19.0040   15.1650  -25.2930 C.2   129  ASN129      0.2597
     21  O        -18.4770   14.0480  -25.3520 O.2   129  ASN129     -0.2718
     22  CB       -20.5840   16.3110  -23.7250 C.3   129  ASN129      0.1169
     23  CG       -20.9960   17.7020  -24.1870 C.2   129  ASN129      0.2627
     24  OD1      -20.4580   18.2270  -25.1690 O.2   129  ASN129     -0.2716
     25  ND2      -21.9630   18.3020  -23.4860 N.am  129  ASN129     -0.0877
     26  N        -18.3760   16.3050  -25.5720 N.am  130  THR130     -0.1953
     27  CA       -17.0400   16.3670  -26.1570 C.3   130  THR130      0.1897
     28  C        -16.0660   15.3770  -25.5220 C.2   130  THR130      0.2313
     29  O        -15.7840   15.4600  -24.3330 O.2   130  THR130     -0.2863
     30  CB       -16.4430   17.7760  -26.0340 C.3   130  THR130      0.1794
     31  OG1      -17.4230   18.7660  -26.3960 O.3   130  THR130     -0.2208
     32  CG2      -15.2270   17.9030  -26.9230 C.3   130  THR130      0.0378
     33  N        -27.1410   12.8460  -19.5460 N.3   145  HIS145     -0.1241
     34  CA       -26.0740   13.6780  -20.0760 C.3   145  HIS145      0.1621
     35  C        -24.7120   13.2090  -19.5570 C.2   145  HIS145      0.2264
     36  O        -24.4430   13.2280  -18.3510 O.2   145  HIS145     -0.2867
     37  CB       -26.3260   15.1500  -19.7490 C.3   145  HIS145      0.0745
     38  CG       -25.2690   16.0870  -20.2570 C.ar  145  HIS145      0.0817
     39  ND1      -25.2030   17.4050  -19.8730 N.ar  145  HIS145     -0.2268
     40  CD2      -24.2380   15.8900  -21.1130 C.ar  145  HIS145      0.1154
     41  CE1      -24.1750   17.9880  -20.4690 C.ar  145  HIS145      0.1986
     42  NE2      -23.5740   17.0920  -21.2230 N.ar  145  HIS145     -0.2212
     43  N        -21.1180   14.3670  -19.6010 N.3   147  SER147     -0.1203
     44  CA       -20.3850   15.6020  -19.8360 C.3   147  SER147      0.2005
     45  C        -19.0320   15.3400  -20.5150 C.2   147  SER147      0.2460
     46  O        -18.5790   14.1940  -20.5610 O.2   147  SER147     -0.2732
     47  CB       -20.1880   16.3380  -18.5020 C.3   147  SER147      0.2103
     48  OG       -21.4260   16.5830  -17.8670 O.3   147  SER147     -0.2182
     49  N        -18.3840   16.4040  -21.0450 N.am  148  PRO148     -0.2728
     50  CA       -17.0900   16.2180  -21.7150 C.3   148  PRO148      0.1401
     51  C        -16.0630   15.3940  -20.9440 C.2   148  PRO148      0.2269
     52  O        -15.8800   15.5780  -19.7360 O.2   148  PRO148     -0.2865
     53  CB       -16.5910   17.6460  -21.8900 C.3   148  PRO148      0.0296
     54  CG       -17.8650   18.4350  -22.1180 C.3   148  PRO148      0.0237
     55  CD       -18.8770   17.7930  -21.1940 C.3   148  PRO148      0.0939
     56  N        -26.8790   12.7610  -14.6300 N.3   163  ARG163     -0.1245
     57  CA       -25.9080   13.6650  -15.2270 C.3   163  ARG163      0.1563
     58  C        -24.5100   13.3000  -14.7920 C.2   163  ARG163      0.2260
     59  O        -24.1590   13.4780  -13.6280 O.2   163  ARG163     -0.2867
     60  CB       -26.2040   15.1020  -14.8050 C.3   163  ARG163      0.0307
     61  CG       -25.4960   16.1270  -15.6490 C.3   163  ARG163      0.0489
     62  CD       -25.5320   17.5060  -15.0290 C.3   163  ARG163      0.2205
     63  NE       -25.2210   18.5100  -16.0380 N.pl3 163  ARG163     -0.0865
     64  CZ       -23.9900   18.8160  -16.4450 C.cat 163  ARG163      0.5346
     65  NH1      -22.9390   18.1960  -15.9160 N.pl3 163  ARG163      0.1354
     66  NH2      -23.8090   19.7510  -17.3800 N.pl3 163  ARG163      0.1354
     67  N        -20.7080   14.1340  -14.7550 N.3   165  GLY165     -0.1210
     68  CA       -19.9560   15.3610  -14.9130 C.3   165  GLY165      0.1956
     69  C        -18.6400   15.2290  -15.6490 C.2   165  GLY165      0.2612
     70  O        -18.1010   14.1360  -15.8190 O.2   165  GLY165     -0.2717
     71  N        -18.1230   16.3730  -16.0770 N.am  166  THR166     -0.1952
     72  CA       -16.8940   16.4590  -16.8460 C.3   166  THR166      0.1897
     73  C        -15.7310   15.6930  -16.2140 C.2   166  THR166      0.2313
     74  O        -15.3460   15.9490  -15.0780 O.2   166  THR166     -0.2863
     75  CB       -16.5100   17.9340  -17.0380 C.3   166  THR166      0.1794
     76  OG1      -17.5190   18.5770  -17.8250 O.3   166  THR166     -0.2208
     77  CG2      -15.1660   18.0680  -17.7430 C.3   166  THR166      0.0378
     78  N        -26.7010   13.0500   -9.9650 N.3   181  THR181     -0.1203
     79  CA       -25.7580   14.0320  -10.4590 C.3   181  THR181      0.1994
     80  C        -24.3970   13.6190   -9.9390 C.2   181  THR181      0.2618
     81  O        -24.1150   13.7390   -8.7330 O.2   181  THR181     -0.2717
     82  CB       -26.0820   15.4680   -9.9670 C.3   181  THR181      0.1784
     83  OG1      -27.2290   15.9780  -10.6640 O.3   181  THR181     -0.2211
     84  CG2      -24.9030   16.3980  -10.2200 C.3   181  THR181      0.0376
     85  N        -23.5620   13.0830  -10.8220 N.am  182  ALA182     -0.1965
     86  CA       -22.1870   12.8330  -10.4350 C.3   182  ALA182      0.1728
     87  C        -21.4350   14.0190  -10.9880 C.2   182  ALA182      0.2617
     88  O        -21.5970   14.3660  -12.1560 O.2   182  ALA182     -0.2715
     89  CB       -21.6750   11.5360  -11.0140 C.3   182  ALA182      0.0334
     90  N        -20.6360   14.6670  -10.1510 N.am  183  GLY183     -0.1940
     91  CA       -19.9820   15.8910  -10.5690 C.3   183  GLY183      0.2014
     92  C        -18.6730   15.6530  -11.2910 C.2   183  GLY183      0.2639
     93  O        -18.2250   14.5150  -11.4310 O.2   183  GLY183     -0.2714
     94  N        -18.0620   16.7420  -11.7420 N.am  184  ALA184     -0.1963
     95  CA       -16.7580   16.6930  -12.3830 C.3   184  ALA184      0.1728
     96  C        -15.7460   15.8720  -11.5850 C.2   184  ALA184      0.2616
     97  O        -15.5810   16.0770  -10.3890 O.2   184  ALA184     -0.2715
     98  CB       -16.2360   18.1060  -12.6220 C.3   184  ALA184      0.0334
     99  N        -15.0840   14.9300  -12.2570 N.am  185  GLY185     -0.1955
    100  CA       -14.0230   14.1380  -11.6530 C.3   185  GLY185      0.1869
    101  C        -14.4930   12.9540  -10.8310 C.2   185  GLY185      0.2309
    102  O        -13.6770   12.1910  -10.3030 O.2   185  GLY185     -0.2863
    103  N        -26.6570   12.8080   -5.2080 N.3   197  THR197     -0.1218
    104  CA       -25.6470   13.6670   -5.8140 C.3   197  THR197      0.1862
    105  C        -24.3040   13.3230   -5.2000 C.2   197  THR197      0.2287
    106  O        -24.1380   13.4050   -3.9850 O.2   197  THR197     -0.2866
    107  CB       -25.9240   15.1560   -5.5720 C.3   197  THR197      0.1770
    108  OG1      -27.0670   15.5730   -6.3320 O.3   197  THR197     -0.2211
    109  CG2      -24.7190   15.9880   -5.9830 C.3   197  THR197      0.0375
    110  N        -19.7530   13.0920   -5.6100 N.3   199  ALA199     -0.1231
    111  CA       -18.5330   13.6070   -6.2140 C.3   199  ALA199      0.1694
    112  C        -17.3900   12.9940   -5.4420 C.2   199  ALA199      0.2592
    113  O        -17.6200   12.2830   -4.4630 O.2   199  ALA199     -0.2718
    114  CB       -18.4780   15.1090   -6.1370 C.3   199  ALA199      0.0304
    115  N        -16.1660   13.2530   -5.8850 N.am  200  GLY200     -0.1957
    116  CA       -14.9860   12.7830   -5.1810 C.3   200  GLY200      0.1869
    117  C        -14.3930   11.4900   -5.7080 C.2   200  GLY200      0.2309
    118  O        -14.9820   10.8100   -6.5510 O.2   200  GLY200     -0.2863
    119  N        -22.2520   14.0560   -1.1860 N.3   206  LEU206     -0.1245
    120  CA       -21.5420   15.2050   -0.6340 C.3   206  LEU206      0.1561
    121  C        -22.0920   15.5670    0.7470 C.2   206  LEU206      0.2260
    122  O        -21.3630   16.0400    1.6280 O.2   206  LEU206     -0.2867
    123  CB       -21.6020   16.4020   -1.5870 C.3   206  LEU206      0.0270
    124  CG       -20.7620   16.3030   -2.8650 C.3   206  LEU206      0.0019
    125  CD1      -20.9400   17.5440   -3.7340 C.3   206  LEU206      0.0001
    126  CD2      -19.2900   16.0810   -2.5400 C.3   206  LEU206      0.0001
@<TRIPOS>BOND
     1    14    13    2
     2    13    12    1
     3    12    11    1
     4    12    15    1
     5    16    15    1
     6    15    17    1
     7     4     3    2
     8     3     2    1
     9    32    30    1
    10    31    30    1
    11    27    30    1
    12    27    26    1
    13    27    28    1
    14     2     1    1
    15     2     5    1
    16    10     9   ar
    17    10     8   ar
    18     9     7   ar
    19     8     6   ar
    20    26    20   am
    21    28    29    2
    22     7     6   ar
    23     6     5    1
    24    21    20    2
    25    20    19    1
    26    24    23    2
    27    19    18    1
    28    19    22    1
    29    23    22    1
    30    23    25   am
    31    54    53    1
    32    54    55    1
    33    53    50    1
    34    50    49    1
    35    50    51    1
    36    42    40   ar
    37    42    41   ar
    38    55    49    1
    39    40    38   ar
    40    49    45   am
    41    51    52    2
    42    46    45    2
    43    45    44    1
    44    41    39   ar
    45    38    39   ar
    46    38    37    1
    47    34    37    1
    48    34    35    1
    49    34    33    1
    50    44    43    1
    51    44    47    1
    52    35    36    2
    53    47    48    1
    54    76    75    1
    55    77    75    1
    56    66    64    1
    57    75    72    1
    58    72    73    1
    59    72    71    1
    60    64    63    2
    61    64    65    1
    62    73    74    2
    63    71    69   am
    64    63    62    1
    65    70    69    2
    66    61    62    1
    67    61    60    1
    68    69    68    1
    69    57    60    1
    70    57    58    1
    71    57    56    1
    72    68    67    1
    73    58    59    2
    74    98    95    1
    75    95    94    1
    76    95    96    1
    77    99   100    1
    78    99    96   am
    79    88    87    2
    80    94    92   am
    81   100   101    1
    82    96    97    2
    83    93    92    2
    84    92    91    1
    85    89    86    1
    86    87    86    1
    87    87    90   am
    88   101   102    2
    89    85    86    1
    90    85    80   am
    91    83    82    1
    92    91    90    1
    93    79    82    1
    94    79    78    1
    95    79    80    1
    96    84    82    1
    97    80    81    2
    98   118   117    2
    99   108   107    1
   100   111   114    1
   101   111   110    1
   102   111   112    1
   103   109   107    1
   104   115   112   am
   105   115   116    1
   106   104   107    1
   107   104   103    1
   108   104   105    1
   109   117   116    1
   110   112   113    2
   111   105   106    2
   112   125   124    1
   113   124   126    1
   114   124   123    1
   115   123   120    1
   116   119   120    1
   117   120   121    1
   118   121   122    2
