@<TRIPOS>MOLECULE
tmp/4m9aA00.pdb
 140 138 0 0 0
SMALL
GASTEIGER

@<TRIPOS>ATOM
      1  N         -2.8500  -38.5860   43.1160 N.3   258  TYR258     -0.1241
      2  CA        -3.7490  -38.4160   41.9860 C.3   258  TYR258      0.1605
      3  C         -3.0800  -38.8330   40.7010 C.2   258  TYR258      0.2264
      4  O         -3.6800  -39.5710   39.9370 O.2   258  TYR258     -0.2867
      5  CB        -4.1990  -36.9570   41.8400 C.3   258  TYR258      0.0534
      6  CG        -5.2540  -36.7770   40.7980 C.ar  258  TYR258     -0.0201
      7  CD1       -6.5850  -37.1210   41.0520 C.ar  258  TYR258     -0.0009
      8  CD2       -4.9320  -36.2820   39.5530 C.ar  258  TYR258     -0.0009
      9  CE1       -7.5610  -36.9510   40.0750 C.ar  258  TYR258      0.0417
     10  CE2       -5.8900  -36.0990   38.5860 C.ar  258  TYR258      0.0417
     11  CZ        -7.2010  -36.4330   38.8480 C.ar  258  TYR258      0.1957
     12  OH        -8.1230  -36.2900   37.8430 O.3   258  TYR258     -0.2866
     13  N         -4.8510  -41.3070   38.1590 N.3   262  ARG262     -0.1245
     14  CA        -5.5200  -40.8070   36.9840 C.3   262  ARG262      0.1563
     15  C         -4.7880  -41.2790   35.7340 C.2   262  ARG262      0.2260
     16  O         -3.5920  -41.0360   35.5670 O.2   262  ARG262     -0.2867
     17  CB        -5.5920  -39.2710   37.0270 C.3   262  ARG262      0.0307
     18  CG        -6.0970  -38.6310   35.7500 C.3   262  ARG262      0.0489
     19  CD        -7.5360  -39.0230   35.5100 C.3   262  ARG262      0.2205
     20  NE        -8.2160  -38.0570   34.6680 N.pl3 262  ARG262     -0.0865
     21  CZ        -9.5370  -37.9810   34.4960 C.cat 262  ARG262      0.5346
     22  NH1      -10.3830  -38.8280   35.1060 N.pl3 262  ARG262      0.1354
     23  NH2      -10.0240  -37.0440   33.6920 N.pl3 262  ARG262      0.1354
     24  N         -4.7370  -41.2150   31.5240 N.3   264  GLN264     -0.1231
     25  CA        -5.1060  -40.3870   30.3790 C.3   264  GLN264      0.1698
     26  C         -4.1270  -40.7610   29.3000 C.2   264  GLN264      0.2592
     27  O         -2.9520  -40.8920   29.5940 O.2   264  GLN264     -0.2718
     28  CB        -5.0540  -38.8770   30.7360 C.3   264  GLN264      0.0381
     29  CG        -5.8490  -37.9520   29.7970 C.3   264  GLN264      0.0905
     30  CD        -7.3850  -37.9330   29.9810 C.2   264  GLN264      0.2608
     31  OE1       -8.0880  -37.2210   29.2500 O.2   264  GLN264     -0.2717
     32  NE2       -7.9140  -38.7020   30.9430 N.am  264  GLN264     -0.0878
     33  N         -4.6250  -40.9730   28.0710 N.am  265  PHE265     -0.1976
     34  CA        -3.8550  -41.5540   26.9390 C.3   265  PHE265      0.1639
     35  C         -3.1070  -42.8470   27.2960 C.2   265  PHE265      0.2290
     36  O         -1.9480  -43.0140   26.9250 O.2   265  PHE265     -0.2864
     37  CB        -2.8720  -40.5550   26.2780 C.3   265  PHE265      0.0560
     38  CG        -3.4950  -39.2370   25.8570 C.ar  265  PHE265     -0.0200
     39  CD1       -3.6770  -38.1930   26.7810 C.ar  265  PHE265     -0.0042
     40  CD2       -3.8710  -39.0090   24.5370 C.ar  265  PHE265     -0.0042
     41  CE1       -4.2350  -36.9690   26.3940 C.ar  265  PHE265     -0.0003
     42  CE2       -4.4220  -37.7850   24.1470 C.ar  265  PHE265     -0.0003
     43  CZ        -4.6070  -36.7700   25.0720 C.ar  265  PHE265     -0.0000
     44  N         -0.8580  -40.6170   34.7370 N.3   269  ILE269     -0.1245
     45  CA        -0.3580  -39.3720   34.2400 C.3   269  ILE269      0.1561
     46  C          1.0070  -39.0150   34.8330 C.2   269  ILE269      0.2260
     47  O          1.6900  -38.2420   34.2270 O.2   269  ILE269     -0.2867
     48  CB        -1.3420  -38.2020   34.3820 C.3   269  ILE269      0.0252
     49  CG1       -1.8190  -38.0160   35.8160 C.3   269  ILE269      0.0019
     50  CG2       -2.5290  -38.4210   33.5150 C.3   269  ILE269      0.0019
     51  CD1       -2.6460  -36.7320   35.9610 C.3   269  ILE269      0.0001
     52  N          3.6720  -39.3810   32.4240 N.3   272  HIS272     -0.1241
     53  CA         3.9220  -38.4330   31.3510 C.3   272  HIS272      0.1621
     54  C          5.0520  -37.5470   31.8230 C.2   272  HIS272      0.2264
     55  O          5.0130  -37.0000   32.9160 O.2   272  HIS272     -0.2867
     56  CB         2.7100  -37.5900   30.9910 C.3   272  HIS272      0.0745
     57  CG         1.5480  -38.3770   30.4850 C.ar  272  HIS272      0.0817
     58  ND1        1.6610  -39.3270   29.4940 N.ar  272  HIS272     -0.2268
     59  CD2        0.2350  -38.3240   30.8080 C.ar  272  HIS272      0.1154
     60  CE1        0.4740  -39.8430   29.2460 C.ar  272  HIS272      0.1986
     61  NE2       -0.4100  -39.2520   30.0260 N.ar  272  HIS272     -0.2212
     62  N          6.0730  -34.5680   31.3110 N.3   274  ALA274     -0.1231
     63  CA         5.7930  -33.2090   31.7830 C.3   274  ALA274      0.1694
     64  C          5.2010  -33.1750   33.1840 C.2   274  ALA274      0.2591
     65  O          5.4810  -32.2450   33.9430 O.2   274  ALA274     -0.2718
     66  CB         4.9150  -32.4420   30.8030 C.3   274  ALA274      0.0304
     67  N          4.3860  -34.1740   33.5380 N.am  275  ILE275     -0.1980
     68  CA         3.8840  -34.3210   34.9180 C.3   275  ILE275      0.1595
     69  C          4.9670  -34.8040   35.9130 C.2   275  ILE275      0.2287
     70  O          5.1030  -34.2920   37.0520 O.2   275  ILE275     -0.2864
     71  CB         2.7070  -35.3030   34.9670 C.3   275  ILE275      0.0276
     72  CG1        1.5330  -34.8130   34.1040 C.3   275  ILE275      0.0022
     73  CG2        2.2630  -35.5220   36.4040 C.3   275  ILE275      0.0022
     74  CD1        0.9270  -33.5020   34.5330 C.3   275  ILE275      0.0001
     75  N         -2.5720  -27.8650   38.8020 N.3   330  GLN330     -0.1231
     76  CA        -2.4190  -28.1890   37.3840 C.3   330  GLN330      0.1698
     77  C         -2.4640  -29.7010   37.1060 C.2   330  GLN330      0.2592
     78  O         -2.9910  -30.1380   36.1250 O.2   330  GLN330     -0.2718
     79  CB        -1.0710  -27.6420   36.8620 C.3   330  GLN330      0.0381
     80  CG        -0.9540  -27.5540   35.3460 C.3   330  GLN330      0.0905
     81  CD        -1.9540  -26.5790   34.7220 C.2   330  GLN330      0.2608
     82  OE1       -2.4700  -25.6410   35.4010 O.2   330  GLN330     -0.2717
     83  NE2       -2.2140  -26.7610   33.4040 N.am  330  GLN330     -0.0878
     84  N         -1.8180  -30.4730   37.9630 N.am  331  ILE331     -0.1966
     85  CA        -1.7340  -31.9290   37.8430 C.3   331  ILE331      0.1727
     86  C         -3.1240  -32.5390   37.9280 C.2   331  ILE331      0.2616
     87  O         -3.4230  -33.5220   37.2570 O.2   331  ILE331     -0.2715
     88  CB        -0.8200  -32.4820   38.9260 C.3   331  ILE331      0.0290
     89  CG1        0.6260  -32.1460   38.5540 C.3   331  ILE331      0.0022
     90  CG2       -0.9780  -33.9840   39.0950 C.3   331  ILE331      0.0023
     91  CD1        1.6480  -32.3670   39.6360 C.3   331  ILE331      0.0001
     92  N         -3.9940  -31.9150   38.7010 N.am  332  HIS332     -0.1959
     93  CA        -5.4140  -32.3520   38.7990 C.3   332  HIS332      0.1787
     94  C         -6.2970  -31.9430   37.6440 C.2   332  HIS332      0.2621
     95  O         -7.4520  -32.4010   37.5460 O.2   332  HIS332     -0.2715
     96  CB        -6.0610  -31.8140   40.0730 C.3   332  HIS332      0.0785
     97  CG        -5.7160  -32.5900   41.3050 C.ar  332  HIS332      0.0821
     98  ND1       -4.5290  -32.4250   41.9760 N.ar  332  HIS332     -0.2267
     99  CD2       -6.4240  -33.5040   42.0090 C.ar  332  HIS332      0.1154
    100  CE1       -4.5160  -33.2040   43.0440 C.ar  332  HIS332      0.1986
    101  NE2       -5.6420  -33.8900   43.0690 N.ar  332  HIS332     -0.2212
    102  N         -5.8110  -31.0740   36.7810 N.am  333  GLY333     -0.1940
    103  CA        -6.6570  -30.6150   35.6700 C.3   333  GLY333      0.2014
    104  C         -7.8320  -29.7990   36.2070 C.2   333  GLY333      0.2639
    105  O         -7.7000  -29.0960   37.2070 O.2   333  GLY333     -0.2714
    106  N         -8.9850  -29.9130   35.5690 N.am  334  GLY334     -0.1939
    107  CA       -10.2110  -29.1950   36.0290 C.3   334  GLY334      0.2014
    108  C        -10.5490  -29.4910   37.4670 C.2   334  GLY334      0.2638
    109  O        -11.0180  -28.6390   38.1990 O.2   334  GLY334     -0.2714
    110  N        -10.2640  -30.7030   37.8960 N.am  335  TYR335     -0.1973
    111  CA       -10.5300  -31.0880   39.2760 C.3   335  TYR335      0.1639
    112  C         -9.7880  -30.2160   40.2660 C.2   335  TYR335      0.2290
    113  O        -10.2890  -29.9580   41.3770 O.2   335  TYR335     -0.2864
    114  CB       -10.2250  -32.5770   39.4770 C.3   335  TYR335      0.0560
    115  CG       -11.0530  -33.4260   38.5360 C.ar  335  TYR335     -0.0198
    116  CD1      -12.4140  -33.6270   38.7610 C.ar  335  TYR335     -0.0009
    117  CD2      -10.5040  -33.9550   37.4020 C.ar  335  TYR335     -0.0009
    118  CE1      -13.1780  -34.3890   37.8850 C.ar  335  TYR335      0.0417
    119  CE2      -11.2670  -34.6720   36.5010 C.ar  335  TYR335      0.0417
    120  CZ       -12.6040  -34.8990   36.7580 C.ar  335  TYR335      0.1957
    121  OH       -13.3390  -35.6440   35.8620 O.3   335  TYR335     -0.2866
    122  N         -9.3110  -27.0620   40.3350 N.3   337  PHE337     -0.1227
    123  CA        -9.9740  -25.7980   40.5660 C.3   337  PHE337      0.1736
    124  C        -11.2490  -25.9710   41.4480 C.2   337  PHE337      0.2595
    125  O        -11.8960  -24.9690   41.8240 O.2   337  PHE337     -0.2718
    126  CB       -10.3740  -25.2370   39.1840 C.3   337  PHE337      0.0547
    127  CG       -10.7330  -23.7910   39.1860 C.ar  337  PHE337     -0.0202
    128  CD1       -9.7770  -22.8150   39.4980 C.ar  337  PHE337     -0.0042
    129  CD2      -12.0130  -23.3700   38.7990 C.ar  337  PHE337     -0.0042
    130  CE1      -10.1080  -21.4740   39.4770 C.ar  337  PHE337     -0.0003
    131  CE2      -12.3520  -22.0120   38.7680 C.ar  337  PHE337     -0.0003
    132  CZ       -11.3950  -21.0710   39.1070 C.ar  337  PHE337     -0.0000
    133  N        -11.6160  -27.2280   41.7470 N.am  338  LEU338     -0.1980
    134  CA       -12.8450  -27.5540   42.5020 C.3   338  LEU338      0.1596
    135  C        -12.5880  -27.6930   44.0100 C.2   338  LEU338      0.2287
    136  O        -11.5590  -28.2340   44.4380 O.2   338  LEU338     -0.2864
    137  CB       -13.4580  -28.8460   42.0170 C.3   338  LEU338      0.0297
    138  CG       -13.9140  -28.9700   40.5870 C.3   338  LEU338      0.0022
    139  CD1      -14.4910  -30.3660   40.3910 C.3   338  LEU338      0.0001
    140  CD2      -14.9560  -27.9230   40.3030 C.3   338  LEU338      0.0001
@<TRIPOS>BOND
     1    42    40   ar
     2    42    43   ar
     3    40    38   ar
     4    43    41   ar
     5    38    37    1
     6    38    39   ar
     7    37    34    1
     8    41    39   ar
     9    36    35    2
    10    34    35    1
    11    34    33    1
    12    33    26   am
    13    60    58   ar
    14    60    61   ar
    15    31    30    2
    16    26    27    2
    17    26    25    1
    18    58    57   ar
    19    29    30    1
    20    29    28    1
    21    30    32   am
    22    61    59   ar
    23    25    28    1
    24    25    24    1
    25    57    59   ar
    26    57    56    1
    27    66    63    1
    28    56    53    1
    29    62    63    1
    30    53    54    1
    31    53    52    1
    32    63    64    1
    33    54    55    2
    34    64    67   am
    35    64    65    2
    36    83    81   am
    37    50    48    1
    38    67    68    1
    39    23    21    1
    40    72    74    1
    41    72    71    1
    42    47    46    2
    43    45    48    1
    44    45    44    1
    45    45    46    1
    46    48    49    1
    47    21    20    2
    48    21    22    1
    49    20    19    1
    50    81    80    1
    51    81    82    2
    52    68    71    1
    53    68    69    1
    54    71    73    1
    55    80    79    1
    56    19    18    1
    57    16    15    2
    58   106   107    1
    59   106   104   am
    60   103   104    1
    61   103   102    1
    62    15    14    1
    63    18    17    1
    64    49    51    1
    65   121   120    1
    66    69    70    2
    67   107   108    1
    68    78    77    2
    69   104   105    2
    70   119   120   ar
    71   119   117   ar
    72   120   118   ar
    73   102    94   am
    74    79    76    1
    75    14    17    1
    76    14    13    1
    77    77    76    1
    78    77    84   am
    79    87    86    2
    80    76    75    1
    81   117   115   ar
    82   108   110   am
    83   108   109    2
    84    95    94    2
    85    94    93    1
    86    12    11    1
    87    85    86    1
    88    85    84    1
    89    85    88    1
    90   118   116   ar
    91   110   111    1
    92    86    92   am
    93   115   116   ar
    94   115   114    1
    95    89    88    1
    96    89    91    1
    97    10    11   ar
    98    10     8   ar
    99    92    93    1
   100   131   129   ar
   101   131   132   ar
   102    93    96    1
   103   129   127   ar
   104    11     9   ar
   105    88    90    1
   106   132   130   ar
   107   126   127    1
   108   126   123    1
   109   127   128   ar
   110   111   114    1
   111   111   112    1
   112   130   128   ar
   113     8     6   ar
   114     4     3    2
   115    96    97    1
   116     9     7   ar
   117   112   113    2
   118   140   138    1
   119   122   123    1
   120   139   138    1
   121   123   124    1
   122   138   137    1
   123     3     2    1
   124     6     7   ar
   125     6     5    1
   126    97    98   ar
   127    97    99   ar
   128   124   133   am
   129   124   125    2
   130   133   134    1
   131     5     2    1
   132    98   100   ar
   133     2     1    1
   134    99   101   ar
   135   137   134    1
   136   134   135    1
   137   100   101   ar
   138   135   136    2
