@<TRIPOS>MOLECULE
tmp/4m9dA01.pdb
 74 71 0 0 0
SMALL
GASTEIGER

@<TRIPOS>ATOM
      1  N         45.3010  105.1370   20.7180 N.3    11  GLY11      -0.1210
      2  CA        45.4680  105.1220   22.1600 C.3    11  GLY11       0.1956
      3  C         46.1960  106.2770   22.8060 C.2    11  GLY11       0.2612
      4  O         46.3320  106.3190   24.0290 O.2    11  GLY11      -0.2717
      5  N         46.6520  107.2250   22.0010 N.am   12  ASP12      -0.1959
      6  CA        47.4250  108.3220   22.5360 C.3    12  ASP12       0.1840
      7  C         46.6960  109.6260   22.1970 C.2    12  ASP12       0.2622
      8  O         47.2840  110.5530   21.6660 O.2    12  ASP12      -0.2715
      9  CB        48.8090  108.2370   21.8920 C.3    12  ASP12       0.1450
     10  CG        49.7450  109.3230   22.3300 C.2    12  ASP12       0.3671
     11  OD1       49.6050  109.8670   23.4450 O.co2  12  ASP12      -0.2456
     12  OD2       50.6400  109.6200   21.5200 O.co2  12  ASP12      -0.2456
     13  N         45.4010  109.6880   22.5000 N.am   13  GLU13      -0.1963
     14  CA        44.5660  110.7830   22.0000 C.3    13  GLU13       0.1733
     15  C         44.4030  111.9460   22.9770 C.2    13  GLU13       0.2617
     16  O         43.8670  112.9900   22.6060 O.2    13  GLU13      -0.2715
     17  CB        43.1860  110.2510   21.6050 C.3    13  GLU13       0.0429
     18  CG        43.2370  109.1190   20.5730 C.3    13  GLU13       0.1163
     19  CD        43.2770  107.7280   21.1920 C.2    13  GLU13       0.3649
     20  OE1       43.4780  107.6020   22.4260 O.co2  13  GLU13      -0.2457
     21  OE2       43.0930  106.7430   20.4360 O.co2  13  GLU13      -0.2457
     22  N         44.8740  111.7750   24.2080 N.am   14  GLY14      -0.1940
     23  CA        44.6330  112.7680   25.2480 C.3    14  GLY14       0.2014
     24  C         43.2960  112.5180   25.9360 C.2    14  GLY14       0.2639
     25  O         42.6100  113.4580   26.3660 O.2    14  GLY14      -0.2714
     26  N         42.9190  111.2450   26.0410 N.am   15  LYS15      -0.1963
     27  CA        41.6530  110.8680   26.6720 C.3    15  LYS15       0.1728
     28  C         41.5580  111.3950   28.0940 C.2    15  LYS15       0.2616
     29  O         40.4810  111.8010   28.5410 O.2    15  LYS15      -0.2715
     30  CB        41.4900  109.3470   26.6950 C.3    15  LYS15       0.0311
     31  CG        41.2760  108.7230   25.3220 C.3    15  LYS15       0.0038
     32  CD        41.0810  107.2030   25.4200 C.3    15  LYS15       0.0206
     33  CE        42.3090  106.4660   25.9680 C.3    15  LYS15       0.1093
     34  NZ        43.5510  106.7130   25.1480 N.3    15  LYS15      -0.1314
     35  N         42.6920  111.3840   28.7920 N.am   16  GLY16      -0.1955
     36  CA        42.7550  111.8110   30.1790 C.3    16  GLY16       0.1869
     37  C         42.2390  113.2180   30.3970 C.2    16  GLY16       0.2309
     38  O         41.5740  113.4730   31.4010 O.2    16  GLY16      -0.2863
     39  N         46.8750  104.7990   31.2040 N.3    39  GLY39      -0.1210
     40  CA        47.0920  105.7840   32.2420 C.3    39  GLY39       0.1956
     41  C         47.5420  107.1130   31.6990 C.2    39  GLY39       0.2611
     42  O         47.9790  107.2210   30.5500 O.2    39  GLY39      -0.2717
     43  N         47.4110  108.1360   32.5340 N.am   40  HIS40      -0.1975
     44  CA        47.8750  109.4710   32.1960 C.3    40  HIS40       0.1656
     45  C         48.1740  110.1900   33.4950 C.2    40  HIS40       0.2291
     46  O         47.9450  109.6490   34.5780 O.2    40  HIS40      -0.2864
     47  CB        46.8050  110.2390   31.4110 C.3    40  HIS40       0.0771
     48  CG        45.6080  110.6120   32.2240 C.ar   40  HIS40       0.0820
     49  ND1       44.6450  109.7000   32.6080 N.ar   40  HIS40      -0.2267
     50  CD2       45.2090  111.8100   32.7340 C.ar   40  HIS40       0.1154
     51  CE1       43.7130  110.3140   33.3140 C.ar   40  HIS40       0.1986
     52  NE2       44.0290  111.5900   33.4020 N.ar   40  HIS40      -0.2212
     53  N         35.5180  104.9780   31.2680 N.3   216  GLU216     -0.1231
     54  CA        36.8230  105.4940   30.8840 C.3   216  GLU216      0.1699
     55  C         37.5120  104.4800   29.9790 C.2   216  GLU216      0.2592
     56  O         37.9230  103.4100   30.4270 O.2   216  GLU216     -0.2718
     57  CB        37.6560  105.7630   32.1470 C.3   216  GLU216      0.0402
     58  CG        39.0980  106.1610   31.9060 C.3   216  GLU216      0.1161
     59  CD        39.8070  106.5750   33.1900 C.2   216  GLU216      0.3649
     60  OE1       40.9410  107.0920   33.1040 O.co2 216  GLU216     -0.2457
     61  OE2       39.2240  106.3900   34.2810 O.co2 216  GLU216     -0.2457
     62  N         37.6190  104.8060   28.6950 N.am  217  GLY217     -0.1957
     63  CA        38.2670  103.9060   27.7610 C.3   217  GLY217      0.1869
     64  C         39.7780  103.9800   27.8590 C.2   217  GLY217      0.2309
     65  O         40.3480  104.9980   28.2840 O.2   217  GLY217     -0.2863
     66  N         43.5160  113.3950   18.7040 N.3   261  LYS261     -0.1245
     67  CA        44.5090  114.4520   18.6650 C.3   261  LYS261      0.1561
     68  C         44.4620  115.1020   17.2970 C.2   261  LYS261      0.2260
     69  O         43.9780  114.5010   16.3340 O.2   261  LYS261     -0.2867
     70  CB        45.9010  113.8810   18.9160 C.3   261  LYS261      0.0271
     71  CG        46.5340  114.3840   20.1830 C.3   261  LYS261      0.0035
     72  CD        47.6920  113.5100   20.6040 C.3   261  LYS261      0.0206
     73  CE        47.9590  113.6690   22.0870 C.3   261  LYS261      0.1093
     74  NZ        48.9480  112.6740   22.5820 N.3   261  LYS261     -0.1314
@<TRIPOS>BOND
     1    69    68    2
     2    68    67    1
     3    67    66    1
     4    67    70    1
     5    70    71    1
     6    71    72    1
     7    21    19   ar
     8    18    19    1
     9    18    17    1
    10    72    73    1
    11     1     2    1
    12    19    20   ar
    13    12    10   ar
    14    17    14    1
    15     8     7    2
    16     9    10    1
    17     9     6    1
    18    14    13    1
    19    14    15    1
    20     5     6    1
    21     5     3   am
    22    73    74    1
    23     2     3    1
    24     7    13   am
    25     7     6    1
    26    10    11   ar
    27    16    15    2
    28     3     4    2
    29    15    22   am
    30    22    23    1
    31    34    33    1
    32    23    24    1
    33    31    32    1
    34    31    30    1
    35    32    33    1
    36    24    26   am
    37    24    25    2
    38    26    27    1
    39    27    30    1
    40    27    28    1
    41    63    64    1
    42    63    62    1
    43    64    65    2
    44    28    29    2
    45    28    35   am
    46    62    55   am
    47    35    36    1
    48    55    56    2
    49    55    54    1
    50    36    37    1
    51    37    38    2
    52    42    41    2
    53    54    53    1
    54    54    57    1
    55    39    40    1
    56    47    44    1
    57    47    48    1
    58    41    40    1
    59    41    43   am
    60    58    57    1
    61    58    59    1
    62    44    43    1
    63    44    45    1
    64    48    49   ar
    65    48    50   ar
    66    49    51   ar
    67    50    52   ar
    68    60    59   ar
    69    59    61   ar
    70    51    52   ar
    71    45    46    2
