@<TRIPOS>MOLECULE
tmp/4m9dB00.pdb
 177 170 0 0 0
SMALL
GASTEIGER

@<TRIPOS>ATOM
      1  N         21.4390   78.4380   29.7360 N.3    13  TRP13      -0.1227
      2  CA        22.6220   77.8430   29.1070 C.3    13  TRP13       0.1737
      3  C         22.3460   77.3370   27.6860 C.2    13  TRP13       0.2596
      4  O         22.6900   76.1950   27.3460 O.2    13  TRP13      -0.2718
      5  CB        23.1680   76.6820   29.9470 C.3    13  TRP13       0.0564
      6  CG        23.7840   77.0450   31.2840 C.ar   13  TRP13       0.0003
      7  CD1       25.0850   77.4210   31.5130 C.ar   13  TRP13       0.0946
      8  CD2       23.1420   77.0030   32.5730 C.ar   13  TRP13       0.0152
      9  NE1       25.2820   77.6220   32.8650 N.ar   13  TRP13      -0.2442
     10  CE2       24.1140   77.3720   33.5310 C.ar   13  TRP13       0.0810
     11  CE3       21.8450   76.6950   33.0090 C.ar   13  TRP13       0.0012
     12  CZ2       23.8160   77.4560   34.8960 C.ar   13  TRP13       0.0191
     13  CZ3       21.5590   76.7700   34.3560 C.ar   13  TRP13       0.0001
     14  CH2       22.5400   77.1460   35.2890 C.ar   13  TRP13       0.0015
     15  N         21.7450   78.1720   26.8440 N.am   14  GLY14      -0.1942
     16  CA        21.4410   77.7440   25.4810 C.3    14  GLY14       0.2014
     17  C         20.1750   76.8880   25.4620 C.2    14  GLY14       0.2638
     18  O         19.6360   76.5480   26.5110 O.2    14  GLY14      -0.2714
     19  N         19.6950   76.5510   24.2690 N.am   15  ASP15      -0.1971
     20  CA        18.4870   75.7320   24.1240 C.3    15  ASP15       0.1709
     21  C         17.2490   76.3220   24.8070 C.2    15  ASP15       0.2293
     22  O         16.3470   75.5840   25.2110 O.2    15  ASP15      -0.2864
     23  CB        18.7350   74.3130   24.6430 C.3    15  ASP15       0.1436
     24  CG        19.8450   73.6160   23.8920 C.2    15  ASP15       0.3671
     25  OD1       19.7540   73.5340   22.6460 O.co2  15  ASP15      -0.2456
     26  OD2       20.8170   73.1850   24.5460 O.co2  15  ASP15      -0.2456
     27  N         15.5000   80.0500   21.5060 N.3    18  LYS18      -0.1245
     28  CA        15.7560   81.3470   20.8780 C.3    18  LYS18       0.1561
     29  C         15.4510   81.2920   19.3880 C.2    18  LYS18       0.2260
     30  O         15.0600   82.2930   18.7730 O.2    18  LYS18      -0.2867
     31  CB        17.2330   81.7240   21.0040 C.3    18  LYS18       0.0271
     32  CG        17.7990   81.7680   22.3980 C.3    18  LYS18       0.0035
     33  CD        19.2690   82.1700   22.3540 C.3    18  LYS18       0.0206
     34  CE        20.1660   81.0750   21.7860 C.3    18  LYS18       0.1093
     35  NZ        20.0650   79.8170   22.5940 N.3    18  LYS18      -0.1314
     36  N         28.7340   76.2580   16.6640 N.3    40  ASN40      -0.1225
     37  CA        28.2670   75.6390   17.9030 C.3    40  ASN40       0.1785
     38  C         26.7940   75.9810   18.1580 C.2    40  ASN40       0.2597
     39  O         26.1130   75.3300   18.9450 O.2    40  ASN40      -0.2718
     40  CB        29.1580   76.0010   19.1080 C.3    40  ASN40       0.1169
     41  CG        29.3900   77.4950   19.2640 C.2    40  ASN40       0.2627
     42  OD1       29.0230   78.3070   18.4060 O.2    40  ASN40      -0.2716
     43  ND2       29.9970   77.8700   20.3950 N.am   40  ASN40      -0.0877
     44  N         26.3120   76.9810   17.4410 N.am   41  ALA41      -0.1966
     45  CA        24.9100   77.3840   17.4800 C.3    41  ALA41       0.1728
     46  C         24.0700   76.4620   16.6090 C.2    41  ALA41       0.2616
     47  O         24.5980   75.6640   15.8350 O.2    41  ALA41      -0.2715
     48  CB        24.7810   78.8080   17.0050 C.3    41  ALA41       0.0334
     49  N         22.7530   76.5870   16.7110 N.am   42  GLY42      -0.1955
     50  CA        21.8920   75.8050   15.8490 C.3    42  GLY42       0.1869
     51  C         20.4560   75.7120   16.3020 C.2    42  GLY42       0.2309
     52  O         20.1700   75.5840   17.4930 O.2    42  GLY42      -0.2863
     53  N         40.9140   71.6680   20.2170 N.3   115  ASP115     -0.1239
     54  CA        39.7350   71.5910   21.0840 C.3   115  ASP115      0.1674
     55  C         39.6940   70.2090   21.7380 C.2   115  ASP115      0.2266
     56  O         39.5570   70.0800   22.9520 O.2   115  ASP115     -0.2867
     57  CB        38.4890   71.8210   20.2160 C.3   115  ASP115      0.1410
     58  CG        37.2470   72.2230   21.0140 C.2   115  ASP115      0.3668
     59  OD1       37.2830   72.2920   22.2640 O.co2 115  ASP115     -0.2456
     60  OD2       36.2100   72.4740   20.3640 O.co2 115  ASP115     -0.2456
     61  N         35.4270   70.7630   29.9840 N.3   127  ILE127     -0.1231
     62  CA        34.3120   71.6910   29.8700 C.3   127  ILE127      0.1692
     63  C         33.1020   71.0380   29.2180 C.2   127  ILE127      0.2593
     64  O         31.9590   71.3990   29.5080 O.2   127  ILE127     -0.2718
     65  CB        34.7480   72.9330   29.0730 C.3   127  ILE127      0.0266
     66  CG1       35.7930   73.7060   29.8760 C.3   127  ILE127      0.0019
     67  CG2       33.5600   73.8660   28.7350 C.3   127  ILE127      0.0020
     68  CD1       36.4190   74.8300   29.0840 C.3   127  ILE127      0.0001
     69  N         33.3530   70.0580   28.3570 N.am  128  GLY128     -0.1942
     70  CA        32.2860   69.4710   27.5630 C.3   128  GLY128      0.2014
     71  C         31.9520   70.3660   26.3840 C.2   128  GLY128      0.2640
     72  O         30.7820   70.6570   26.1280 O.2   128  GLY128     -0.2714
     73  N         32.9780   70.8070   25.6550 N.am  129  THR129     -0.1936
     74  CA        32.7640   71.7160   24.5300 C.3   129  THR129      0.2028
     75  C         32.0860   70.9760   23.3920 C.2   129  THR129      0.2643
     76  O         31.9920   69.7490   23.4100 O.2   129  THR129     -0.2714
     77  CB        34.0850   72.3020   23.9960 C.3   129  THR129      0.1808
     78  OG1       34.8290   71.2730   23.3410 O.3   129  THR129     -0.2208
     79  CG2       34.9120   72.8920   25.1310 C.3   129  THR129      0.0379
     80  N         31.6370   71.7240   22.3910 N.am  130  THR130     -0.1936
     81  CA        30.9720   71.1340   21.2280 C.3   130  THR130      0.2028
     82  C         31.9600   70.4920   20.2590 C.2   130  THR130      0.2642
     83  O         31.5450   69.9030   19.2600 O.2   130  THR130     -0.2714
     84  CB        30.1220   72.1700   20.4600 C.3   130  THR130      0.1808
     85  OG1       30.9660   73.2100   19.9470 O.3   130  THR130     -0.2208
     86  CG2       29.0530   72.7950   21.3820 C.3   130  THR130      0.0379
     87  N         33.2540   70.6270   20.5450 N.am  131  LYS131     -0.1977
     88  CA        34.3220   70.0270   19.7280 C.3   131  LYS131      0.1596
     89  C         34.3820   70.5990   18.3140 C.2   131  LYS131      0.2287
     90  O         34.8030   69.9200   17.3690 O.2   131  LYS131     -0.2864
     91  CB        34.1910   68.5020   19.6780 C.3   131  LYS131      0.0298
     92  CG        34.1950   67.8330   21.0400 C.3   131  LYS131      0.0038
     93  CD        35.4120   68.1860   21.8480 C.3   131  LYS131      0.0206
     94  CE        35.5250   67.2690   23.0670 C.3   131  LYS131      0.1093
     95  NZ        34.5270   67.5600   24.1290 N.3   131  LYS131     -0.1314
     96  N         35.8020   76.0670   18.6400 N.3   134  ILE134     -0.1231
     97  CA        35.3890   77.4390   18.9790 C.3   134  ILE134      0.1692
     98  C         36.4020   78.1100   19.9140 C.2   134  ILE134      0.2592
     99  O         36.8890   79.2290   19.6510 O.2   134  ILE134     -0.2718
    100  CB        33.9770   77.4530   19.6210 C.3   134  ILE134      0.0266
    101  CG1       32.9670   76.7420   18.7180 C.3   134  ILE134      0.0019
    102  CG2       33.4960   78.8990   19.9070 C.3   134  ILE134      0.0020
    103  CD1       32.7310   77.4640   17.3810 C.3   134  ILE134      0.0001
    104  N         36.7000   77.4280   21.0180 N.am  135  GLY135     -0.1957
    105  CA        37.6150   77.9470   22.0130 C.3   135  GLY135      0.1869
    106  C         38.9770   78.2430   21.4140 C.2   135  GLY135      0.2309
    107  O         39.4940   79.3500   21.5640 O.2   135  GLY135     -0.2863
    108  N         24.0090   80.4790   22.1050 N.3   222  GLN222     -0.1245
    109  CA        24.2810   80.0980   23.4940 C.3   222  GLN222      0.1566
    110  C         23.3510   80.8580   24.4370 C.2   222  GLN222      0.2260
    111  O         22.1830   81.0330   24.1260 O.2   222  GLN222     -0.2867
    112  CB        25.7640   80.2850   23.8480 C.3   222  GLN222      0.0367
    113  CG        26.6770   79.2960   23.0870 C.3   222  GLN222      0.0905
    114  CD        27.0760   79.7780   21.6910 C.2   222  GLN222      0.2608
    115  OE1       27.5100   80.9120   21.5200 O.2   222  GLN222     -0.2717
    116  NE2       26.9530   78.9010   20.6960 N.am  222  GLN222     -0.0878
    117  N         26.3740   80.9230   29.7130 N.3   225  LEU225     -0.1245
    118  CA        27.5600   80.4400   29.0010 C.3   225  LEU225      0.1561
    119  C         28.4930   81.5870   28.5940 C.2   225  LEU225      0.2260
    120  O         29.4420   81.3830   27.8390 O.2   225  LEU225     -0.2867
    121  CB        27.1390   79.6640   27.7420 C.3   225  LEU225      0.0270
    122  CG        26.3930   78.3530   28.0140 C.3   225  LEU225      0.0019
    123  CD1       25.7270   77.8260   26.7400 C.3   225  LEU225      0.0001
    124  CD2       27.3700   77.3040   28.5900 C.3   225  LEU225      0.0001
    125  N         33.0210   76.9230   32.7850 N.3   234  PHE234     -0.1227
    126  CA        32.0500   76.1100   32.0470 C.3   234  PHE234      0.1736
    127  C         31.1610   77.0080   31.2060 C.2   234  PHE234      0.2595
    128  O         29.9660   77.2010   31.4690 O.2   234  PHE234     -0.2718
    129  CB        31.2910   75.1960   33.0110 C.3   234  PHE234      0.0547
    130  CG        32.2030   74.2530   33.7360 C.ar  234  PHE234     -0.0202
    131  CD1       32.6540   73.0930   33.1190 C.ar  234  PHE234     -0.0042
    132  CD2       32.6860   74.5710   35.0050 C.ar  234  PHE234     -0.0042
    133  CE1       33.5300   72.2420   33.7700 C.ar  234  PHE234     -0.0003
    134  CE2       33.5650   73.7220   35.6620 C.ar  234  PHE234     -0.0003
    135  CZ        33.9840   72.5570   35.0470 C.ar  234  PHE234     -0.0000
    136  N         31.7920   77.5840   30.1860 N.am  235  VAL235     -0.1966
    137  CA        31.1830   78.6270   29.3770 C.3   235  VAL235      0.1727
    138  C         31.7140   78.4930   27.9680 C.2   235  VAL235      0.2617
    139  O         32.6650   77.7410   27.7250 O.2   235  VAL235     -0.2715
    140  CB        31.5710   80.0420   29.8940 C.3   235  VAL235      0.0290
    141  CG1       30.8920   80.3390   31.2340 C.3   235  VAL235      0.0023
    142  CG2       33.0950   80.1790   30.0140 C.3   235  VAL235      0.0023
    143  N         31.1290   79.2460   27.0420 N.am  236  THR236     -0.1937
    144  CA        31.7090   79.3680   25.7000 C.3   236  THR236      0.2028
    145  C         32.6060   80.6090   25.6840 C.2   236  THR236      0.2642
    146  O         32.4990   81.4660   26.5730 O.2   236  THR236     -0.2714
    147  CB        30.6100   79.4430   24.6060 C.3   236  THR236      0.1808
    148  OG1       31.1920   79.2620   23.3080 O.3   236  THR236     -0.2208
    149  CG2       29.8690   80.7840   24.6610 C.3   236  THR236      0.0379
    150  N         33.4920   80.7070   24.6930 N.am  237  SER237     -0.1949
    151  CA        34.5330   81.7490   24.7100 C.3   237  SER237      0.1924
    152  C         34.1180   83.0380   24.0010 C.2   237  SER237      0.2314
    153  O         34.9290   83.6770   23.3310 O.2   237  SER237     -0.2863
    154  CB        35.8340   81.2200   24.1010 C.3   237  SER237      0.2116
    155  OG        36.2560   80.0180   24.7450 O.3   237  SER237     -0.2180
    156  N         21.2530   72.0750   30.5050 N.3   269  ARG269     -0.1231
    157  CA        22.6590   72.2570   30.1330 C.3   269  ARG269      0.1694
    158  C         23.0730   71.1180   29.2300 C.2   269  ARG269      0.2592
    159  O         22.7500   69.9690   29.4990 O.2   269  ARG269     -0.2718
    160  CB        23.5820   72.1890   31.3560 C.3   269  ARG269      0.0321
    161  CG        23.6850   73.4220   32.1930 C.3   269  ARG269      0.0489
    162  CD        25.0170   73.3960   32.9490 C.3   269  ARG269      0.2205
    163  NE        26.0700   73.9070   32.0820 N.pl3 269  ARG269     -0.0865
    164  CZ        27.0290   74.7370   32.4740 C.cat 269  ARG269      0.5346
    165  NH1       27.1160   75.1110   33.7540 N.pl3 269  ARG269      0.1354
    166  NH2       27.8990   75.1950   31.5820 N.pl3 269  ARG269      0.1354
    167  N         23.8490   71.4250   28.1970 N.am  270  VAL270     -0.1966
    168  CA        24.3920   70.3920   27.3230 C.3   270  VAL270      0.1727
    169  C         25.7360   69.8770   27.8300 C.2   270  VAL270      0.2616
    170  O         26.0040   68.6800   27.8090 O.2   270  VAL270     -0.2715
    171  CB        24.5620   70.9260   25.8890 C.3   270  VAL270      0.0290
    172  CG1       25.2200   69.8780   24.9940 C.3   270  VAL270      0.0023
    173  CG2       23.1970   71.3400   25.3310 C.3   270  VAL270      0.0023
    174  N         26.5870   70.7890   28.2790 N.am  271  GLY271     -0.1955
    175  CA        27.9310   70.4190   28.6880 C.3   271  GLY271      0.1869
    176  C         28.0860   70.2590   30.1920 C.2   271  GLY271      0.2309
    177  O         27.1000   70.1690   30.9330 O.2   271  GLY271     -0.2863
@<TRIPOS>BOND
     1    47    46    2
     2    50    51    1
     3    50    49    1
     4    51    52    2
     5    46    49   am
     6    46    45    1
     7    36    37    1
     8    48    45    1
     9    90    89    2
    10   103   101    1
    11    44    45    1
    12    44    38   am
    13    37    38    1
    14    37    40    1
    15    38    39    2
    16    89    88    1
    17    42    41    2
    18    96    97    1
    19   101   100    1
    20    30    29    2
    21    97   100    1
    22    97    98    1
    23    40    41    1
    24    83    82    2
    25    41    43   am
    26    29    28    1
    27   100   102    1
    28    99    98    2
    29    91    88    1
    30    91    92    1
    31    88    87    1
    32    98   104   am
    33    85    84    1
    34    57    58    1
    35    57    54    1
    36    53    54    1
    37    82    87   am
    38    82    81    1
    39    60    58   ar
    40    84    81    1
    41    84    86    1
    42   116   114   am
    43    28    31    1
    44    28    27    1
    45    31    32    1
    46    58    59   ar
    47   104   105    1
    48    92    93    1
    49    54    55    1
    50    81    80    1
    51   106   107    2
    52   106   105    1
    53   115   114    2
    54   114   113    1
    55    55    56    2
    56    34    33    1
    57    34    35    1
    58    93    94    1
    59   108   109    1
    60    33    32    1
    61    80    75   am
    62    25    24   ar
    63    94    95    1
    64   113   112    1
    65   148   147    1
    66   153   152    2
    67    78    77    1
    68    75    76    2
    69    75    74    1
    70   109   112    1
    71   109   110    1
    72    24    26   ar
    73    24    23    1
    74    77    74    1
    75    77    79    1
    76   152   151    1
    77   154   151    1
    78   154   155    1
    79    20    19    1
    80    20    23    1
    81    20    21    1
    82   111   110    2
    83    19    17   am
    84    74    73    1
    85   147   149    1
    86   147   144    1
    87   150   151    1
    88   150   145   am
    89    21    22    2
    90   172   171    1
    91   173   171    1
    92    17    16    1
    93    17    18    2
    94    16    15    1
    95    73    71   am
    96   145   144    1
    97   145   146    2
    98   144   143    1
    99   171   168    1
   100    72    71    2
   101    71    70    1
   102   123   122    1
   103    15     3   am
   104   143   138   am
   105   168   169    1
   106   168   167    1
   107     4     3    2
   108    70    69    1
   109     3     2    1
   110   139   138    2
   111   121   122    1
   112   121   118    1
   113   170   169    2
   114   169   174   am
   115   120   119    2
   116   138   137    1
   117   122   124    1
   118   167   158   am
   119   174   175    1
   120    69    63   am
   121   119   118    1
   122   175   176    1
   123    67    65    1
   124   118   117    1
   125    65    62    1
   126    65    66    1
   127    68    66    1
   128     2     1    1
   129     2     5    1
   130    63    64    2
   131    63    62    1
   132   158   159    2
   133   158   157    1
   134   137   140    1
   135   137   136    1
   136    62    61    1
   137   140   142    1
   138   140   141    1
   139     5     6    1
   140   157   156    1
   141   157   160    1
   142   136   127   am
   143   176   177    2
   144   127   128    2
   145   127   126    1
   146     6     7   ar
   147     6     8   ar
   148   160   161    1
   149     7     9   ar
   150   166   164    1
   151   126   125    1
   152   126   129    1
   153   163   164    2
   154   163   162    1
   155   161   162    1
   156   164   165    1
   157     8    11   ar
   158     8    10   ar
   159     9    10   ar
   160    11    13   ar
   161   129   130    1
   162   131   130   ar
   163   131   133   ar
   164    10    12   ar
   165   130   132   ar
   166   133   135   ar
   167    13    14   ar
   168    12    14   ar
   169   132   134   ar
   170   135   134   ar
