@<TRIPOS>MOLECULE
tmp/4m9dB01.pdb
 87 79 0 0 0
SMALL
GASTEIGER

@<TRIPOS>ATOM
      1  N         19.6950   76.5510   24.2690 N.3    15  ASP15      -0.1239
      2  CA        18.4870   75.7320   24.1240 C.3    15  ASP15       0.1674
      3  C         17.2490   76.3220   24.8070 C.2    15  ASP15       0.2266
      4  O         16.3470   75.5840   25.2110 O.2    15  ASP15      -0.2867
      5  CB        18.7350   74.3130   24.6430 C.3    15  ASP15       0.1410
      6  CG        19.8450   73.6160   23.8920 C.2    15  ASP15       0.3668
      7  OD1       19.7540   73.5340   22.6460 O.co2  15  ASP15      -0.2456
      8  OD2       20.8170   73.1850   24.5460 O.co2  15  ASP15      -0.2456
      9  N         28.7340   76.2580   16.6640 N.3    40  ASN40      -0.1225
     10  CA        28.2670   75.6390   17.9030 C.3    40  ASN40       0.1785
     11  C         26.7940   75.9810   18.1580 C.2    40  ASN40       0.2597
     12  O         26.1130   75.3300   18.9450 O.2    40  ASN40      -0.2718
     13  CB        29.1580   76.0010   19.1080 C.3    40  ASN40       0.1169
     14  CG        29.3900   77.4950   19.2640 C.2    40  ASN40       0.2627
     15  OD1       29.0230   78.3070   18.4060 O.2    40  ASN40      -0.2716
     16  ND2       29.9970   77.8700   20.3950 N.am   40  ASN40      -0.0877
     17  N         26.3120   76.9810   17.4410 N.am   41  ALA41      -0.1979
     18  CA        24.9100   77.3840   17.4800 C.3    41  ALA41       0.1597
     19  C         24.0700   76.4620   16.6090 C.2    41  ALA41       0.2287
     20  O         24.5980   75.6640   15.8350 O.2    41  ALA41      -0.2864
     21  CB        24.7810   78.8080   17.0050 C.3    41  ALA41       0.0319
     22  N         23.3740   76.5780   11.4040 N.3    55  HIS55      -0.1241
     23  CA        24.3400   76.7030   12.4940 C.3    55  HIS55       0.1621
     24  C         25.0540   78.0480   12.4520 C.2    55  HIS55       0.2264
     25  O         25.3530   78.6350   13.4930 O.2    55  HIS55      -0.2867
     26  CB        25.3740   75.5730   12.4310 C.3    55  HIS55       0.0745
     27  CG        24.7910   74.2050   12.6120 C.ar   55  HIS55       0.0817
     28  ND1       24.4510   73.6950   13.8440 N.ar   55  HIS55      -0.2268
     29  CD2       24.5100   73.2300   11.7090 C.ar   55  HIS55       0.1154
     30  CE1       23.9750   72.4730   13.6990 C.ar   55  HIS55       0.1986
     31  NE2       24.0000   72.1630   12.4180 N.ar   55  HIS55      -0.2212
     32  N         31.6370   71.7240   22.3910 N.3   130  THR130     -0.1218
     33  CA        30.9720   71.1340   21.2280 C.3   130  THR130      0.1862
     34  C         31.9600   70.4920   20.2590 C.2   130  THR130      0.2287
     35  O         31.5450   69.9030   19.2600 O.2   130  THR130     -0.2866
     36  CB        30.1220   72.1700   20.4600 C.3   130  THR130      0.1770
     37  OG1       30.9660   73.2100   19.9470 O.3   130  THR130     -0.2211
     38  CG2       29.0530   72.7950   21.3820 C.3   130  THR130      0.0375
     39  N         33.9750   71.8550   18.1780 N.3   132  LYS132     -0.1245
     40  CA        33.9360   72.5030   16.8770 C.3   132  LYS132      0.1561
     41  C         35.0730   73.5060   16.6960 C.2   132  LYS132      0.2260
     42  O         35.1110   74.2420   15.7160 O.2   132  LYS132     -0.2867
     43  CB        32.5640   73.1430   16.6500 C.3   132  LYS132      0.0271
     44  CG        31.4830   72.0730   16.4250 C.3   132  LYS132      0.0035
     45  CD        30.0690   72.6250   16.3840 C.3   132  LYS132      0.0206
     46  CE        29.0930   71.5090   15.9700 C.3   132  LYS132      0.1093
     47  NZ        27.7090   72.0400   15.7940 N.3   132  LYS132     -0.1314
     48  N         23.8490   71.4250   28.1970 N.3   270  VAL270     -0.1245
     49  CA        24.3920   70.3920   27.3230 C.3   270  VAL270      0.1561
     50  C         25.7360   69.8770   27.8300 C.2   270  VAL270      0.2260
     51  O         26.0040   68.6800   27.8090 O.2   270  VAL270     -0.2867
     52  CB        24.5620   70.9260   25.8890 C.3   270  VAL270      0.0252
     53  CG1       25.2200   69.8780   24.9940 C.3   270  VAL270      0.0019
     54  CG2       23.1970   71.3400   25.3310 C.3   270  VAL270      0.0019
     55  N         20.5370   65.7500   22.0530 N.3   295  GLY295     -0.1210
     56  CA        21.3010   66.2700   20.9310 C.3   295  GLY295      0.1956
     57  C         20.6830   65.8310   19.6110 C.2   295  GLY295      0.2612
     58  O         20.4010   64.6460   19.4090 O.2   295  GLY295     -0.2717
     59  N         20.4640   66.7940   18.7200 N.am  296  THR296     -0.1952
     60  CA        19.8470   66.5480   17.4150 C.3   296  THR296      0.1897
     61  C         20.6000   65.4870   16.6210 C.2   296  THR296      0.2313
     62  O         19.9970   64.6420   15.9540 O.2   296  THR296     -0.2863
     63  CB        19.8160   67.8380   16.5710 C.3   296  THR296      0.1794
     64  OG1       19.1010   68.8600   17.2750 O.3   296  THR296     -0.2208
     65  CG2       19.1460   67.5900   15.2270 C.3   296  THR296      0.0378
     66  N         22.3640   62.4850   22.4960 N.3   300  ARG300     -0.1245
     67  CA        22.8500   62.5300   23.8660 C.3   300  ARG300      0.1563
     68  C         21.8780   63.3570   24.6840 C.2   300  ARG300      0.2260
     69  O         21.5200   64.4660   24.2840 O.2   300  ARG300     -0.2867
     70  CB        24.2520   63.1350   23.9360 C.3   300  ARG300      0.0307
     71  CG        24.9380   63.0080   25.2960 C.3   300  ARG300      0.0489
     72  CD        26.4380   63.1060   25.1840 C.3   300  ARG300      0.2205
     73  NE        26.8620   64.3220   24.4810 N.pl3 300  ARG300     -0.0865
     74  CZ        26.8890   65.5380   25.0180 C.cat 300  ARG300      0.5346
     75  NH1       26.5040   65.7310   26.2770 N.pl3 300  ARG300      0.1354
     76  NH2       27.3810   66.5530   24.3160 N.pl3 300  ARG300      0.1354
     77  N         20.3930   65.8840   27.2870 N.3   302  ARG302     -0.1245
     78  CA        20.8050   67.0730   28.0000 C.3   302  ARG302      0.1563
     79  C         20.4300   66.9480   29.4670 C.2   302  ARG302      0.2260
     80  O         19.5260   66.1960   29.8260 O.2   302  ARG302     -0.2867
     81  CB        20.1120   68.2950   27.4000 C.3   302  ARG302      0.0307
     82  CG        20.4010   68.4590   25.9270 C.3   302  ARG302      0.0489
     83  CD        19.7620   69.7130   25.3730 C.3   302  ARG302      0.2205
     84  NE        19.9530   69.7920   23.9260 N.pl3 302  ARG302     -0.0865
     85  CZ        19.0110   70.1520   23.0630 C.cat 302  ARG302      0.5346
     86  NH1       17.7970   70.4690   23.4950 N.pl3 302  ARG302      0.1354
     87  NH2       19.2880   70.1990   21.7680 N.pl3 302  ARG302      0.1354
@<TRIPOS>BOND
     1    22    23    1
     2    29    31   ar
     3    29    27   ar
     4    31    30   ar
     5    26    23    1
     6    26    27    1
     7    24    23    1
     8    24    25    2
     9    27    28   ar
    10    30    28   ar
    11    65    63    1
    12    42    41    2
    13    47    46    1
    14    20    19    2
    15    62    61    2
    16    46    45    1
    17    45    44    1
    18    44    43    1
    19    63    64    1
    20    63    60    1
    21    19    18    1
    22    61    60    1
    23    43    40    1
    24     9    10    1
    25    41    40    1
    26    40    39    1
    27    21    18    1
    28    60    59    1
    29    17    18    1
    30    17    11   am
    31    10    11    1
    32    10    13    1
    33    11    12    2
    34    15    14    2
    35    59    57   am
    36    13    14    1
    37    35    34    2
    38    14    16   am
    39    58    57    2
    40    57    56    1
    41    37    36    1
    42    34    33    1
    43    36    33    1
    44    36    38    1
    45    56    55    1
    46    33    32    1
    47    87    85    1
    48    66    67    1
    49     7     6   ar
    50    85    86    1
    51    85    84    2
    52    67    70    1
    53    67    68    1
    54     6     8   ar
    55     6     5    1
    56    84    83    1
    57    70    71    1
    58     2     1    1
    59     2     5    1
    60     2     3    1
    61    69    68    2
    62    76    74    1
    63    73    74    2
    64    73    72    1
    65     3     4    2
    66    53    52    1
    67    74    75    1
    68    72    71    1
    69    54    52    1
    70    83    82    1
    71    52    49    1
    72    82    81    1
    73    77    78    1
    74    49    50    1
    75    49    48    1
    76    81    78    1
    77    51    50    2
    78    78    79    1
    79    79    80    2
