@<TRIPOS>MOLECULE
tmp/4m9hA00.pdb
 80 74 0 0 0
SMALL
GASTEIGER

@<TRIPOS>ATOM
      1  N         10.4950   -3.7260   22.6830 N.3   139  ARG139     -0.1245
      2  CA         9.6550   -3.7980   21.5000 C.3   139  ARG139      0.1563
      3  C          8.1940   -3.8360   21.9370 C.2   139  ARG139      0.2260
      4  O          7.8950   -4.0710   23.1090 O.2   139  ARG139     -0.2867
      5  CB         9.9910   -5.0460   20.6830 C.3   139  ARG139      0.0307
      6  CG        11.4350   -5.1120   20.1990 C.3   139  ARG139      0.0489
      7  CD        11.6570   -4.2230   18.9880 C.3   139  ARG139      0.2205
      8  NE        10.8280   -4.6370   17.8610 N.pl3 139  ARG139     -0.0865
      9  CZ        10.7710   -3.9970   16.6980 C.cat 139  ARG139      0.5346
     10  NH1       11.5000   -2.9060   16.5020 N.pl3 139  ARG139      0.1354
     11  NH2        9.9840   -4.4490   15.7310 N.pl3 139  ARG139      0.1354
     12  N          3.7980    2.7540    9.7710 N.3   169  GLY169     -0.1210
     13  CA         5.0100    2.0650   10.1730 C.3   169  GLY169      0.1956
     14  C          4.9540    0.5690    9.9320 C.2   169  GLY169      0.2612
     15  O          4.1920    0.0900    9.0910 O.2   169  GLY169     -0.2717
     16  N          5.7680   -0.1680   10.6800 N.am  170  SER170     -0.1952
     17  CA         5.8470   -1.6170   10.5420 C.3   170  SER170      0.1924
     18  C          4.5420   -2.3090   10.9300 C.2   170  SER170      0.2314
     19  O          4.2360   -3.3900   10.4230 O.2   170  SER170     -0.2863
     20  CB         6.9930   -2.1700   11.3880 C.3   170  SER170      0.2116
     21  OG         6.8270   -1.8210   12.7530 O.3   170  SER170     -0.2180
     22  N          2.4300   -2.7240    8.0700 N.3   173  ARG173     -0.1245
     23  CA         3.0200   -3.7260    7.1900 C.3   173  ARG173      0.1563
     24  C          2.7890   -5.1440    7.7090 C.2   173  ARG173      0.2260
     25  O          3.1080   -6.1190    7.0300 O.2   173  ARG173     -0.2867
     26  CB         4.5160   -3.4710    6.9930 C.3   173  ARG173      0.0307
     27  CG         4.8400   -2.1540    6.3070 C.3   173  ARG173      0.0489
     28  CD         6.2370   -2.1780    5.7070 C.3   173  ARG173      0.2205
     29  NE         7.2410   -2.6270    6.6670 N.pl3 173  ARG173     -0.0865
     30  CZ         7.9440   -1.8170    7.4530 C.cat 173  ARG173      0.5346
     31  NH1        7.7560   -0.5060    7.3960 N.pl3 173  ARG173      0.1354
     32  NH2        8.8360   -2.3190    8.2960 N.pl3 173  ARG173      0.1354
     33  N          6.6440   -3.9390   17.0640 N.3   178  SER178     -0.1202
     34  CA         6.9770   -2.5930   16.6100 C.3   178  SER178      0.2020
     35  C          7.7930   -1.8340   17.6520 C.2   178  SER178      0.2619
     36  O          7.7270   -2.1340   18.8440 O.2   178  SER178     -0.2717
     37  CB         5.7050   -1.8130   16.2660 C.3   178  SER178      0.2103
     38  OG         5.0650   -2.3590   15.1250 O.3   178  SER178     -0.2182
     39  N          8.5600   -0.8500   17.1920 N.am  179  GLY179     -0.1942
     40  CA         9.3900   -0.0480   18.0720 C.3   179  GLY179      0.2014
     41  C          8.6210    1.0990   18.7020 C.2   179  GLY179      0.2638
     42  O          8.9450    1.5470   19.8030 O.2   179  GLY179     -0.2714
     43  N          7.6010    1.5750   17.9950 N.am  180  ASP180     -0.1971
     44  CA         6.7410    2.6420   18.4920 C.3   180  ASP180      0.1709
     45  C          5.4430    2.7000   17.6950 C.2   180  ASP180      0.2293
     46  O          5.2420    1.9170   16.7680 O.2   180  ASP180     -0.2864
     47  CB         7.4570    3.9980   18.4410 C.3   180  ASP180      0.1436
     48  CG         8.0050    4.3320   17.0570 C.2   180  ASP180      0.3671
     49  OD1        7.5160    3.7780   16.0490 O.co2 180  ASP180     -0.2456
     50  OD2        8.9320    5.1650   16.9780 O.co2 180  ASP180     -0.2456
     51  N          3.2290    5.1020   15.2370 N.3   182  ASP182     -0.1239
     52  CA         3.2530    6.2870   14.3920 C.3   182  ASP182      0.1674
     53  C          1.8660    6.5020   13.8010 C.2   182  ASP182      0.2266
     54  O          1.3840    5.6870   13.0150 O.2   182  ASP182     -0.2867
     55  CB         4.2860    6.1190   13.2750 C.3   182  ASP182      0.1410
     56  CG         4.8120    7.4450   12.7600 C.2   182  ASP182      0.3668
     57  OD1        4.9800    8.3770   13.5750 O.co2 182  ASP182     -0.2456
     58  OD2        5.0620    7.5560   11.5410 O.co2 182  ASP182     -0.2456
     59  N          1.0970   12.8260   13.5720 N.3   238  ARG238     -0.1245
     60  CA         1.3250   13.8570   12.5660 C.3   238  ARG238      0.1563
     61  C          0.0110   14.3090   11.9370 C.2   238  ARG238      0.2260
     62  O         -0.7850   13.4840   11.4880 O.2   238  ARG238     -0.2867
     63  CB         2.2500   13.3350   11.4670 C.3   238  ARG238      0.0307
     64  CG         3.4170   12.5040   11.9640 C.3   238  ARG238      0.0489
     65  CD         4.1610   11.8760   10.7970 C.3   238  ARG238      0.2205
     66  NE         5.0560   10.8050   11.2240 N.pl3 238  ARG238     -0.0865
     67  CZ         6.3490   10.9670   11.4830 C.cat 238  ARG238      0.5346
     68  NH1        6.9090   12.1630   11.3560 N.pl3 238  ARG238      0.1354
     69  NH2        7.0850    9.9310   11.8640 N.pl3 238  ARG238      0.1354
     70  N          5.1440    6.8970    5.2160 N.3   252  PHE252     -0.1241
     71  CA         5.3520    6.5120    6.6090 C.3   252  PHE252      0.1605
     72  C          4.9900    5.0560    6.9010 C.2   252  PHE252      0.2264
     73  O          5.0710    4.6110    8.0450 O.2   252  PHE252     -0.2867
     74  CB         4.6090    7.4600    7.5570 C.3   252  PHE252      0.0534
     75  CG         5.2010    8.8390    7.6160 C.ar  252  PHE252     -0.0203
     76  CD1        6.4300    9.0520    8.2160 C.ar  252  PHE252     -0.0042
     77  CD2        4.5300    9.9210    7.0730 C.ar  252  PHE252     -0.0042
     78  CE1        6.9800   10.3180    8.2690 C.ar  252  PHE252     -0.0003
     79  CE2        5.0740   11.1880    7.1230 C.ar  252  PHE252     -0.0003
     80  CZ         6.3000   11.3880    7.7220 C.ar  252  PHE252     -0.0000
@<TRIPOS>BOND
     1    70    71    1
     2    28    27    1
     3    28    29    1
     4    27    26    1
     5    71    72    1
     6    71    74    1
     7    29    30    2
     8    72    73    2
     9    26    23    1
    10    25    24    2
    11    77    79   ar
    12    77    75   ar
    13    79    80   ar
    14    23    24    1
    15    23    22    1
    16    31    30    1
    17    30    32    1
    18    74    75    1
    19    75    76   ar
    20    80    78   ar
    21    76    78   ar
    22    15    14    2
    23    12    13    1
    24    14    13    1
    25    14    16   am
    26    19    18    2
    27    17    16    1
    28    17    18    1
    29    17    20    1
    30    65    66    1
    31    65    64    1
    32    66    67    2
    33    68    67    1
    34    20    21    1
    35    63    64    1
    36    63    60    1
    37    67    69    1
    38    62    61    2
    39    58    56   ar
    40    61    60    1
    41    60    59    1
    42    56    55    1
    43    56    57   ar
    44    54    53    2
    45    55    52    1
    46    53    52    1
    47    52    51    1
    48    38    37    1
    49    11     9    1
    50    49    48   ar
    51    37    34    1
    52    10     9    1
    53    34    33    1
    54    34    35    1
    55     9     8    2
    56    46    45    2
    57    50    48   ar
    58    48    47    1
    59    39    35   am
    60    39    40    1
    61    35    36    2
    62    45    44    1
    63     8     7    1
    64    43    44    1
    65    43    41   am
    66    40    41    1
    67    47    44    1
    68    41    42    2
    69     7     6    1
    70     6     5    1
    71     5     2    1
    72     2     3    1
    73     2     1    1
    74     3     4    2
