@<TRIPOS>MOLECULE
tmp/4m9sC00.pdb
 132 127 0 0 0
SMALL
GASTEIGER

@<TRIPOS>ATOM
      1  N         71.4300  -41.7610  -27.1450 N.3   366  GLN366     -0.1245
      2  CA        72.1730  -40.8830  -28.0440 C.3   366  GLN366      0.1566
      3  C         73.6340  -40.8630  -27.6070 C.2   366  GLN366      0.2260
      4  O         74.5290  -41.3620  -28.2890 O.2   366  GLN366     -0.2867
      5  CB        71.5990  -39.4780  -27.8980 C.3   366  GLN366      0.0367
      6  CG        72.0580  -38.3540  -28.7890 C.3   366  GLN366      0.0905
      7  CD        71.0890  -38.1470  -29.8910 C.2   366  GLN366      0.2608
      8  OE1       70.5950  -39.1090  -30.4570 O.2   366  GLN366     -0.2717
      9  NE2       70.7140  -36.8780  -30.1400 N.am  366  GLN366     -0.0878
     10  N         76.1360  -43.6460  -27.4730 N.3   369  VAL369     -0.1231
     11  CA        76.5720  -44.0790  -28.8040 C.3   369  VAL369      0.1693
     12  C         77.6030  -43.0370  -29.2470 C.2   369  VAL369      0.2594
     13  O         78.4880  -43.3540  -30.0500 O.2   369  VAL369     -0.2718
     14  CB        75.3580  -44.3030  -29.7990 C.3   369  VAL369      0.0266
     15  CG1       75.2970  -43.3050  -30.9330 C.3   369  VAL369      0.0020
     16  CG2       75.4190  -45.6910  -30.3540 C.3   369  VAL369      0.0020
     17  N         77.4510  -41.7880  -28.7790 N.am  370  GLU370     -0.1934
     18  CA        78.4210  -40.7260  -29.1020 C.3   370  GLU370      0.1818
     19  C         79.7840  -41.0240  -28.4260 C.2   370  GLU370      0.2332
     20  O         80.8110  -40.7810  -29.0390 O.2   370  GLU370     -0.2860
     21  CB        77.8820  -39.2990  -28.7630 C.2   370  GLU370      0.0097
     22  CG        76.4260  -38.9580  -29.2650 C.2   370  GLU370      0.0837
     23  CD        75.9660  -37.4390  -29.1940 C.2   370  GLU370      0.3877
     24  OE1       75.0070  -37.0660  -29.9320 O.co2 370  GLU370     -0.2406
     25  OE2       76.3700  -36.6980  -28.2420 O.co2 370  GLU370     -0.2406
     26  N         84.8690  -45.4330  -32.4480 N.3   374  ASP374     -0.1239
     27  CA        84.3290  -45.2490  -33.8110 C.3   374  ASP374      0.1674
     28  C         83.8040  -46.5840  -34.4490 C.2   374  ASP374      0.2266
     29  O         82.6840  -46.6790  -35.0040 O.2   374  ASP374     -0.2867
     30  CB        85.4770  -44.6430  -34.6630 C.3   374  ASP374      0.1410
     31  CG        85.0630  -43.3950  -35.4730 C.2   374  ASP374      0.3668
     32  OD1       85.9710  -42.6040  -35.8520 O.co2 374  ASP374     -0.2456
     33  OD2       83.8420  -43.1410  -35.6220 O.co2 374  ASP374     -0.2456
     34  N         80.9310  -48.0990  -32.7140 N.3   377  ARG377     -0.1231
     35  CA        79.8020  -47.3730  -33.2680 C.3   377  ARG377      0.1694
     36  C         79.3490  -48.0830  -34.4500 C.2   377  ARG377      0.2592
     37  O         78.1500  -48.1370  -34.6830 O.2   377  ARG377     -0.2718
     38  CB        80.1740  -45.9750  -33.6810 C.3   377  ARG377      0.0321
     39  CG        79.0530  -45.0180  -33.7860 C.3   377  ARG377      0.0489
     40  CD        79.6890  -43.6560  -33.9370 C.3   377  ARG377      0.2205
     41  NE        80.9730  -43.6480  -33.2210 N.pl3 377  ARG377     -0.0865
     42  CZ        81.5600  -42.5540  -32.7350 C.cat 377  ARG377      0.5346
     43  NH1       80.9770  -41.3740  -32.8940 N.pl3 377  ARG377      0.1354
     44  NH2       82.7290  -42.6320  -32.0940 N.pl3 377  ARG377      0.1354
     45  N         80.3070  -48.7420  -35.1040 N.am  378  SER378     -0.1952
     46  CA        80.0040  -49.5140  -36.3180 C.3   378  SER378      0.1924
     47  C         79.2690  -50.8330  -36.0140 C.2   378  SER378      0.2314
     48  O         78.1510  -51.0920  -36.5300 O.2   378  SER378     -0.2863
     49  CB        81.3050  -49.7890  -37.1030 C.3   378  SER378      0.2116
     50  OG        81.1000  -50.5310  -38.2890 O.3   378  SER378     -0.2180
     51  N         77.6850  -51.6800  -33.4620 N.3   380  LEU380     -0.1231
     52  CA        76.4050  -51.3740  -32.8990 C.3   380  LEU380      0.1693
     53  C         75.4980  -50.9620  -34.0350 C.2   380  LEU380      0.2592
     54  O         74.3280  -51.3090  -34.0400 O.2   380  LEU380     -0.2718
     55  CB        76.5560  -50.3350  -31.7950 C.3   380  LEU380      0.0284
     56  CG        75.4150  -50.1340  -30.8030 C.3   380  LEU380      0.0019
     57  CD1       75.8440  -49.0630  -29.9160 C.3   380  LEU380      0.0001
     58  CD2       74.1800  -49.6680  -31.4680 C.3   380  LEU380      0.0001
     59  N         75.9970  -50.1480  -34.9450 N.am  381  ALA381     -0.1966
     60  CA        75.1010  -49.5780  -35.9420 C.3   381  ALA381      0.1728
     61  C         74.4960  -50.7010  -36.7640 C.2   381  ALA381      0.2616
     62  O         73.3740  -50.5840  -37.2820 O.2   381  ALA381     -0.2715
     63  CB        75.8410  -48.6160  -36.8450 C.3   381  ALA381      0.0334
     64  N         75.2510  -51.8070  -36.8380 N.am  382  PHE382     -0.1974
     65  CA        74.8180  -52.9820  -37.6120 C.3   382  PHE382      0.1639
     66  C         73.9900  -54.0340  -36.9130 C.2   382  PHE382      0.2290
     67  O         73.0790  -54.5800  -37.5390 O.2   382  PHE382     -0.2864
     68  CB        76.0220  -53.7050  -38.2000 C.3   382  PHE382      0.0560
     69  CG        76.4120  -53.2110  -39.5140 C.ar  382  PHE382     -0.0200
     70  CD1       75.4360  -52.8830  -40.4350 C.ar  382  PHE382     -0.0042
     71  CD2       77.7200  -53.1230  -39.8700 C.ar  382  PHE382     -0.0042
     72  CE1       75.7650  -52.4520  -41.7030 C.ar  382  PHE382     -0.0003
     73  CE2       78.0650  -52.6950  -41.1310 C.ar  382  PHE382     -0.0003
     74  CZ        77.0780  -52.3520  -42.0560 C.ar  382  PHE382     -0.0000
     75  N         65.6620  -48.4170  -30.7660 N.3   438  PHE438     -0.1227
     76  CA        66.4780  -47.2570  -30.7750 C.3   438  PHE438      0.1736
     77  C         67.1130  -47.1810  -32.1450 C.2   438  PHE438      0.2595
     78  O         66.7450  -46.3180  -32.9600 O.2   438  PHE438     -0.2718
     79  CB        67.5600  -47.3140  -29.7070 C.3   438  PHE438      0.0547
     80  CG        68.5310  -46.1840  -29.8080 C.ar  438  PHE438     -0.0202
     81  CD1       68.0750  -44.8580  -29.8740 C.ar  438  PHE438     -0.0042
     82  CD2       69.9080  -46.4680  -29.8800 C.ar  438  PHE438     -0.0042
     83  CE1       68.9650  -43.8430  -30.0050 C.ar  438  PHE438     -0.0003
     84  CE2       70.8140  -45.4800  -30.0000 C.ar  438  PHE438     -0.0003
     85  CZ        70.3600  -44.1540  -30.0680 C.ar  438  PHE438     -0.0000
     86  N         67.9170  -48.2090  -32.4450 N.am  439  LEU439     -0.1980
     87  CA        68.6240  -48.3410  -33.7110 C.3   439  LEU439      0.1596
     88  C         67.7770  -48.3660  -34.9840 C.2   439  LEU439      0.2287
     89  O         68.1680  -47.6820  -35.9150 O.2   439  LEU439     -0.2864
     90  CB        69.5200  -49.6030  -33.6470 C.3   439  LEU439      0.0297
     91  CG        70.4460  -49.8540  -32.4580 C.3   439  LEU439      0.0022
     92  CD1       71.4340  -50.9350  -32.6940 C.3   439  LEU439      0.0001
     93  CD2       71.1880  -48.6130  -32.2540 C.3   439  LEU439      0.0001
     94  N         64.7640  -46.6860  -36.0760 N.3   441  HIS441     -0.1226
     95  CA        64.5750  -45.3080  -36.5840 C.3   441  HIS441      0.1752
     96  C         65.7500  -44.3570  -36.2580 C.2   441  HIS441      0.2596
     97  O         65.5490  -43.1400  -36.1770 O.2   441  HIS441     -0.2718
     98  CB        63.3410  -44.6910  -35.9230 C.3   441  HIS441      0.0759
     99  CG        62.1480  -45.5980  -35.8550 C.ar  441  HIS441      0.0818
    100  ND1       62.2390  -46.9440  -35.5650 N.ar  441  HIS441     -0.2268
    101  CD2       60.8260  -45.3350  -35.9830 C.ar  441  HIS441      0.1154
    102  CE1       61.0300  -47.4760  -35.5560 C.ar  441  HIS441      0.1986
    103  NE2       60.1560  -46.5230  -35.8150 N.ar  441  HIS441     -0.2212
    104  N         66.9700  -44.8860  -36.2320 N.am  442  VAL442     -0.1966
    105  CA        68.1620  -44.1470  -35.8420 C.3   442  VAL442      0.1727
    106  C         69.3570  -44.5440  -36.6930 C.2   442  VAL442      0.2616
    107  O         70.2200  -43.7210  -36.9480 O.2   442  VAL442     -0.2715
    108  CB        68.4780  -44.3100  -34.3830 C.3   442  VAL442      0.0290
    109  CG1       69.9450  -44.5900  -34.1630 C.3   442  VAL442      0.0023
    110  CG2       68.1150  -43.0440  -33.6540 C.3   442  VAL442      0.0023
    111  N         69.5000  -45.8130  -37.0550 N.am  443  VAL443     -0.1963
    112  CA        70.6130  -46.0950  -37.9420 C.3   443  VAL443      0.1727
    113  C         70.1560  -45.6290  -39.3420 C.2   443  VAL443      0.2616
    114  O         68.9430  -45.5340  -39.6270 O.2   443  VAL443     -0.2715
    115  CB        71.0200  -47.5820  -37.9970 C.3   443  VAL443      0.0290
    116  CG1       71.7440  -47.9940  -36.7220 C.3   443  VAL443      0.0023
    117  CG2       69.8130  -48.4510  -38.2040 C.3   443  VAL443      0.0023
    118  N         71.1430  -45.3590  -40.1960 N.am  444  ASP444     -0.1971
    119  CA        70.9750  -44.8760  -41.5740 C.3   444  ASP444      0.1709
    120  C         70.0520  -45.8130  -42.4020 C.2   444  ASP444      0.2293
    121  O         70.4280  -46.9520  -42.6600 O.2   444  ASP444     -0.2864
    122  CB        72.3800  -44.7690  -42.1810 C.3   444  ASP444      0.1436
    123  CG        72.4310  -44.0080  -43.4960 C.2   444  ASP444      0.3671
    124  OD1       71.7390  -42.9640  -43.6290 O.co2 444  ASP444     -0.2456
    125  OD2       73.2180  -44.4300  -44.3750 O.co2 444  ASP444     -0.2456
    126  N         71.7630  -48.5440  -44.5510 N.3   447  THR447     -0.1218
    127  CA        72.5900  -49.4770  -43.7900 C.3   447  THR447      0.1862
    128  C         71.7410  -50.6410  -43.1920 C.2   447  THR447      0.2287
    129  O         72.2390  -51.7640  -42.9710 O.2   447  THR447     -0.2866
    130  CB        73.3370  -48.6690  -42.7090 C.3   447  THR447      0.1770
    131  OG1       74.0410  -47.6040  -43.3550 O.3   447  THR447     -0.2211
    132  CG2       74.3100  -49.5070  -41.9070 C.3   447  THR447      0.0375
@<TRIPOS>BOND
     1   126   127    1
     2   125   123   ar
     3   127   128    1
     4   127   130    1
     5   124   123   ar
     6   123   122    1
     7   131   130    1
     8   128   129    2
     9   130   132    1
    10   121   120    2
    11   120   119    1
    12   122   119    1
    13    74    72   ar
    14    74    73   ar
    15    72    70   ar
    16   119   118    1
    17    73    71   ar
    18    70    69   ar
    19   118   113   am
    20    71    69   ar
    21   114   113    2
    22    69    68    1
    23   113   112    1
    24    50    49    1
    25   117   115    1
    26    68    65    1
    27   115   112    1
    28   115   116    1
    29   112   111    1
    30    65    66    1
    31    65    64    1
    32    67    66    2
    33    62    61    2
    34    49    46    1
    35   111   106   am
    36   107   106    2
    37    63    60    1
    38    64    61   am
    39    61    60    1
    40   106   105    1
    41    95    96    1
    42    95    94    1
    43    95    98    1
    44    48    47    2
    45    46    47    1
    46    46    45    1
    47    96   104   am
    48    96    97    2
    49   104   105    1
    50   101    99   ar
    51   101   103   ar
    52    60    59    1
    53    98    99    1
    54    89    88    2
    55    99   100   ar
    56    32    31   ar
    57   105   108    1
    58   103   102   ar
    59    33    31   ar
    60   100   102   ar
    61    31    30    1
    62    45    36   am
    63    29    28    2
    64    88    87    1
    65    59    53   am
    66    37    36    2
    67    30    27    1
    68    36    35    1
    69    28    27    1
    70   108   109    1
    71   108   110    1
    72    54    53    2
    73    53    52    1
    74    40    39    1
    75    40    41    1
    76    27    26    1
    77    39    38    1
    78    87    90    1
    79    87    86    1
    80    38    35    1
    81    90    91    1
    82    51    52    1
    83    35    34    1
    84    41    42    2
    85    78    77    2
    86    52    55    1
    87    43    42    1
    88    42    44    1
    89    92    91    1
    90    91    93    1
    91    86    77   am
    92    77    76    1
    93    55    56    1
    94    58    56    1
    95    15    14    1
    96    56    57    1
    97    76    75    1
    98    76    79    1
    99     8     7    2
   100    16    14    1
   101     9     7   am
   102    85    83   ar
   103    85    84   ar
   104    13    12    2
   105    83    81   ar
   106    84    82   ar
   107    24    23   ar
   108     7     6    1
   109    82    80   ar
   110    81    80   ar
   111    80    79    1
   112    14    11    1
   113    22    23    1
   114    22    21    2
   115    12    11    1
   116    12    17   am
   117    23    25   ar
   118    18    17    1
   119    18    21    1
   120    18    19    1
   121    20    19    2
   122    11    10    1
   123     6     5    1
   124     4     3    2
   125     2     5    1
   126     2     3    1
   127     2     1    1
