@<TRIPOS>MOLECULE
tmp/4m9wB00.pdb
 127 118 0 0 0
SMALL
GASTEIGER

@<TRIPOS>ATOM
      1  N          0.7010  -16.7280   18.9140 N.3    22  MET22      -0.1245
      2  CA         0.6440  -18.1950   18.8690 C.3    22  MET22       0.1570
      3  C         -0.7630  -18.7370   18.6980 C.2    22  MET22       0.2261
      4  O         -0.9690  -19.6630   17.8970 O.2    22  MET22      -0.2867
      5  CB         1.3150  -18.7820   20.0920 C.3    22  MET22       0.0387
      6  CG         2.8350  -18.6990   20.0340 C.3    22  MET22       0.0595
      7  SD         3.6520  -19.0850   21.5830 S.3    22  MET22      -0.1393
      8  CE         2.8000  -20.5610   22.1400 C.3    22  MET22       0.0692
      9  N         -2.0030  -18.5770   14.8410 N.3    25  ALA25      -0.1231
     10  CA        -1.1590  -19.3090   13.9260 C.3    25  ALA25       0.1694
     11  C         -1.8770  -19.6860   12.6590 C.2    25  ALA25       0.2592
     12  O         -1.2890  -19.6950   11.5650 O.2    25  ALA25      -0.2718
     13  CB        -0.6030  -20.5500   14.6000 C.3    25  ALA25       0.0304
     14  N         -3.1610  -20.0000   12.7670 N.am   26  ASP26      -0.1974
     15  CA        -3.9050  -20.3220   11.5410 C.3    26  ASP26       0.1709
     16  C         -3.8640  -19.2040   10.5000 C.2    26  ASP26       0.2293
     17  O         -3.8710  -19.4620    9.3000 O.2    26  ASP26      -0.2864
     18  CB        -5.3690  -20.6220   11.8210 C.3    26  ASP26       0.1436
     19  CG        -5.5660  -21.9060   12.5890 C.2    26  ASP26       0.3671
     20  OD1       -4.5560  -22.5120   13.0170 O.co2  26  ASP26      -0.2456
     21  OD2       -6.7560  -22.2950   12.8080 O.co2  26  ASP26      -0.2456
     22  N          0.4950  -18.3100    9.8370 N.3    29  THR29      -0.1218
     23  CA         1.4500  -19.2310    9.2350 C.3    29  THR29       0.1862
     24  C          1.5750  -19.1340    7.6910 C.2    29  THR29       0.2287
     25  O          2.6880  -19.2210    7.1360 O.2    29  THR29      -0.2866
     26  CB         1.1200  -20.6970    9.6140 C.3    29  THR29       0.1770
     27  OG1        1.0130  -20.8300   11.0450 O.3    29  THR29      -0.2211
     28  CG2        2.2570  -21.5850    9.1140 C.3    29  THR29       0.0375
     29  N         -4.6670  -22.8160    6.1910 N.3    39  VAL39      -0.1245
     30  CA        -4.8010  -23.7800    7.3090 C.3    39  VAL39       0.1561
     31  C         -6.2980  -23.9690    7.4200 C.2    39  VAL39       0.2260
     32  O         -7.0200  -22.9930    7.4150 O.2    39  VAL39      -0.2867
     33  CB        -4.2580  -23.1900    8.6070 C.3    39  VAL39       0.0252
     34  CG1       -4.5010  -24.0830    9.8080 C.3    39  VAL39       0.0019
     35  CG2       -2.7430  -22.9270    8.4780 C.3    39  VAL39       0.0019
     36  N         -6.0650  -29.9580   12.4460 N.3    52  LYS52      -0.1245
     37  CA        -5.9260  -28.8840   11.4780 C.3    52  LYS52       0.1561
     38  C         -5.0880  -29.3720   10.3130 C.2    52  LYS52       0.2260
     39  O         -4.2230  -30.2470   10.4820 O.2    52  LYS52      -0.2867
     40  CB        -5.2060  -27.7160   12.0820 C.3    52  LYS52       0.0271
     41  CG        -5.9470  -26.9730   13.1230 C.3    52  LYS52       0.0035
     42  CD        -5.0980  -25.8520   13.7110 C.3    52  LYS52       0.0206
     43  CE        -5.9580  -25.1390   14.7680 C.3    52  LYS52       0.1093
     44  NZ        -5.2590  -23.9490   15.3640 N.3    52  LYS52      -0.1314
     45  N         -2.6340  -28.1210    7.1430 N.3    54  LEU54      -0.1245
     46  CA        -1.8850  -27.0250    6.6000 C.3    54  LEU54       0.1561
     47  C         -1.7250  -27.3860    5.0930 C.2    54  LEU54       0.2260
     48  O         -1.1170  -28.4160    4.8460 O.2    54  LEU54      -0.2867
     49  CB        -0.5460  -26.9490    7.3010 C.3    54  LEU54       0.0270
     50  CG        -0.4880  -26.0690    8.5460 C.3    54  LEU54       0.0019
     51  CD1       -1.2710  -26.7360    9.6740 C.3    54  LEU54       0.0001
     52  CD2        0.9780  -25.8420    8.9530 C.3    54  LEU54       0.0001
     53  N         -1.9280  -31.1950   11.9320 N.3    67  HIS67      -0.1241
     54  CA        -1.6110  -30.8640   13.2550 C.3    67  HIS67       0.1621
     55  C         -2.8050  -31.2220   14.1780 C.2    67  HIS67       0.2264
     56  O         -3.9770  -31.2170   13.7450 O.2    67  HIS67      -0.2867
     57  CB        -1.4040  -29.3700   13.4060 C.3    67  HIS67       0.0745
     58  CG        -0.0940  -28.8340   12.9010 C.ar   67  HIS67       0.0817
     59  ND1        0.1810  -27.4920   12.9230 N.ar   67  HIS67      -0.2268
     60  CD2        0.9940  -29.4310   12.3560 C.ar   67  HIS67       0.1154
     61  CE1        1.3850  -27.2710   12.3860 C.ar   67  HIS67       0.1986
     62  NE2        1.8990  -28.4370   12.0400 N.ar   67  HIS67      -0.2212
     63  N         -4.1420  -30.0470   17.9130 N.3    69  VAL69      -0.1245
     64  CA        -3.9920  -29.1900   19.0790 C.3    69  VAL69       0.1561
     65  C         -4.0200  -30.0540   20.3340 C.2    69  VAL69       0.2260
     66  O         -5.0310  -30.7190   20.5930 O.2    69  VAL69      -0.2867
     67  CB        -5.0800  -28.0930   19.0990 C.3    69  VAL69       0.0252
     68  CG1       -4.9290  -27.2030   20.3400 C.3    69  VAL69       0.0019
     69  CG2       -5.0130  -27.2330   17.8550 C.3    69  VAL69       0.0019
     70  N          1.1720  -23.3260   24.5590 N.3    79  TYR79      -0.1298
     71  CA         0.4720  -23.8360   23.4060 C.3    79  TYR79       0.1290
     72  C          1.2060  -25.0470   22.8660 C.3    79  TYR79       0.2013
     73  O          2.3930  -24.9600   22.3720 O.3    79  TYR79      -0.2188
     74  CB         0.2560  -22.7760   22.3430 C.3    79  TYR79       0.0480
     75  CG        -0.8410  -23.1010   21.3460 C.ar   79  TYR79      -0.0204
     76  CD1       -2.0790  -22.4660   21.4010 C.ar   79  TYR79      -0.0009
     77  CD2       -0.6460  -24.0460   20.3550 C.ar   79  TYR79      -0.0009
     78  CE1       -3.0760  -22.7510   20.4830 C.ar   79  TYR79       0.0417
     79  CE2       -1.6540  -24.3440   19.4420 C.ar   79  TYR79       0.0417
     80  CZ        -2.8560  -23.6850   19.4950 C.ar   79  TYR79       0.1957
     81  OH        -3.8840  -23.9530   18.5870 O.3    79  TYR79      -0.2866
     82  N          1.1190  -28.4890   20.3980 N.3    81  TYR81      -0.1241
     83  CA         0.4870  -29.1940   19.2720 C.3    81  TYR81       0.1605
     84  C          1.3530  -30.3740   18.7970 C.2    81  TYR81       0.2264
     85  O          2.5430  -30.4930   19.1520 O.2    81  TYR81      -0.2867
     86  CB         0.1740  -28.2520   18.1290 C.3    81  TYR81       0.0534
     87  CG         1.4020  -27.8260   17.3930 C.ar   81  TYR81      -0.0201
     88  CD1        1.7990  -28.4530   16.2420 C.ar   81  TYR81      -0.0009
     89  CD2        2.2250  -26.8600   17.9310 C.ar   81  TYR81      -0.0009
     90  CE1        2.9690  -28.0430   15.5790 C.ar   81  TYR81       0.0417
     91  CE2        3.4110  -26.4730   17.2940 C.ar   81  TYR81       0.0417
     92  CZ         3.7490  -27.0640   16.1230 C.ar   81  TYR81       0.1957
     93  OH         4.9830  -26.6860   15.5910 O.3    81  TYR81      -0.2866
     94  N          5.3260  -25.4070   23.6530 N.3   100  THR100     -0.1218
     95  CA         5.8290  -24.0900   23.8630 C.3   100  THR100      0.1862
     96  C          5.1360  -23.4670   25.0920 C.2   100  THR100      0.2287
     97  O          3.9080  -23.2830   25.1310 O.2   100  THR100     -0.2866
     98  CB         5.5790  -23.2160   22.6370 C.3   100  THR100      0.1770
     99  OG1        6.0340  -23.8940   21.4570 O.3   100  THR100     -0.2211
    100  CG2        6.2760  -21.8960   22.7270 C.3   100  THR100      0.0375
    101  N          8.4840  -22.6800   13.1930 N.3   141  LEU141     -0.1231
    102  CA         7.1630  -22.1380   13.4610 C.3   141  LEU141      0.1693
    103  C          7.2810  -21.0200   14.4870 C.2   141  LEU141      0.2592
    104  O          6.6450  -19.9910   14.3500 O.2   141  LEU141     -0.2718
    105  CB         6.1490  -23.1990   13.9610 C.3   141  LEU141      0.0284
    106  CG         4.9700  -23.4530   13.0000 C.3   141  LEU141      0.0019
    107  CD1        3.9150  -24.4330   13.5300 C.3   141  LEU141      0.0001
    108  CD2        4.3140  -22.1320   12.6190 C.3   141  LEU141      0.0001
    109  N          8.1000  -21.2110   15.5020 N.am  142  PHE142     -0.1976
    110  CA         8.2260  -20.2110   16.5380 C.3   142  PHE142      0.1639
    111  C          8.7410  -18.9080   15.9880 C.2   142  PHE142      0.2290
    112  O          8.2220  -17.8490   16.2810 O.2   142  PHE142     -0.2864
    113  CB         9.1630  -20.6920   17.6330 C.3   142  PHE142      0.0560
    114  CG         9.3320  -19.7320   18.7870 C.ar  142  PHE142     -0.0200
    115  CD1        8.4720  -19.7540   19.8950 C.ar  142  PHE142     -0.0042
    116  CD2       10.3850  -18.8310   18.8030 C.ar  142  PHE142     -0.0042
    117  CE1        8.6680  -18.8660   20.9690 C.ar  142  PHE142     -0.0003
    118  CE2       10.5730  -17.9340   19.8490 C.ar  142  PHE142     -0.0003
    119  CZ         9.7150  -17.9480   20.9430 C.ar  142  PHE142     -0.0000
    120  N          6.1390  -17.0300   13.9170 N.3   145  ILE145     -0.1245
    121  CA         5.2390  -16.2530   14.7760 C.3   145  ILE145      0.1561
    122  C          5.9640  -14.9990   15.2940 C.2   145  ILE145      0.2260
    123  O          5.4440  -13.8880   15.1990 O.2   145  ILE145     -0.2867
    124  CB         4.7280  -17.0850   15.9630 C.3   145  ILE145      0.0252
    125  CG1        4.1010  -18.4160   15.5130 C.3   145  ILE145      0.0019
    126  CG2        3.6750  -16.2840   16.7560 C.3   145  ILE145      0.0019
    127  CD1        2.8410  -18.3010   14.6630 C.3   145  ILE145      0.0001
@<TRIPOS>BOND
     1    48    47    2
     2    47    46    1
     3    29    30    1
     4    46    45    1
     5    46    49    1
     6    25    24    2
     7    49    50    1
     8    30    31    1
     9    30    33    1
    10    32    31    2
    11    24    23    1
    12    35    33    1
    13    50    52    1
    14    50    51    1
    15    33    34    1
    16    28    26    1
    17    23    26    1
    18    23    22    1
    19    17    16    2
    20    26    27    1
    21    38    39    2
    22    38    37    1
    23    16    15    1
    24    37    40    1
    25    37    36    1
    26    15    18    1
    27    15    14    1
    28    12    11    2
    29    18    19    1
    30    53    54    1
    31    62    60   ar
    32    62    61   ar
    33    40    41    1
    34    60    58   ar
    35    61    59   ar
    36    19    21   ar
    37    19    20   ar
    38   108   106    1
    39    11    14   am
    40    11    10    1
    41    58    59   ar
    42    58    57    1
    43   106   107    1
    44   106   105    1
    45    41    42    1
    46   101   102    1
    47    54    57    1
    48    54    55    1
    49   102   105    1
    50   102   103    1
    51    42    43    1
    52    56    55    2
    53   120   121    1
    54    10    13    1
    55    10     9    1
    56   104   103    2
    57   103   109   am
    58   127   125    1
    59    43    44    1
    60   121   122    1
    61   121   124    1
    62   123   122    2
    63   109   110    1
    64   125   124    1
    65    90    92   ar
    66    90    88   ar
    67    93    92    1
    68   124   126    1
    69   111   112    2
    70   111   110    1
    71    92    91   ar
    72    88    87   ar
    73   110   113    1
    74    91    89   ar
    75    87    89   ar
    76    87    86    1
    77   113   114    1
    78    69    67    1
    79     4     3    2
    80    63    64    1
    81    86    83    1
    82    81    80    1
    83     3     2    1
    84   114   116   ar
    85   114   115   ar
    86    84    85    2
    87    84    83    1
    88   116   118   ar
    89     2     1    1
    90     2     5    1
    91    64    67    1
    92    64    65    1
    93    67    68    1
    94    83    82    1
    95    79    80   ar
    96    79    77   ar
    97    80    78   ar
    98   118   119   ar
    99   115   117   ar
   100     6     5    1
   101     6     7    1
   102    65    66    2
   103    77    75   ar
   104    78    76   ar
   105   119   117   ar
   106    75    76   ar
   107    75    74    1
   108    99    98    1
   109     7     8    1
   110    74    71    1
   111    73    72    1
   112    98   100    1
   113    98    95    1
   114    72    71    1
   115    71    70    1
   116    94    95    1
   117    95    96    1
   118    96    97    2
