@<TRIPOS>MOLECULE
tmp/4m9xC01.pdb
 229 223 0 0 0
SMALL
GASTEIGER

@<TRIPOS>ATOM
      1  N        -28.5280  -41.0560   46.0090 N.3   128  MET128     -0.1245
      2  CA       -29.8250  -41.5180   45.5370 C.3   128  MET128      0.1570
      3  C        -30.5370  -42.3380   46.5860 C.2   128  MET128      0.2261
      4  O        -29.9140  -42.9800   47.4250 O.2   128  MET128     -0.2867
      5  CB       -29.6770  -42.3170   44.2510 C.3   128  MET128      0.0387
      6  CG       -29.1460  -41.5030   43.0950 C.3   128  MET128      0.0595
      7  SD       -30.3420  -40.9910   41.8470 S.3   128  MET128     -0.1393
      8  CE       -31.8410  -40.8450   42.8170 C.3   128  MET128      0.0692
      9  N        -33.8190  -45.9600   44.9160 N.3   131  TYR131     -0.1227
     10  CA       -33.2880  -47.3070   44.7640 C.3   131  TYR131      0.1736
     11  C        -31.8280  -47.3240   45.1710 C.2   131  TYR131      0.2595
     12  O        -31.0640  -46.4280   44.8110 O.2   131  TYR131     -0.2718
     13  CB       -33.4740  -47.7940   43.3100 C.3   131  TYR131      0.0548
     14  CG       -32.7040  -49.0470   42.8840 C.ar  131  TYR131     -0.0200
     15  CD1      -31.3120  -49.0560   42.7750 C.ar  131  TYR131     -0.0009
     16  CD2      -33.3810  -50.2240   42.5940 C.ar  131  TYR131     -0.0009
     17  CE1      -30.6270  -50.1980   42.3900 C.ar  131  TYR131      0.0417
     18  CE2      -32.7030  -51.3680   42.2070 C.ar  131  TYR131      0.0417
     19  CZ       -31.3280  -51.3500   42.1080 C.ar  131  TYR131      0.1957
     20  OH       -30.6580  -52.4900   41.7230 O.3   131  TYR131     -0.2866
     21  N        -31.4370  -48.3490   45.9180 N.am  132  ILE132     -0.1966
     22  CA       -30.0430  -48.4950   46.2920 C.3   132  ILE132      0.1727
     23  C        -29.5910  -49.8780   45.8660 C.2   132  ILE132      0.2616
     24  O        -30.2530  -50.8690   46.1770 O.2   132  ILE132     -0.2715
     25  CB       -29.8280  -48.3280   47.8110 C.3   132  ILE132      0.0290
     26  CG1      -29.9220  -46.8550   48.2140 C.3   132  ILE132      0.0022
     27  CG2      -28.5030  -48.9510   48.2450 C.3   132  ILE132      0.0023
     28  CD1      -31.3300  -46.4090   48.5540 C.3   132  ILE132      0.0001
     29  N        -28.4740  -49.9590   45.1550 N.am  133  ARG133     -0.1977
     30  CA       -27.9200  -51.2570   44.8200 C.3   133  ARG133      0.1597
     31  C        -27.1810  -51.8180   46.0270 C.2   133  ARG133      0.2287
     32  O        -26.0690  -51.3850   46.3050 O.2   133  ARG133     -0.2864
     33  CB       -26.9860  -51.1460   43.6140 C.3   133  ARG133      0.0334
     34  CG       -26.8880  -52.4080   42.7750 C.3   133  ARG133      0.0492
     35  CD       -26.2300  -52.1130   41.4330 C.3   133  ARG133      0.2205
     36  NE       -26.0140  -53.3150   40.6330 N.pl3 133  ARG133     -0.0865
     37  CZ       -25.2720  -53.3520   39.5300 C.cat 133  ARG133      0.5346
     38  NH1      -24.6770  -52.2500   39.0940 N.pl3 133  ARG133      0.1354
     39  NH2      -25.1210  -54.4880   38.8640 N.pl3 133  ARG133      0.1354
     40  N        -22.6190  -44.7290   32.0800 N.3   162  GLY162     -0.1210
     41  CA       -23.9610  -44.6660   32.6280 C.3   162  GLY162      0.1956
     42  C        -24.3110  -45.9020   33.4390 C.2   162  GLY162      0.2613
     43  O        -25.4660  -46.1050   33.8160 O.2   162  GLY162     -0.2717
     44  N        -23.3050  -46.7320   33.7060 N.am  163  SER163     -0.1938
     45  CA       -23.4970  -47.9800   34.4400 C.3   163  SER163      0.2055
     46  C        -23.8110  -47.7580   35.9220 C.2   163  SER163      0.2644
     47  O        -24.1430  -48.7060   36.6320 O.2   163  SER163     -0.2714
     48  CB       -22.2600  -48.8670   34.3040 C.3   163  SER163      0.2130
     49  OG       -21.2780  -48.5150   35.2610 O.3   163  SER163     -0.2179
     50  N        -23.6610  -46.5240   36.3980 N.am  164  GLY164     -0.1939
     51  CA       -24.1070  -46.1750   37.7380 C.3   164  GLY164      0.2014
     52  C        -23.0570  -46.0430   38.8250 C.2   164  GLY164      0.2639
     53  O        -23.3940  -46.0190   40.0090 O.2   164  GLY164     -0.2714
     54  N        -21.7900  -45.9720   38.4370 N.am  165  LYS165     -0.1963
     55  CA       -20.7000  -45.9760   39.4060 C.3   165  LYS165      0.1728
     56  C        -20.7050  -44.8040   40.3800 C.2   165  LYS165      0.2617
     57  O        -20.5760  -44.9830   41.6010 O.2   165  LYS165     -0.2715
     58  CB       -19.3790  -45.9710   38.6470 C.3   165  LYS165      0.0311
     59  CG       -19.4200  -46.8170   37.3960 C.3   165  LYS165      0.0038
     60  CD       -18.1700  -46.6410   36.5880 C.3   165  LYS165      0.0206
     61  CE       -18.2190  -45.3250   35.8370 C.3   165  LYS165      0.1093
     62  NZ       -19.2520  -45.3390   34.7610 N.3   165  LYS165     -0.1314
     63  N        -20.9000  -43.6070   39.8410 N.am  166  SER166     -0.1936
     64  CA       -20.7540  -42.4160   40.6580 C.3   166  SER166      0.2055
     65  C        -21.8560  -42.3600   41.6930 C.2   166  SER166      0.2643
     66  O        -21.6460  -41.9170   42.8170 O.2   166  SER166     -0.2714
     67  CB       -20.7910  -41.1610   39.7870 C.3   166  SER166      0.2130
     68  OG       -19.8070  -41.2100   38.7660 O.3   166  SER166     -0.2179
     69  N        -23.0420  -42.7820   41.2720 N.am  167  VAL167     -0.1963
     70  CA       -24.2020  -42.7960   42.1320 C.3   167  VAL167      0.1727
     71  C        -23.9750  -43.7360   43.3190 C.2   167  VAL167      0.2616
     72  O        -24.2440  -43.3880   44.4720 O.2   167  VAL167     -0.2715
     73  CB       -25.4580  -43.2050   41.3230 C.3   167  VAL167      0.0290
     74  CG1      -26.1890  -44.3400   41.9860 C.3   167  VAL167      0.0023
     75  CG2      -26.3980  -42.0560   41.2270 C.3   167  VAL167      0.0023
     76  N        -23.4390  -44.9190   43.0210 N.am  168  ILE168     -0.1977
     77  CA       -23.0360  -45.8930   44.0290 C.3   168  ILE168      0.1596
     78  C        -21.9940  -45.3310   44.9930 C.2   168  ILE168      0.2287
     79  O        -22.0030  -45.6350   46.1940 O.2   168  ILE168     -0.2864
     80  CB       -22.5100  -47.1730   43.3310 C.3   168  ILE168      0.0276
     81  CG1      -23.6860  -48.0830   42.9610 C.3   168  ILE168      0.0022
     82  CG2      -21.4180  -47.8690   44.1550 C.3   168  ILE168      0.0022
     83  CD1      -23.2890  -49.3280   42.2310 C.3   168  ILE168      0.0001
     84  N        -23.6610  -43.0160   47.3590 N.3   171  GLN171     -0.1245
     85  CA       -24.4640  -43.7090   48.3550 C.3   171  GLN171      0.1566
     86  C        -23.5580  -44.3360   49.4060 C.2   171  GLN171      0.2260
     87  O        -23.8960  -44.3570   50.5900 O.2   171  GLN171     -0.2867
     88  CB       -25.3500  -44.7600   47.6850 C.3   171  GLN171      0.0367
     89  CG       -26.3190  -44.1560   46.6820 C.3   171  GLN171      0.0905
     90  CD       -27.0980  -45.1930   45.9030 C.2   171  GLN171      0.2608
     91  OE1      -28.2870  -45.0230   45.6400 O.2   171  GLN171     -0.2717
     92  NE2      -26.4260  -46.2670   45.5140 N.am  171  GLN171     -0.0878
     93  N        -14.8810  -33.8870   40.5300 N.3   191  LYS191     -0.1245
     94  CA       -15.0380  -34.4350   39.1920 C.3   191  LYS191      0.1561
     95  C        -13.8770  -34.0280   38.2970 C.2   191  LYS191      0.2260
     96  O        -13.5050  -32.8580   38.2250 O.2   191  LYS191     -0.2867
     97  CB       -16.3560  -33.9800   38.5640 C.3   191  LYS191      0.0271
     98  CG       -16.6960  -34.7220   37.2830 C.3   191  LYS191      0.0035
     99  CD       -18.0870  -34.3890   36.7790 C.3   191  LYS191      0.0206
    100  CE       -18.5030  -35.3620   35.6880 C.3   191  LYS191      0.1093
    101  NZ       -19.8420  -35.9510   35.9510 N.3   191  LYS191     -0.1314
    102  N        -15.1080  -39.6280   37.7630 N.3   251  ASP251     -0.1239
    103  CA       -14.9800  -39.5830   36.3020 C.3   251  ASP251      0.1674
    104  C        -13.5430  -39.3220   35.8520 C.2   251  ASP251      0.2266
    105  O        -13.2510  -38.2690   35.2850 O.2   251  ASP251     -0.2867
    106  CB       -15.9100  -38.5270   35.6990 C.3   251  ASP251      0.1410
    107  CG       -16.2190  -38.7890   34.2360 C.2   251  ASP251      0.3668
    108  OD1      -15.8820  -39.8860   33.7420 O.co2 251  ASP251     -0.2456
    109  OD2      -16.7840  -37.8940   33.5730 O.co2 251  ASP251     -0.2456
    110  N        -14.3140  -43.3020   40.5550 N.3   271  THR271     -0.1203
    111  CA       -15.2080  -43.7570   39.4990 C.3   271  THR271      0.1994
    112  C        -14.5910  -43.4350   38.1430 C.2   271  THR271      0.2619
    113  O        -14.1310  -42.3200   37.8990 O.2   271  THR271     -0.2717
    114  CB       -16.5990  -43.1110   39.6000 C.3   271  THR271      0.1784
    115  OG1      -16.4680  -41.6880   39.6810 O.3   271  THR271     -0.2211
    116  CG2      -17.3370  -43.6270   40.8240 C.3   271  THR271      0.0376
    117  N        -14.5860  -44.4350   37.2680 N.am  272  THR272     -0.1938
    118  CA       -14.0040  -44.3210   35.9360 C.3   272  THR272      0.2028
    119  C        -14.6300  -45.3400   34.9940 C.2   272  THR272      0.2642
    120  O        -15.2670  -46.2880   35.4450 O.2   272  THR272     -0.2714
    121  CB       -12.4890  -44.5360   35.9680 C.3   272  THR272      0.1808
    122  OG1      -11.9930  -44.6750   34.6300 O.3   272  THR272     -0.2208
    123  CG2      -12.1590  -45.7880   36.7700 C.3   272  THR272      0.0379
    124  N        -14.3990  -45.1860   33.6950 N.am  273  ARG273     -0.1977
    125  CA       -14.8910  -46.1580   32.7240 C.3   273  ARG273      0.1597
    126  C        -13.7740  -47.0690   32.2140 C.2   273  ARG273      0.2287
    127  O        -13.9700  -48.2720   32.0300 O.2   273  ARG273     -0.2864
    128  CB       -15.5650  -45.4600   31.5400 C.3   273  ARG273      0.0334
    129  CG       -16.3750  -44.2260   31.8920 C.3   273  ARG273      0.0492
    130  CD       -17.5620  -44.1100   30.9460 C.3   273  ARG273      0.2205
    131  NE       -18.1870  -42.7890   30.9330 N.pl3 273  ARG273     -0.0865
    132  CZ       -18.3880  -42.0720   29.8310 C.cat 273  ARG273      0.5346
    133  NH1      -18.0250  -42.5550   28.6520 N.pl3 273  ARG273      0.1354
    134  NH2      -18.9670  -40.8800   29.9020 N.pl3 273  ARG273      0.1354
    135  N        -27.0170  -53.9140   35.3770 N.3   293  LEU293     -0.1245
    136  CA       -28.1700  -54.2450   36.2060 C.3   293  LEU293      0.1561
    137  C        -28.8800  -55.5220   35.7730 C.2   293  LEU293      0.2260
    138  O        -29.4690  -55.5710   34.6910 O.2   293  LEU293     -0.2867
    139  CB       -29.1790  -53.0940   36.1960 C.3   293  LEU293      0.0270
    140  CG       -28.8670  -51.7750   36.9030 C.3   293  LEU293      0.0019
    141  CD1      -30.1320  -50.9460   36.9720 C.3   293  LEU293      0.0001
    142  CD2      -28.3090  -52.0030   38.2960 C.3   293  LEU293      0.0001
    143  N        -35.7330  -51.6200   40.2040 N.3   301  PHE301     -0.1241
    144  CA       -35.5070  -50.2520   39.7520 C.3   301  PHE301      0.1605
    145  C        -36.7800  -49.6440   39.1400 C.2   301  PHE301      0.2264
    146  O        -37.0210  -48.4400   39.2510 O.2   301  PHE301     -0.2867
    147  CB       -34.3440  -50.2590   38.7540 C.3   301  PHE301      0.0534
    148  CG       -33.8380  -48.9010   38.3790 C.ar  301  PHE301     -0.0203
    149  CD1      -33.6170  -47.9300   39.3450 C.ar  301  PHE301     -0.0042
    150  CD2      -33.5370  -48.6110   37.0610 C.ar  301  PHE301     -0.0042
    151  CE1      -33.1320  -46.6840   38.9960 C.ar  301  PHE301     -0.0003
    152  CE2      -33.0520  -47.3720   36.7050 C.ar  301  PHE301     -0.0003
    153  CZ       -32.8510  -46.4040   37.6730 C.ar  301  PHE301     -0.0000
    154  N        -39.6820  -46.5490   41.1160 N.3   305  TYR305     -0.1241
    155  CA       -40.2090  -45.2410   40.7400 C.3   305  TYR305      0.1605
    156  C        -41.6670  -45.2810   40.2740 C.2   305  TYR305      0.2264
    157  O        -42.1360  -44.3810   39.5890 O.2   305  TYR305     -0.2867
    158  CB       -39.3300  -44.6440   39.6390 C.3   305  TYR305      0.0534
    159  CG       -37.9360  -44.2850   40.1070 C.ar  305  TYR305     -0.0201
    160  CD1      -37.6390  -43.0240   40.6130 C.ar  305  TYR305     -0.0009
    161  CD2      -36.9150  -45.2240   40.0480 C.ar  305  TYR305     -0.0009
    162  CE1      -36.3550  -42.7150   41.0430 C.ar  305  TYR305      0.0417
    163  CE2      -35.6390  -44.9250   40.4730 C.ar  305  TYR305      0.0417
    164  CZ       -35.3620  -43.6740   40.9690 C.ar  305  TYR305      0.1957
    165  OH       -34.0860  -43.3840   41.3890 O.3   305  TYR305     -0.2866
    166  N        -28.5200  -48.5410   33.9050 N.3   330  PRO330     -0.2102
    167  CA       -29.1360  -47.5570   34.8020 C.3   330  PRO330      0.1504
    168  C        -29.6580  -46.3070   34.0920 C.2   330  PRO330      0.2575
    169  O        -30.8510  -46.0240   34.1180 O.2   330  PRO330     -0.2718
    170  CB       -27.9990  -47.2080   35.7610 C.3   330  PRO330      0.0282
    171  CG       -27.1420  -48.4140   35.7890 C.3   330  PRO330      0.0208
    172  CD       -27.3850  -49.2230   34.5510 C.3   330  PRO330      0.0893
    173  N        -28.7330  -45.5620   33.4960 N.am  331  ALA331     -0.1980
    174  CA       -28.9930  -44.2880   32.8240 C.3   331  ALA331      0.1597
    175  C        -30.0230  -44.3110   31.6960 C.2   331  ALA331      0.2287
    176  O        -30.9690  -43.5230   31.7050 O.2   331  ALA331     -0.2864
    177  CB       -27.6930  -43.7370   32.2850 C.3   331  ALA331      0.0319
    178  N        -33.3160  -45.1120   33.0360 N.3   334  MET334     -0.1245
    179  CA       -33.9170  -43.9360   33.6400 C.3   334  MET334      0.1570
    180  C        -34.5220  -43.0110   32.5890 C.2   334  MET334      0.2261
    181  O        -35.6370  -42.5150   32.7610 O.2   334  MET334     -0.2867
    182  CB       -32.8640  -43.1680   34.4360 C.3   334  MET334      0.0387
    183  CG       -33.3730  -42.0040   35.2740 C.3   334  MET334      0.0595
    184  SD       -34.3350  -42.5970   36.6770 S.3   334  MET334     -0.1393
    185  CE       -36.0160  -42.4910   36.0790 C.3   334  MET334      0.0692
    186  N        -32.4130  -36.2010   32.1210 N.3   367  THR367     -0.1204
    187  CA       -32.1670  -37.1680   33.1800 C.3   367  THR367      0.1979
    188  C        -31.0880  -36.6460   34.1270 C.2   367  THR367      0.2460
    189  O        -30.2560  -35.8380   33.7190 O.2   367  THR367     -0.2732
    190  CB       -31.7550  -38.5240   32.5780 C.3   367  THR367      0.1783
    191  OG1      -31.4240  -39.4440   33.6240 O.3   367  THR367     -0.2211
    192  CG2      -30.5490  -38.3470   31.6750 C.3   367  THR367      0.0376
    193  N        -31.1020  -37.0930   35.3980 N.am  368  PRO368     -0.2717
    194  CA       -30.0070  -36.8570   36.3510 C.3   368  PRO368      0.1535
    195  C        -28.5910  -37.0520   35.7850 C.2   368  PRO368      0.2599
    196  O        -27.6290  -36.5340   36.3530 O.2   368  PRO368     -0.2715
    197  CB       -30.2880  -37.8890   37.4400 C.3   368  PRO368      0.0310
    198  CG       -31.7610  -37.9920   37.4600 C.3   368  PRO368      0.0237
    199  CD       -32.2550  -37.7380   36.0540 C.3   368  PRO368      0.0939
    200  N        -28.4780  -37.8020   34.6900 N.am  369  TYR369     -0.1960
    201  CA       -27.2350  -37.9350   33.9340 C.3   369  TYR369      0.1771
    202  C        -26.8420  -36.6340   33.2490 C.2   369  TYR369      0.2620
    203  O        -27.6940  -35.9330   32.7030 O.2   369  TYR369     -0.2715
    204  CB       -27.3680  -39.0380   32.8770 C.3   369  TYR369      0.0574
    205  CG       -26.0920  -39.7860   32.5560 C.ar  369  TYR369     -0.0198
    206  CD1      -24.9010  -39.4830   33.1980 C.ar  369  TYR369     -0.0009
    207  CD2      -26.0770  -40.7820   31.5860 C.ar  369  TYR369     -0.0009
    208  CE1      -23.7340  -40.1610   32.8980 C.ar  369  TYR369      0.0417
    209  CE2      -24.9150  -41.4690   31.2800 C.ar  369  TYR369      0.0417
    210  CZ       -23.7460  -41.1520   31.9390 C.ar  369  TYR369      0.1957
    211  OH       -22.5840  -41.8270   31.6470 O.3   369  TYR369     -0.2866
    212  N        -25.5480  -36.3280   33.2590 N.am  370  SER370     -0.1936
    213  CA       -25.0290  -35.1200   32.6250 C.3   370  SER370      0.2055
    214  C        -25.2770  -35.1430   31.1110 C.2   370  SER370      0.2643
    215  O        -25.0790  -34.1400   30.4300 O.2   370  SER370     -0.2714
    216  CB       -23.5360  -34.9590   32.9200 C.3   370  SER370      0.2130
    217  OG       -22.8910  -36.2190   32.9540 O.3   370  SER370     -0.2179
    218  N        -25.7220  -36.2920   30.6040 N.am  371  TYR371     -0.1973
    219  CA       -25.7990  -36.5810   29.1740 C.3   371  TYR371      0.1639
    220  C        -27.2450  -36.7330   28.6890 C.2   371  TYR371      0.2290
    221  O        -28.0630  -37.3860   29.3390 O.2   371  TYR371     -0.2864
    222  CB       -25.0120  -37.8510   28.8630 C.3   371  TYR371      0.0560
    223  CG       -23.5310  -37.7320   29.1360 C.ar  371  TYR371     -0.0198
    224  CD1      -22.7960  -36.6600   28.6500 C.ar  371  TYR371     -0.0009
    225  CD2      -22.8720  -38.6870   29.8950 C.ar  371  TYR371     -0.0009
    226  CE1      -21.4390  -36.5520   28.9010 C.ar  371  TYR371      0.0417
    227  CE2      -21.5160  -38.5900   30.1510 C.ar  371  TYR371      0.0417
    228  CZ       -20.8030  -37.5200   29.6520 C.ar  371  TYR371      0.1957
    229  OH       -19.4530  -37.4180   29.9030 O.3   371  TYR371     -0.2866
@<TRIPOS>BOND
     1   224   226   ar
     2   224   223   ar
     3   133   132    1
     4   220   219    1
     5   220   221    2
     6   222   223    1
     7   222   219    1
     8   226   228   ar
     9   223   225   ar
    10   219   218    1
    11   228   229    1
    12   228   227   ar
    13   132   134    1
    14   132   131    2
    15   225   227   ar
    16   215   214    2
    17   218   214   am
    18   131   130    1
    19   130   129    1
    20   214   213    1
    21   209   207   ar
    22   209   210   ar
    23   128   129    1
    24   128   125    1
    25   207   205   ar
    26   211   210    1
    27   192   190    1
    28   175   176    2
    29   175   174    1
    30   210   208   ar
    31   127   126    2
    32    40    41    1
    33   186   187    1
    34   126   125    1
    35   177   174    1
    36   205   204    1
    37   205   206   ar
    38   190   187    1
    39   190   191    1
    40   180   181    2
    41   180   179    1
    42   213   216    1
    43   213   212    1
    44    41    42    1
    45   203   202    2
    46   125   124    1
    47   174   173    1
    48   204   201    1
    49   208   206   ar
    50   216   217    1
    51   178   179    1
    52   187   188    1
    53   202   212   am
    54   202   201    1
    55    42    44   am
    56    42    43    2
    57   173   168   am
    58   109   107   ar
    59   179   182    1
    60   124   119   am
    61    44    45    1
    62   189   188    2
    63   108   107   ar
    64   166   172    1
    65   166   167    1
    66   201   200    1
    67   168   169    2
    68   168   167    1
    69   188   193   am
    70   107   106    1
    71    48    45    1
    72    48    49    1
    73   182   183    1
    74    45    46    1
    75   172   171    1
    76   122   121    1
    77   200   195   am
    78   138   137    2
    79    62    61    1
    80   167   170    1
    81   119   120    2
    82   119   118    1
    83   183   184    1
    84   105   104    2
    85   135   136    1
    86   193   199    1
    87   193   194    1
    88   100   101    1
    89   100    99    1
    90   106   103    1
    91   170   171    1
    92   137   136    1
    93   195   194    1
    94   195   196    2
    95    61    60    1
    96   104   103    1
    97    46    50   am
    98    46    47    2
    99   118   121    1
   100   118   117    1
   101   121   123    1
   102   199   198    1
   103   185   184    1
   104   139   136    1
   105   139   140    1
   106   103   102    1
   107   194   197    1
   108    50    51    1
   109    60    59    1
   110   152   150   ar
   111   152   153   ar
   112    99    98    1
   113   140   141    1
   114   140   142    1
   115   150   148   ar
   116   117   112   am
   117    98    97    1
   118    59    58    1
   119   197   198    1
   120   153   151   ar
   121    51    52    1
   122   113   112    2
   123   112   111    1
   124    96    95    2
   125    95    94    1
   126   148   147    1
   127   148   149   ar
   128    54    52   am
   129    54    55    1
   130    97    94    1
   131    58    55    1
   132   147   144    1
   133    68    67    1
   134    52    53    2
   135    39    37    1
   136   151   149   ar
   137    38    37    1
   138   145   146    2
   139   145   144    1
   140    94    93    1
   141    55    56    1
   142   111   114    1
   143   111   110    1
   144    37    36    2
   145   157   156    2
   146   114   115    1
   147   114   116    1
   148   158   159    1
   149   158   155    1
   150   144   143    1
   151    67    64    1
   152    63    56   am
   153    63    64    1
   154   161   159   ar
   155   161   163   ar
   156   159   160   ar
   157   156   155    1
   158    56    57    2
   159   163   164   ar
   160   160   162   ar
   161    36    35    1
   162    64    65    1
   163   155   154    1
   164   164   162   ar
   165   164   165    1
   166    75    73    1
   167    69    65   am
   168    69    70    1
   169    73    74    1
   170    73    70    1
   171    35    34    1
   172    65    66    2
   173    20    19    1
   174     7     8    1
   175     7     6    1
   176    19    18   ar
   177    19    17   ar
   178    70    71    1
   179    18    16   ar
   180    83    81    1
   181    17    15   ar
   182    16    14   ar
   183    34    33    1
   184    15    14   ar
   185    14    13    1
   186    81    80    1
   187    76    71   am
   188    76    77    1
   189     6     5    1
   190    13    10    1
   191    71    72    2
   192    80    77    1
   193    80    82    1
   194    33    30    1
   195    77    78    1
   196     5     2    1
   197    10     9    1
   198    10    11    1
   199    12    11    2
   200    30    29    1
   201    30    31    1
   202    78    79    2
   203    29    23   am
   204    11    21   am
   205    92    90   am
   206     2     1    1
   207     2     3    1
   208    91    90    2
   209    23    24    2
   210    23    22    1
   211    90    89    1
   212    21    22    1
   213    31    32    2
   214    22    25    1
   215     3     4    2
   216    89    88    1
   217    84    85    1
   218    88    85    1
   219    25    26    1
   220    25    27    1
   221    26    28    1
   222    85    86    1
   223    86    87    2
