@<TRIPOS>MOLECULE
tmp/4m9xC00.pdb
 124 120 0 0 0
SMALL
GASTEIGER

@<TRIPOS>ATOM
      1  N        -19.5870  -41.5700   23.1980 N.3   379  GLN379     -0.1245
      2  CA       -18.8190  -40.6690   22.3430 C.3   379  GLN379      0.1566
      3  C        -17.3680  -40.6070   22.7940 C.2   379  GLN379      0.2260
      4  O        -16.4620  -41.0470   22.0810 O.2   379  GLN379     -0.2867
      5  CB       -19.4350  -39.2670   22.3910 C.3   379  GLN379      0.0367
      6  CG       -18.8260  -38.2220   21.4720 C.3   379  GLN379      0.0905
      7  CD       -19.6050  -38.0620   20.1890 C.2   379  GLN379      0.2608
      8  OE1      -20.4010  -38.9250   19.8240 O.2   379  GLN379     -0.2717
      9  NE2      -19.4000  -36.9410   19.5080 N.am  379  GLN379     -0.0878
     10  N        -15.1490  -43.5180   22.8860 N.3   382  VAL382     -0.1231
     11  CA       -14.8210  -43.9940   21.5580 C.3   382  VAL382      0.1692
     12  C        -13.7090  -43.1070   21.0060 C.2   382  VAL382      0.2591
     13  O        -12.8730  -43.5600   20.2250 O.2   382  VAL382     -0.2718
     14  CB       -16.0640  -44.0030   20.6270 C.3   382  VAL382      0.0266
     15  CG1      -15.9350  -42.9770   19.5070 C.3   382  VAL382      0.0020
     16  CG2      -16.2740  -45.3900   20.0410 C.3   382  VAL382      0.0020
     17  N        -13.7020  -41.8410   21.4250 N.am  383  GLU383     -0.1979
     18  CA       -12.6730  -40.9040   20.9830 C.3   383  GLU383      0.1602
     19  C        -11.2970  -41.2520   21.5400 C.2   383  GLU383      0.2287
     20  O        -10.3010  -41.2200   20.8160 O.2   383  GLU383     -0.2864
     21  CB       -13.0250  -39.4710   21.3930 C.3   383  GLU383      0.0415
     22  CG       -14.4540  -39.0540   21.1270 C.3   383  GLU383      0.1163
     23  CD       -14.6510  -37.5610   21.2500 C.2   383  GLU383      0.3649
     24  OE1      -15.6600  -37.0490   20.7220 O.co2 383  GLU383     -0.2457
     25  OE2      -13.7920  -36.9000   21.8720 O.co2 383  GLU383     -0.2457
     26  N        -10.1360  -48.1980   17.5950 N.3   390  ARG390     -0.1231
     27  CA       -11.2650  -47.4200   17.1090 C.3   390  ARG390      0.1694
     28  C        -11.8110  -48.1010   15.8690 C.2   390  ARG390      0.2592
     29  O        -13.0200  -48.1060   15.6200 O.2   390  ARG390     -0.2718
     30  CB       -10.8400  -45.9920   16.7770 C.3   390  ARG390      0.0321
     31  CG       -11.9560  -44.9670   16.7970 C.3   390  ARG390      0.0489
     32  CD       -11.3600  -43.5760   16.6970 C.3   390  ARG390      0.2205
     33  NE       -10.0300  -43.5170   17.3010 N.pl3 390  ARG390     -0.0865
     34  CZ        -9.4740  -42.4110   17.7850 C.cat 390  ARG390      0.5346
     35  NH1      -10.1320  -41.2620   17.7280 N.pl3 390  ARG390      0.1354
     36  NH2       -8.2560  -42.4480   18.3140 N.pl3 390  ARG390      0.1354
     37  N        -10.9060  -48.7610   15.1470 N.am  391  SER391     -0.1952
     38  CA       -11.2770  -49.4710   13.9280 C.3   391  SER391      0.1924
     39  C        -12.0150  -50.7640   14.2370 C.2   391  SER391      0.2314
     40  O        -13.1340  -50.9820   13.7650 O.2   391  SER391     -0.2863
     41  CB       -10.0400  -49.7670   13.0800 C.3   391  SER391      0.2116
     42  OG       -10.3940  -50.4530   11.8940 O.3   391  SER391     -0.2180
     43  N        -13.4960  -51.6490   16.8810 N.3   393  LEU393     -0.1231
     44  CA       -14.7830  -51.3750   17.4930 C.3   393  LEU393      0.1693
     45  C        -15.7000  -50.9710   16.3440 C.2   393  LEU393      0.2592
     46  O        -16.8280  -51.4560   16.2580 O.2   393  LEU393     -0.2718
     47  CB       -14.6690  -50.2930   18.5840 C.3   393  LEU393      0.0284
     48  CG       -15.7860  -50.0990   19.6300 C.3   393  LEU393      0.0019
     49  CD1      -15.5120  -48.9490   20.5840 C.3   393  LEU393      0.0001
     50  CD2      -17.1180  -49.8940   19.0110 C.3   393  LEU393      0.0001
     51  N        -15.2030  -50.1170   15.4450 N.am  394  ALA394     -0.1966
     52  CA       -16.0610  -49.5160   14.4210 C.3   394  ALA394      0.1728
     53  C        -16.6540  -50.5960   13.5180 C.2   394  ALA394      0.2616
     54  O        -17.7210  -50.4180   12.9350 O.2   394  ALA394     -0.2715
     55  CB       -15.2900  -48.5000   13.5920 C.3   394  ALA394      0.0334
     56  N        -15.9410  -51.7140   13.4120 N.am  395  PHE395     -0.1974
     57  CA       -16.3550  -52.8420   12.5830 C.3   395  PHE395      0.1639
     58  C        -17.2190  -53.8470   13.3290 C.2   395  PHE395      0.2290
     59  O        -18.0990  -54.4640   12.7350 O.2   395  PHE395     -0.2864
     60  CB       -15.1490  -53.5690   11.9910 C.3   395  PHE395      0.0560
     61  CG       -14.6830  -53.0050   10.6830 C.ar  395  PHE395     -0.0200
     62  CD1      -15.4930  -53.0690    9.5560 C.ar  395  PHE395     -0.0042
     63  CD2      -13.4310  -52.4340   10.5700 C.ar  395  PHE395     -0.0042
     64  CE1      -15.0610  -52.5590    8.3410 C.ar  395  PHE395     -0.0003
     65  CE2      -12.9910  -51.9240    9.3620 C.ar  395  PHE395     -0.0003
     66  CZ       -13.8070  -51.9850    8.2450 C.ar  395  PHE395     -0.0000
     67  N        -25.4320  -48.0770   19.6720 N.3   454  PHE454     -0.1227
     68  CA       -24.5860  -46.9000   19.6660 C.3   454  PHE454      0.1736
     69  C        -23.9630  -46.8420   18.2890 C.2   454  PHE454      0.2595
     70  O        -24.2070  -45.9180   17.5200 O.2   454  PHE454     -0.2718
     71  CB       -23.4990  -46.9000   20.7370 C.3   454  PHE454      0.0547
     72  CG       -22.5670  -45.7180   20.6300 C.ar  454  PHE454     -0.0202
     73  CD1      -23.0760  -44.4290   20.5690 C.ar  454  PHE454     -0.0042
     74  CD2      -21.1910  -45.8970   20.5570 C.ar  454  PHE454     -0.0042
     75  CE1      -22.2360  -43.3410   20.4540 C.ar  454  PHE454     -0.0003
     76  CE2      -20.3390  -44.8120   20.4440 C.ar  454  PHE454     -0.0003
     77  CZ       -20.8620  -43.5310   20.3930 C.ar  454  PHE454     -0.0000
     78  N        -23.2030  -47.8880   17.9780 N.am  455  LEU455     -0.1980
     79  CA       -22.5270  -48.0410   16.6910 C.3   455  LEU455      0.1596
     80  C        -23.3720  -48.0470   15.4300 C.2   455  LEU455      0.2287
     81  O        -22.9600  -47.4360   14.4480 O.2   455  LEU455     -0.2864
     82  CB       -21.7550  -49.3580   16.6920 C.3   455  LEU455      0.0297
     83  CG       -20.8680  -49.6660   17.8810 C.3   455  LEU455      0.0022
     84  CD1      -19.9880  -50.8370   17.5100 C.3   455  LEU455      0.0001
     85  CD2      -20.0580  -48.4320   18.2120 C.3   455  LEU455      0.0001
     86  N        -26.3400  -46.3690   14.4370 N.3   457  HIS457     -0.1226
     87  CA       -26.5100  -45.0160   13.9240 C.3   457  HIS457      0.1752
     88  C        -25.2830  -44.1210   14.1650 C.2   457  HIS457      0.2596
     89  O        -25.4330  -42.9310   14.4380 O.2   457  HIS457     -0.2718
     90  CB       -27.7510  -44.3390   14.5310 C.3   457  HIS457      0.0759
     91  CG       -28.9870  -45.1910   14.5490 C.ar  457  HIS457      0.0818
     92  ND1      -28.9810  -46.5380   14.8450 N.ar  457  HIS457     -0.2268
     93  CD2      -30.2770  -44.8740   14.2870 C.ar  457  HIS457      0.1154
     94  CE1      -30.2120  -47.0110   14.7730 C.ar  457  HIS457      0.1986
     95  NE2      -31.0170  -46.0220   14.4330 N.ar  457  HIS457     -0.2212
     96  N        -24.0780  -44.6770   14.0630 N.am  458  VAL458     -0.1966
     97  CA       -22.8750  -43.9050   14.3690 C.3   458  VAL458      0.1727
     98  C        -21.7190  -44.2200   13.4110 C.2   458  VAL458      0.2616
     99  O        -20.9800  -43.3160   13.0180 O.2   458  VAL458     -0.2715
    100  CB       -22.4330  -44.1200   15.8420 C.3   458  VAL458      0.0290
    101  CG1      -20.9540  -44.4510   15.9510 C.3   458  VAL458      0.0023
    102  CG2      -22.7700  -42.8950   16.6810 C.3   458  VAL458      0.0023
    103  N        -21.5630  -45.4840   13.0220 N.am  459  VAL459     -0.1963
    104  CA       -20.5220  -45.8220   12.0560 C.3   459  VAL459      0.1727
    105  C        -20.9700  -45.4400   10.6530 C.2   459  VAL459      0.2616
    106  O        -22.1660  -45.2930   10.3920 O.2   459  VAL459     -0.2715
    107  CB       -20.1590  -47.3190   12.0600 C.3   459  VAL459      0.0290
    108  CG1      -19.3440  -47.6500   13.2990 C.3   459  VAL459      0.0023
    109  CG2      -21.4040  -48.1730   12.0050 C.3   459  VAL459      0.0023
    110  N        -19.9980  -45.2620    9.7650 N.am  460  ASP460     -0.1971
    111  CA       -20.2470  -44.8770    8.3800 C.3   460  ASP460      0.1709
    112  C        -21.2210  -45.8400    7.7000 C.2   460  ASP460      0.2293
    113  O        -20.9790  -47.0460    7.6700 O.2   460  ASP460     -0.2864
    114  CB       -18.9390  -44.8100    7.5960 C.3   460  ASP460      0.1436
    115  CG       -19.1100  -44.1500    6.2450 C.2   460  ASP460      0.3671
    116  OD1      -19.8470  -43.1430    6.1690 O.co2 460  ASP460     -0.2456
    117  OD2      -18.5130  -44.6350    5.2630 O.co2 460  ASP460     -0.2456
    118  N        -19.6680  -48.6150    5.7330 N.3   463  THR463     -0.1218
    119  CA       -18.9010  -49.5820    6.5130 C.3   463  THR463      0.1862
    120  C        -19.7490  -50.6810    7.1560 C.2   463  THR463      0.2287
    121  O        -19.2650  -51.7900    7.3950 O.2   463  THR463     -0.2866
    122  CB       -18.1110  -48.8390    7.6010 C.3   463  THR463      0.1770
    123  OG1      -17.2980  -47.8380    6.9770 O.3   463  THR463     -0.2211
    124  CG2      -17.2240  -49.7810    8.3850 C.3   463  THR463      0.0375
@<TRIPOS>BOND
     1   117   115   ar
     2   118   119    1
     3   116   115   ar
     4   115   114    1
     5   119   120    1
     6   119   122    1
     7   123   122    1
     8   120   121    2
     9   114   111    1
    10   122   124    1
    11   113   112    2
    12   112   111    1
    13    66    64   ar
    14    66    65   ar
    15    64    62   ar
    16   111   110    1
    17    65    63   ar
    18    62    61   ar
    19   110   105   am
    20   106   105    2
    21    63    61   ar
    22   105   104    1
    23    61    60    1
    24    42    41    1
    25    60    57    1
    26   109   107    1
    27   104   107    1
    28   104   103    1
    29   107   108    1
    30    57    58    1
    31    57    56    1
    32    59    58    2
    33    54    53    2
    34    99    98    2
    35   103    98   am
    36    41    38    1
    37    98    97    1
    38    56    53   am
    39    53    52    1
    40    55    52    1
    41    40    39    2
    42    87    88    1
    43    87    86    1
    44    87    90    1
    45    38    39    1
    46    38    37    1
    47    96    88   am
    48    96    97    1
    49    88    89    2
    50    93    95   ar
    51    93    91   ar
    52    97   100    1
    53    52    51    1
    54    95    94   ar
    55    81    80    2
    56    90    91    1
    57    91    92   ar
    58    94    92   ar
    59    37    28   am
    60    80    79    1
    61    51    45   am
    62    29    28    2
    63   100   101    1
    64   100   102    1
    65    28    27    1
    66    46    45    2
    67    45    44    1
    68    79    82    1
    69    79    78    1
    70    82    83    1
    71    32    31    1
    72    32    33    1
    73    30    31    1
    74    30    27    1
    75    43    44    1
    76    27    26    1
    77    33    34    2
    78    44    47    1
    79    84    83    1
    80    70    69    2
    81    35    34    1
    82    34    36    1
    83    83    85    1
    84    78    69   am
    85    69    68    1
    86    47    48    1
    87    50    48    1
    88    15    14    1
    89     9     7   am
    90    48    49    1
    91    68    67    1
    92    68    71    1
    93     8     7    2
    94    16    14    1
    95     7     6    1
    96    13    12    2
    97    77    76   ar
    98    77    75   ar
    99    76    74   ar
   100    75    73   ar
   101    74    72   ar
   102    73    72   ar
   103    14    11    1
   104    72    71    1
   105    24    23   ar
   106    20    19    2
   107    18    21    1
   108    18    17    1
   109    18    19    1
   110    12    17   am
   111    12    11    1
   112    22    23    1
   113    22    21    1
   114    23    25   ar
   115     6     5    1
   116    11    10    1
   117     4     3    2
   118     2     5    1
   119     2     3    1
   120     2     1    1
