@<TRIPOS>MOLECULE
tmp/4m9yA00.pdb
 112 106 0 0 0
SMALL
GASTEIGER

@<TRIPOS>ATOM
      1  N         11.6910  -47.1990   24.1690 N.3   363  ALA363     -0.1245
      2  CA        12.2080  -46.4410   23.0370 C.3   363  ALA363      0.1562
      3  C         12.0800  -44.9400   23.2610 C.2   363  ALA363      0.2260
      4  O         12.8740  -44.1530   22.7430 O.2   363  ALA363     -0.2867
      5  CB        11.4790  -46.8460   21.7630 C.3   363  ALA363      0.0290
      6  N         15.3950  -42.7850   23.2440 N.3   366  GLN366     -0.1245
      7  CA        15.3030  -41.5640   22.4510 C.3   366  GLN366      0.1566
      8  C         16.2800  -40.4850   22.8660 C.2   366  GLN366      0.2260
      9  O         17.2220  -40.1490   22.1380 O.2   366  GLN366     -0.2867
     10  CB        13.8800  -41.0100   22.6030 C.3   366  GLN366      0.0367
     11  CG        13.5230  -39.7790   21.7870 C.3   366  GLN366      0.0905
     12  CD        12.7890  -40.0890   20.5040 C.2   366  GLN366      0.2608
     13  OE1       13.3090  -39.8860   19.4090 O.2   366  GLN366     -0.2717
     14  NE2       11.5550  -40.5580   20.6350 N.am  366  GLN366     -0.0878
     15  N         19.9320  -41.0460   22.9340 N.3   369  VAL369     -0.1231
     16  CA        20.5200  -41.2060   21.6190 C.3   369  VAL369      0.1692
     17  C         20.6870  -39.8340   20.9780 C.2   369  VAL369      0.2591
     18  O         21.6080  -39.6010   20.1900 O.2   369  VAL369     -0.2718
     19  CB        19.6460  -42.1290   20.7540 C.3   369  VAL369      0.0266
     20  CG1       19.8980  -41.9160   19.2720 C.3   369  VAL369      0.0020
     21  CG2       19.8830  -43.5790   21.1500 C.3   369  VAL369      0.0020
     22  N         19.8120  -38.9090   21.3600 N.am  370  GLU370     -0.1979
     23  CA        19.9130  -37.5500   20.8420 C.3   370  GLU370      0.1602
     24  C         21.1210  -36.8560   21.4490 C.2   370  GLU370      0.2287
     25  O         21.8780  -36.1760   20.7570 O.2   370  GLU370     -0.2864
     26  CB        18.6520  -36.7210   21.1200 C.3   370  GLU370      0.0415
     27  CG        17.3180  -37.3850   20.8330 C.3   370  GLU370      0.1163
     28  CD        16.1770  -36.3760   20.8120 C.2   370  GLU370      0.3649
     29  OE1       15.1140  -36.6820   20.2310 O.co2 370  GLU370     -0.2457
     30  OE2       16.3380  -35.2830   21.4000 O.co2 370  GLU370     -0.2457
     31  N         26.8240  -40.8060   17.8290 N.3   377  ARG377     -0.1245
     32  CA        25.4750  -41.0210   17.3180 C.3   377  ARG377      0.1563
     33  C         25.5620  -41.9040   16.0990 C.2   377  ARG377      0.2260
     34  O         24.6910  -42.7520   15.8590 O.2   377  ARG377     -0.2867
     35  CB        24.8040  -39.6950   16.9610 C.3   377  ARG377      0.0307
     36  CG        23.2920  -39.7150   16.9440 C.3   377  ARG377      0.0489
     37  CD        22.7500  -38.2930   16.9030 C.3   377  ARG377      0.2205
     38  NE        23.6660  -37.3470   17.5410 N.pl3 377  ARG377     -0.0865
     39  CZ        23.2990  -36.1740   18.0510 C.cat 377  ARG377      0.5346
     40  NH1       22.0290  -35.7960   18.0030 N.pl3 377  ARG377      0.1354
     41  NH2       24.1990  -35.3720   18.6060 N.pl3 377  ARG377      0.1354
     42  N         26.6580  -45.6710   17.1260 N.3   380  LEU380     -0.1231
     43  CA        25.4890  -46.3340   17.7030 C.3   380  LEU380      0.1693
     44  C         24.5690  -46.6780   16.5540 C.2   380  LEU380      0.2591
     45  O         24.0270  -47.7810   16.5050 O.2   380  LEU380     -0.2718
     46  CB        24.7650  -45.4610   18.7410 C.3   380  LEU380      0.0284
     47  CG        23.7940  -46.1480   19.7320 C.3   380  LEU380      0.0019
     48  CD1       23.1790  -45.1440   20.6930 C.3   380  LEU380      0.0001
     49  CD2       22.6980  -46.9830   19.0990 C.3   380  LEU380      0.0001
     50  N         24.3900  -45.7330   15.6320 N.am  381  ALA381     -0.1980
     51  CA        23.4000  -45.9220   14.5820 C.3   381  ALA381      0.1597
     52  C         23.7620  -47.1830   13.7870 C.2   381  ALA381      0.2287
     53  O         22.8850  -47.8540   13.2400 O.2   381  ALA381     -0.2864
     54  CB        23.3350  -44.7020   13.6770 C.3   381  ALA381      0.0319
     55  N         15.5700  -51.8400   19.5990 N.3   441  PHE441     -0.1227
     56  CA        15.3630  -50.4040   19.6200 C.3   441  PHE441      0.1736
     57  C         15.7620  -49.8950   18.2570 C.2   441  PHE441      0.2595
     58  O         14.9300  -49.4110   17.5010 O.2   441  PHE441     -0.2718
     59  CB        16.1760  -49.6770   20.6890 C.3   441  PHE441      0.0547
     60  CG        16.0410  -48.1720   20.6170 C.ar  441  PHE441     -0.0202
     61  CD1       14.7920  -47.5770   20.6030 C.ar  441  PHE441     -0.0042
     62  CD2       17.1620  -47.3570   20.5410 C.ar  441  PHE441     -0.0042
     63  CE1       14.6630  -46.1980   20.5240 C.ar  441  PHE441     -0.0003
     64  CE2       17.0380  -45.9750   20.4630 C.ar  441  PHE441     -0.0003
     65  CZ        15.7870  -45.3980   20.4560 C.ar  441  PHE441     -0.0000
     66  N         17.0400  -50.0900   17.9340 N.am  442  LEU442     -0.1980
     67  CA        17.6110  -49.6880   16.6530 C.3   442  LEU442      0.1596
     68  C         16.9630  -50.2990   15.4250 C.2   442  LEU442      0.2287
     69  O         16.7630  -49.5780   14.4600 O.2   442  LEU442     -0.2864
     70  CB        19.0930  -50.0460   16.6330 C.3   442  LEU442      0.0297
     71  CG        19.8940  -49.6520   17.8630 C.3   442  LEU442      0.0022
     72  CD1       21.3490  -49.7980   17.5590 C.3   442  LEU442      0.0001
     73  CD2       19.5850  -48.2290   18.2290 C.3   442  LEU442      0.0001
     74  N         13.6320  -51.2320   14.6170 N.3   444  HIS444     -0.1226
     75  CA        12.5280  -50.3930   14.1630 C.3   444  HIS444      0.1752
     76  C         12.7300  -48.8820   14.3970 C.2   444  HIS444      0.2596
     77  O         11.7600  -48.1780   14.6890 O.2   444  HIS444     -0.2718
     78  CB        11.2060  -50.8270   14.8220 C.3   444  HIS444      0.0759
     79  CG        10.9680  -52.3090   14.8280 C.ar  444  HIS444      0.0818
     80  ND1       11.9560  -53.2380   15.0770 N.ar  444  HIS444     -0.2268
     81  CD2        9.8480  -53.0210   14.5590 C.ar  444  HIS444      0.1154
     82  CE1       11.4480  -54.4540   14.9950 C.ar  444  HIS444      0.1986
     83  NE2       10.1720  -54.3510   14.6740 N.ar  444  HIS444     -0.2212
     84  N         13.9580  -48.3730   14.2610 N.am  445  VAL445     -0.1966
     85  CA        14.2110  -46.9630   14.5960 C.3   445  VAL445      0.1727
     86  C         15.2170  -46.2570   13.6590 C.2   445  VAL445      0.2616
     87  O         15.0530  -45.0710   13.3600 O.2   445  VAL445     -0.2715
     88  CB        14.6910  -46.8250   16.0720 C.3   445  VAL445      0.0290
     89  CG1       15.9240  -45.9410   16.1930 C.3   445  VAL445      0.0023
     90  CG2       13.5790  -46.2570   16.9420 C.3   445  VAL445      0.0023
     91  N         16.2720  -46.9530   13.2310 N.am  446  VAL446     -0.1963
     92  CA        17.2020  -46.3810   12.2490 C.3   446  VAL446      0.1727
     93  C         16.6800  -46.4220   10.8130 C.2   446  VAL446      0.2616
     94  O         15.8100  -47.2320   10.4620 O.2   446  VAL446     -0.2715
     95  CB        18.5810  -47.0730   12.2610 C.3   446  VAL446      0.0290
     96  CG1       19.3230  -46.7020   13.5200 C.3   446  VAL446      0.0023
     97  CG2       18.4350  -48.5630   12.1890 C.3   446  VAL446      0.0023
     98  N         17.2560  -45.5460    9.9950 N.am  447  ASP447     -0.1971
     99  CA        16.9130  -45.3860    8.5860 C.3   447  ASP447      0.1709
    100  C         17.0190  -46.7200    7.8150 C.2   447  ASP447      0.2293
    101  O         18.0750  -47.3570    7.7890 O.2   447  ASP447     -0.2864
    102  CB        17.7980  -44.3140    7.9450 C.3   447  ASP447      0.1436
    103  CG        17.3080  -43.9160    6.5780 C.2   447  ASP447      0.3671
    104  OD1       16.0730  -43.8030    6.4300 O.co2 447  ASP447     -0.2456
    105  OD2       18.1330  -43.7360    5.6570 O.co2 447  ASP447     -0.2456
    106  N         20.4020  -47.6410    5.8020 N.3   450  THR450     -0.1218
    107  CA        21.6560  -47.8160    6.5080 C.3   450  THR450      0.1862
    108  C         21.8970  -49.2460    7.0100 C.2   450  THR450      0.2287
    109  O         23.0490  -49.6910    7.1360 O.2   450  THR450     -0.2866
    110  CB        21.6830  -46.8210    7.6840 C.3   450  THR450      0.1770
    111  OG1       21.4550  -45.4970    7.1840 O.3   450  THR450     -0.2211
    112  CG2       22.9900  -46.8640    8.4190 C.3   450  THR450      0.0375
@<TRIPOS>BOND
     1   105   103   ar
     2   106   107    1
     3   104   103   ar
     4   107   108    1
     5   107   110    1
     6   103   102    1
     7   108   109    2
     8   111   110    1
     9   110   112    1
    10   101   100    2
    11   100    99    1
    12   102    99    1
    13    99    98    1
    14    98    93   am
    15    94    93    2
    16    93    92    1
    17    97    95    1
    18    92    95    1
    19    92    91    1
    20    95    96    1
    21    91    86   am
    22    53    52    2
    23    87    86    2
    24    86    85    1
    25    54    51    1
    26    52    51    1
    27    75    76    1
    28    75    74    1
    29    75    78    1
    30    84    76   am
    31    84    85    1
    32    76    77    2
    33    69    68    2
    34    81    83   ar
    35    81    79   ar
    36    51    50    1
    37    85    88    1
    38    83    82   ar
    39    78    79    1
    40    79    80   ar
    41    82    80   ar
    42    68    67    1
    43    50    44   am
    44    34    33    2
    45    88    89    1
    46    88    90    1
    47    33    32    1
    48    45    44    2
    49    44    43    1
    50    70    67    1
    51    70    71    1
    52    67    66    1
    53    37    36    1
    54    37    38    1
    55    36    35    1
    56    35    32    1
    57    42    43    1
    58    32    31    1
    59    58    57    2
    60    38    39    2
    61    72    71    1
    62    43    46    1
    63    71    73    1
    64    66    57   am
    65    40    39    1
    66    39    41    1
    67    57    56    1
    68    46    47    1
    69    49    47    1
    70    20    19    1
    71    13    12    2
    72    55    56    1
    73    56    59    1
    74    47    48    1
    75    18    17    2
    76    29    28   ar
    77    65    64   ar
    78    65    63   ar
    79    64    62   ar
    80    12    14   am
    81    12    11    1
    82    63    61   ar
    83    62    60   ar
    84    61    60   ar
    85    60    59    1
    86    19    21    1
    87    19    16    1
    88    25    24    2
    89    28    27    1
    90    28    30   ar
    91    27    26    1
    92    23    26    1
    93    23    22    1
    94    23    24    1
    95    17    22   am
    96    17    16    1
    97    16    15    1
    98     5     2    1
    99    11    10    1
   100     9     8    2
   101     7    10    1
   102     7     8    1
   103     7     6    1
   104     4     3    2
   105     2     3    1
   106     2     1    1
