@<TRIPOS>MOLECULE
tmp/4m9zA00.pdb
 126 119 0 0 0
SMALL
GASTEIGER

@<TRIPOS>ATOM
      1  N        102.3460  -46.3710  -26.3050 N.3   363  ALA363     -0.1245
      2  CA       102.8230  -45.6170  -27.4540 C.3   363  ALA363      0.1562
      3  C        102.6950  -44.1210  -27.1950 C.2   363  ALA363      0.2260
      4  O        103.4890  -43.3180  -27.6960 O.2   363  ALA363     -0.2867
      5  CB       102.0510  -46.0180  -28.7100 C.3   363  ALA363      0.0290
      6  N        105.9940  -41.8530  -27.2220 N.3   366  GLN366     -0.1245
      7  CA       105.8110  -40.6290  -27.9980 C.3   366  GLN366      0.1566
      8  C        106.7200  -39.5330  -27.4590 C.2   366  GLN366      0.2260
      9  O        107.6710  -39.0770  -28.1230 O.2   366  GLN366     -0.2867
     10  CB       104.3510  -40.1720  -27.8880 C.3   366  GLN366      0.0367
     11  CG       103.9220  -38.9590  -28.6980 C.3   366  GLN366      0.0905
     12  CD       103.2540  -39.3240  -29.9940 C.2   366  GLN366      0.2608
     13  OE1      103.8480  -39.2050  -31.0580 O.2   366  GLN366     -0.2717
     14  NE2      102.0070  -39.7800  -29.9120 N.am  366  GLN366     -0.0878
     15  N        110.4110  -39.8950  -27.3440 N.3   369  VAL369     -0.1231
     16  CA       111.0390  -39.8740  -28.6620 C.3   369  VAL369      0.1692
     17  C        111.1390  -38.4440  -29.1830 C.2   369  VAL369      0.2591
     18  O        112.0420  -38.1080  -29.9520 O.2   369  VAL369     -0.2718
     19  CB       110.2630  -40.7650  -29.6680 C.3   369  VAL369      0.0266
     20  CG1      110.6480  -40.4600  -31.1130 C.3   369  VAL369      0.0020
     21  CG2      110.5040  -42.2320  -29.3630 C.3   369  VAL369      0.0020
     22  N        110.2260  -37.5890  -28.7340 N.am  370  GLU370     -0.1979
     23  CA       110.2710  -36.1960  -29.1670 C.3   370  GLU370      0.1602
     24  C        111.4640  -35.4480  -28.5640 C.2   370  GLU370      0.2287
     25  O        112.1440  -34.7060  -29.2710 O.2   370  GLU370     -0.2864
     26  CB       108.9590  -35.4970  -28.8050 C.3   370  GLU370      0.0415
     27  CG       107.7390  -36.3300  -29.1560 C.3   370  GLU370      0.1163
     28  CD       106.4420  -35.5560  -29.1290 C.2   370  GLU370      0.3649
     29  OE1      105.4600  -36.0210  -29.7490 O.co2 370  GLU370     -0.2457
     30  OE2      106.3970  -34.4990  -28.4680 O.co2 370  GLU370     -0.2457
     31  N        118.0920  -35.1330  -32.4720 N.3   374  ASP374     -0.1239
     32  CA       117.6490  -35.4180  -33.8440 C.3   374  ASP374      0.1674
     33  C        118.2710  -36.6730  -34.4890 C.2   374  ASP374      0.2266
     34  O        117.5850  -37.5120  -35.1130 O.2   374  ASP374     -0.2867
     35  CB       117.9840  -34.1920  -34.7010 C.3   374  ASP374      0.1410
     36  CG       116.8160  -33.7080  -35.5280 C.2   374  ASP374      0.3668
     37  OD1      115.8730  -34.4890  -35.7610 O.co2 374  ASP374     -0.2456
     38  OD2      116.8410  -32.5260  -35.9360 O.co2 374  ASP374     -0.2456
     39  N        117.0450  -39.6030  -32.7380 N.3   377  ARG377     -0.1231
     40  CA       115.7180  -39.8760  -33.2630 C.3   377  ARG377      0.1694
     41  C        115.8760  -40.7260  -34.5210 C.2   377  ARG377      0.2592
     42  O        115.0280  -41.5680  -34.8390 O.2   377  ARG377     -0.2718
     43  CB       114.9680  -38.5820  -33.5550 C.3   377  ARG377      0.0321
     44  CG       113.4590  -38.7160  -33.5630 C.3   377  ARG377      0.0489
     45  CD       112.8490  -37.3310  -33.5330 C.3   377  ARG377      0.2205
     46  NE       113.7490  -36.3990  -32.8570 N.pl3 377  ARG377     -0.0865
     47  CZ       113.3700  -35.2680  -32.2730 C.cat 377  ARG377      0.5346
     48  NH1      112.0940  -34.9090  -32.2770 N.pl3 377  ARG377      0.1354
     49  NH2      114.2710  -34.4880  -31.6940 N.pl3 377  ARG377      0.1354
     50  N        116.9960  -40.5130  -35.2200 N.am  378  SER378     -0.1952
     51  CA       117.2700  -41.2540  -36.4580 C.3   378  SER378      0.1924
     52  C        117.7090  -42.6990  -36.1810 C.2   378  SER378      0.2314
     53  O        117.0950  -43.6540  -36.6740 O.2   378  SER378     -0.2863
     54  CB       118.3300  -40.5350  -37.2940 C.3   378  SER378      0.2116
     55  OG       118.6140  -41.2600  -38.4770 O.3   378  SER378     -0.2180
     56  N        117.2670  -44.3770  -33.6010 N.3   380  LEU380     -0.1231
     57  CA       116.1300  -45.0630  -33.0190 C.3   380  LEU380      0.1693
     58  C        115.2280  -45.4440  -34.1870 C.2   380  LEU380      0.2591
     59  O        114.7410  -46.5730  -34.2430 O.2   380  LEU380     -0.2718
     60  CB       115.4100  -44.1700  -31.9960 C.3   380  LEU380      0.0284
     61  CG       114.4450  -44.7620  -30.9570 C.3   380  LEU380      0.0019
     62  CD1      113.8730  -43.6900  -30.0480 C.3   380  LEU380      0.0001
     63  CD2      113.3190  -45.5050  -31.6000 C.3   380  LEU380      0.0001
     64  N        115.0210  -44.5140  -35.1240 N.am  381  ALA381     -0.1980
     65  CA       114.0480  -44.7390  -36.1950 C.3   381  ALA381      0.1597
     66  C        114.4560  -45.9770  -36.9930 C.2   381  ALA381      0.2287
     67  O        113.6190  -46.6360  -37.6060 O.2   381  ALA381     -0.2864
     68  CB       113.9430  -43.5270  -37.1030 C.3   381  ALA381      0.0319
     69  N        106.7830  -50.8700  -30.7990 N.3   441  PHE441     -0.1227
     70  CA       106.4550  -49.4570  -30.7290 C.3   441  PHE441      0.1736
     71  C        106.7460  -48.9190  -32.1080 C.2   441  PHE441      0.2595
     72  O        105.8700  -48.4260  -32.8110 O.2   441  PHE441     -0.2718
     73  CB       107.2440  -48.6930  -29.6720 C.3   441  PHE441      0.0547
     74  CG       106.9750  -47.2130  -29.6970 C.ar  441  PHE441     -0.0202
     75  CD1      105.6760  -46.7280  -29.6450 C.ar  441  PHE441     -0.0042
     76  CD2      108.0140  -46.3090  -29.8200 C.ar  441  PHE441     -0.0042
     77  CE1      105.4250  -45.3680  -29.6920 C.ar  441  PHE441     -0.0003
     78  CE2      107.7690  -44.9500  -29.8680 C.ar  441  PHE441     -0.0003
     79  CZ       106.4740  -44.4790  -29.8020 C.ar  441  PHE441     -0.0000
     80  N        108.0140  -49.0490  -32.4700 N.am  442  LEU442     -0.1980
     81  CA       108.5490  -48.6390  -33.7560 C.3   442  LEU442      0.1596
     82  C        107.8790  -49.2950  -34.9510 C.2   442  LEU442      0.2287
     83  O        107.6680  -48.6140  -35.9450 O.2   442  LEU442     -0.2864
     84  CB       110.0410  -48.9510  -33.8110 C.3   442  LEU442      0.0297
     85  CG       110.8530  -48.5320  -32.5940 C.3   442  LEU442      0.0022
     86  CD1      112.3280  -48.6240  -32.9140 C.3   442  LEU442      0.0001
     87  CD2      110.4570  -47.1330  -32.1820 C.3   442  LEU442      0.0001
     88  N        104.5130  -50.2890  -35.8010 N.3   444  HIS444     -0.1226
     89  CA       103.4110  -49.4820  -36.3280 C.3   444  HIS444      0.1752
     90  C        103.5790  -47.9660  -36.1400 C.2   444  HIS444      0.2596
     91  O        102.5910  -47.2730  -35.8840 O.2   444  HIS444     -0.2718
     92  CB       102.0560  -49.8920  -35.7220 C.3   444  HIS444      0.0759
     93  CG       101.8060  -51.3700  -35.6790 C.ar  444  HIS444      0.0818
     94  ND1      102.7730  -52.2970  -35.3530 N.ar  444  HIS444     -0.2268
     95  CD2      100.6890  -52.0810  -35.9630 C.ar  444  HIS444      0.1154
     96  CE1      102.2560  -53.5110  -35.4160 C.ar  444  HIS444      0.1986
     97  NE2      100.9950  -53.4080  -35.7900 N.ar  444  HIS444     -0.2212
     98  N        104.7950  -47.4360  -36.2480 N.am  445  VAL445     -0.1966
     99  CA       104.9780  -46.0170  -35.9500 C.3   445  VAL445      0.1727
    100  C        105.9890  -45.3210  -36.8730 C.2   445  VAL445      0.2616
    101  O        105.7620  -44.1840  -37.2900 O.2   445  VAL445     -0.2715
    102  CB       105.3890  -45.8190  -34.4600 C.3   445  VAL445      0.0290
    103  CG1      106.6040  -44.9080  -34.3200 C.3   445  VAL445      0.0023
    104  CG2      104.2210  -45.2650  -33.6600 C.3   445  VAL445      0.0023
    105  N        107.0810  -45.9980  -37.2270 N.am  446  VAL446     -0.1963
    106  CA       108.0130  -45.4200  -38.1940 C.3   446  VAL446      0.1727
    107  C        107.4770  -45.5630  -39.6110 C.2   446  VAL446      0.2616
    108  O        106.6160  -46.4000  -39.8790 O.2   446  VAL446     -0.2715
    109  CB       109.4180  -46.0640  -38.1420 C.3   446  VAL446      0.0290
    110  CG1      110.1670  -45.6060  -36.8950 C.3   446  VAL446      0.0023
    111  CG2      109.3210  -47.5720  -38.1850 C.3   446  VAL446      0.0023
    112  N        107.9810  -44.7160  -40.5010 N.am  447  ASP447     -0.1971
    113  CA       107.5750  -44.6980  -41.9010 C.3   447  ASP447      0.1709
    114  C        107.7420  -46.0640  -42.5590 C.2   447  ASP447      0.2293
    115  O        108.8420  -46.6170  -42.5560 O.2   447  ASP447     -0.2864
    116  CB       108.3720  -43.6530  -42.6810 C.3   447  ASP447      0.1436
    117  CG       107.8080  -43.4060  -44.0650 C.2   447  ASP447      0.3671
    118  OD1      106.5680  -43.3590  -44.2020 O.co2 447  ASP447     -0.2456
    119  OD2      108.6040  -43.2510  -45.0150 O.co2 447  ASP447     -0.2456
    120  N        110.9690  -46.5100  -44.4080 N.3   450  THR450     -0.1218
    121  CA       112.2410  -46.5260  -43.6980 C.3   450  THR450      0.1862
    122  C        112.5860  -47.9220  -43.1710 C.2   450  THR450      0.2287
    123  O        113.7640  -48.2860  -43.0400 O.2   450  THR450     -0.2866
    124  CB       112.1760  -45.5150  -42.5300 C.3   450  THR450      0.1770
    125  OG1      111.8070  -44.2250  -43.0390 O.3   450  THR450     -0.2211
    126  CG2      113.4910  -45.4110  -41.8050 C.3   450  THR450      0.0375
@<TRIPOS>BOND
     1   119   117   ar
     2   120   121    1
     3   118   117   ar
     4   117   116    1
     5   121   122    1
     6   121   124    1
     7   122   123    2
     8   125   124    1
     9   116   113    1
    10   114   115    2
    11   114   113    1
    12   124   126    1
    13   113   112    1
    14   112   107   am
    15   108   107    2
    16   107   106    1
    17    55    54    1
    18   106   109    1
    19   106   105    1
    20   111   109    1
    21   109   110    1
    22    67    66    2
    23    54    51    1
    24   101   100    2
    25   105   100   am
    26    68    65    1
    27    66    65    1
    28   100    99    1
    29    53    52    2
    30    51    52    1
    31    51    50    1
    32    89    90    1
    33    89    88    1
    34    89    92    1
    35    98    90   am
    36    98    99    1
    37    65    64    1
    38    90    91    2
    39    95    97   ar
    40    95    93   ar
    41    99   102    1
    42    83    82    2
    43    38    36   ar
    44    97    96   ar
    45    37    36   ar
    46    92    93    1
    47    93    94   ar
    48    36    35    1
    49    96    94   ar
    50    50    41   am
    51    64    58   am
    52    34    33    2
    53    82    81    1
    54    42    41    2
    55    35    32    1
    56    41    40    1
    57    33    32    1
    58   102   103    1
    59   102   104    1
    60    59    58    2
    61    58    57    1
    62    32    31    1
    63    84    81    1
    64    84    85    1
    65    81    80    1
    66    56    57    1
    67    44    43    1
    68    44    45    1
    69    43    40    1
    70    45    46    1
    71    40    39    1
    72    57    60    1
    73    86    85    1
    74    46    47    2
    75    72    71    2
    76    85    87    1
    77    80    71   am
    78    48    47    1
    79    47    49    1
    80    71    70    1
    81    60    61    1
    82    63    61    1
    83    20    19    1
    84    13    12    2
    85    61    62    1
    86    69    70    1
    87    70    73    1
    88    12    14   am
    89    12    11    1
    90    18    17    2
    91    78    76   ar
    92    78    79   ar
    93    76    74   ar
    94    79    77   ar
    95    29    28   ar
    96    74    73    1
    97    74    75   ar
    98    77    75   ar
    99    19    21    1
   100    19    16    1
   101    25    24    2
   102    17    22   am
   103    17    16    1
   104    23    26    1
   105    23    22    1
   106    23    24    1
   107    27    28    1
   108    27    26    1
   109    28    30   ar
   110     5     2    1
   111    11    10    1
   112    16    15    1
   113     9     8    2
   114     7    10    1
   115     7     8    1
   116     7     6    1
   117     4     3    2
   118     2     3    1
   119     2     1    1
