@<TRIPOS>MOLECULE
tmp/4m9zG00.pdb
 113 108 0 0 0
SMALL
GASTEIGER

@<TRIPOS>ATOM
      1  N        109.7130  -40.4180  -73.0470 N.3   366  GLN366     -0.1245
      2  CA       108.8780  -39.6350  -72.1370 C.3   366  GLN366      0.1566
      3  C        107.4580  -39.5470  -72.6820 C.2   366  GLN366      0.2260
      4  O        106.5000  -40.0150  -72.0670 O.2   366  GLN366     -0.2867
      5  CB       109.4600  -38.2580  -71.8350 C.3   366  GLN366      0.0367
      6  CG       108.6080  -37.5290  -70.7980 C.3   366  GLN366      0.0905
      7  CD       109.1380  -37.6730  -69.3750 C.2   366  GLN366      0.2608
      8  OE1      108.7540  -38.5980  -68.6590 O.2   366  GLN366     -0.2717
      9  NE2      110.0070  -36.7630  -68.9600 N.am  366  GLN366     -0.0878
     10  N        105.3960  -42.3880  -73.1110 N.3   369  VAL369     -0.1231
     11  CA       105.0110  -42.9050  -71.8070 C.3   369  VAL369      0.1692
     12  C        103.8120  -42.1090  -71.2870 C.2   369  VAL369      0.2591
     13  O        103.0270  -42.6030  -70.4760 O.2   369  VAL369     -0.2718
     14  CB       106.1900  -42.8410  -70.7980 C.3   369  VAL369      0.0266
     15  CG1      105.8930  -41.8800  -69.6490 C.3   369  VAL369      0.0020
     16  CG2      106.4790  -44.2090  -70.2380 C.3   369  VAL369      0.0020
     17  N        103.7010  -40.8630  -71.7450 N.am  370  GLU370     -0.1979
     18  CA       102.6000  -39.9760  -71.3650 C.3   370  GLU370      0.1602
     19  C        101.2420  -40.3710  -71.9490 C.2   370  GLU370      0.2287
     20  O        100.2300  -40.3260  -71.2510 O.2   370  GLU370     -0.2864
     21  CB       102.8960  -38.5360  -71.8000 C.3   370  GLU370      0.0415
     22  CG       104.2910  -38.0280  -71.5030 C.3   370  GLU370      0.1163
     23  CD       104.4030  -36.5220  -71.6460 C.2   370  GLU370      0.3649
     24  OE1      105.3530  -35.9350  -71.0890 O.co2 370  GLU370     -0.2457
     25  OE2      103.5350  -35.9250  -72.3170 O.co2 370  GLU370     -0.2457
     26  N        100.3270  -47.3120  -67.7340 N.3   377  ARG377     -0.1231
     27  CA       101.3990  -46.4630  -67.2310 C.3   377  ARG377      0.1694
     28  C        101.9700  -47.1090  -65.9800 C.2   377  ARG377      0.2592
     29  O        103.1740  -47.0310  -65.7040 O.2   377  ARG377     -0.2718
     30  CB       100.8840  -45.0700  -66.8990 C.3   377  ARG377      0.0321
     31  CG       101.9290  -43.9750  -66.9030 C.3   377  ARG377      0.0489
     32  CD       101.2230  -42.6340  -66.8730 C.3   377  ARG377      0.2205
     33  NE        99.9060  -42.7250  -67.4980 N.pl3 377  ARG377     -0.0865
     34  CZ        99.2500  -41.6960  -68.0210 C.cat 377  ARG377      0.5346
     35  NH1       99.7810  -40.4840  -67.9880 N.pl3 377  ARG377      0.1354
     36  NH2       98.0520  -41.8770  -68.5610 N.pl3 377  ARG377      0.1354
     37  N        101.0980  -47.8180  -65.2630 N.am  378  SER378     -0.1952
     38  CA       101.5130  -48.4790  -64.0280 C.3   378  SER378      0.1924
     39  C        102.3380  -49.7260  -64.3430 C.2   378  SER378      0.2314
     40  O        103.4670  -49.8670  -63.8640 O.2   378  SER378     -0.2863
     41  CB       100.3040  -48.8430  -63.1630 C.3   378  SER378      0.2116
     42  OG        99.5410  -49.8790  -63.7540 O.3   378  SER378     -0.2180
     43  N        103.9420  -50.4770  -66.9970 N.3   380  LEU380     -0.1231
     44  CA       105.2080  -50.0950  -67.5990 C.3   380  LEU380      0.1693
     45  C        106.1020  -49.6410  -66.4530 C.2   380  LEU380      0.2592
     46  O        107.2690  -50.0250  -66.3850 O.2   380  LEU380     -0.2718
     47  CB       105.0050  -48.9980  -68.6530 C.3   380  LEU380      0.0284
     48  CG       106.0960  -48.7200  -69.6970 C.3   380  LEU380      0.0019
     49  CD1      105.6840  -47.6210  -70.6420 C.3   380  LEU380      0.0001
     50  CD2      107.4050  -48.3530  -69.0750 C.3   380  LEU380      0.0001
     51  N        105.5440  -48.8400  -65.5450 N.am  381  ALA381     -0.1966
     52  CA       106.3370  -48.2260  -64.4850 C.3   381  ALA381      0.1728
     53  C        106.9740  -49.3290  -63.6440 C.2   381  ALA381      0.2616
     54  O        108.0240  -49.1380  -63.0340 O.2   381  ALA381     -0.2715
     55  CB       105.4910  -47.3120  -63.6230 C.3   381  ALA381      0.0334
     56  N        106.3170  -50.4870  -63.6240 N.am  382  PHE382     -0.1974
     57  CA       106.7740  -51.6340  -62.8470 C.3   382  PHE382      0.1639
     58  C        107.7310  -52.5910  -63.5500 C.2   382  PHE382      0.2290
     59  O        108.5760  -53.1960  -62.8940 O.2   382  PHE382     -0.2864
     60  CB       105.5710  -52.4520  -62.3830 C.3   382  PHE382      0.0560
     61  CG       104.9970  -51.9970  -61.0860 C.ar  382  PHE382     -0.0200
     62  CD1      105.7970  -51.4050  -60.1250 C.ar  382  PHE382     -0.0042
     63  CD2      103.6520  -52.1610  -60.8280 C.ar  382  PHE382     -0.0042
     64  CE1      105.2600  -50.9860  -58.9210 C.ar  382  PHE382     -0.0003
     65  CE2      103.1070  -51.7480  -59.6300 C.ar  382  PHE382     -0.0003
     66  CZ       103.9130  -51.1570  -58.6740 C.ar  382  PHE382     -0.0000
     67  N        113.4450  -46.3320  -68.0430 N.3   439  LEU439     -0.1245
     68  CA       112.8070  -46.5690  -66.7570 C.3   439  LEU439      0.1561
     69  C        113.7040  -46.4940  -65.5200 C.2   439  LEU439      0.2260
     70  O        113.2730  -45.9390  -64.5180 O.2   439  LEU439     -0.2867
     71  CB       112.1520  -47.9550  -66.7880 C.3   439  LEU439      0.0270
     72  CG       111.3180  -48.2780  -68.0250 C.3   439  LEU439      0.0019
     73  CD1      110.4820  -49.5310  -67.8240 C.3   439  LEU439      0.0001
     74  CD2      110.4450  -47.0890  -68.3480 C.3   439  LEU439      0.0001
     75  N        116.5750  -44.5160  -64.5400 N.3   441  HIS441     -0.1226
     76  CA       116.6470  -43.1550  -64.0060 C.3   441  HIS441      0.1752
     77  C        115.3720  -42.3380  -64.2390 C.2   441  HIS441      0.2596
     78  O        115.4500  -41.1360  -64.4920 O.2   441  HIS441     -0.2718
     79  CB       117.8450  -42.3810  -64.5800 C.3   441  HIS441      0.0759
     80  CG       119.1340  -43.1460  -64.5920 C.ar  441  HIS441      0.0818
     81  ND1      119.2220  -44.4830  -64.9170 N.ar  441  HIS441     -0.2268
     82  CD2      120.3920  -42.7540  -64.2800 C.ar  441  HIS441      0.1154
     83  CE1      120.4790  -44.8760  -64.8220 C.ar  441  HIS441      0.1986
     84  NE2      121.2080  -43.8480  -64.4310 N.ar  441  HIS441     -0.2212
     85  N        114.2050  -42.9700  -64.1610 N.am  442  VAL442     -0.1966
     86  CA       112.9750  -42.2620  -64.5000 C.3   442  VAL442      0.1727
     87  C        111.7940  -42.6390  -63.6010 C.2   442  VAL442      0.2616
     88  O        111.0220  -41.7660  -63.2190 O.2   442  VAL442     -0.2715
     89  CB       112.6110  -42.4700  -65.9940 C.3   442  VAL442      0.0290
     90  CG1      111.1740  -42.9180  -66.1790 C.3   442  VAL442      0.0023
     91  CG2      112.8910  -41.2030  -66.7960 C.3   442  VAL442      0.0023
     92  N        111.6720  -43.9110  -63.2210 N.am  443  VAL443     -0.1963
     93  CA       110.6210  -44.2880  -62.2760 C.3   443  VAL443      0.1727
     94  C        111.0390  -43.8760  -60.8750 C.2   443  VAL443      0.2616
     95  O        112.2240  -43.6730  -60.6070 O.2   443  VAL443     -0.2715
     96  CB       110.3130  -45.8050  -62.2730 C.3   443  VAL443      0.0290
     97  CG1      109.5480  -46.1970  -63.5300 C.3   443  VAL443      0.0023
     98  CG2      111.5860  -46.6150  -62.1470 C.3   443  VAL443      0.0023
     99  N        110.0540  -43.7420  -59.9950 N.am  444  ASP444     -0.1971
    100  CA       110.2800  -43.3270  -58.6160 C.3   444  ASP444      0.1709
    101  C        111.3040  -44.2230  -57.9250 C.2   444  ASP444      0.2293
    102  O        111.1290  -45.4380  -57.8670 O.2   444  ASP444     -0.2864
    103  CB       108.9630  -43.3320  -57.8410 C.3   444  ASP444      0.1436
    104  CG       109.0820  -42.6580  -56.4960 C.2   444  ASP444      0.3671
    105  OD1      109.7640  -41.6150  -56.4180 O.co2 444  ASP444     -0.2456
    106  OD2      108.4940  -43.1670  -55.5190 O.co2 444  ASP444     -0.2456
    107  N        109.9350  -46.9920  -55.8950 N.3   447  THR447     -0.1218
    108  CA       109.1630  -47.9870  -56.6350 C.3   447  THR447      0.1862
    109  C        110.0410  -49.0740  -57.2500 C.2   447  THR447      0.2287
    110  O        109.5840  -50.1950  -57.4740 O.2   447  THR447     -0.2866
    111  CB       108.3390  -47.3000  -57.7500 C.3   447  THR447      0.1770
    112  OG1      107.5270  -46.2670  -57.1770 O.3   447  THR447     -0.2211
    113  CG2      107.4540  -48.2970  -58.4750 C.3   447  THR447      0.0375
@<TRIPOS>BOND
     1    10    11    1
     2     1     2    1
     3     3     2    1
     4     3     4    2
     5    25    23   ar
     6     2     5    1
     7    19    18    1
     8    19    20    2
     9     5     6    1
    10    11    12    1
    11    11    14    1
    12    21    22    1
    13    21    18    1
    14    17    18    1
    15    17    12   am
    16    23    22    1
    17    23    24   ar
    18    12    13    2
    19    14    16    1
    20    14    15    1
    21     6     7    1
    22    49    48    1
    23    48    50    1
    24    48    47    1
    25     7     9   am
    26     7     8    2
    27    47    44    1
    28    36    34    1
    29    74    72    1
    30    67    68    1
    31    72    73    1
    32    72    71    1
    33    34    35    1
    34    34    33    2
    35    26    27    1
    36    44    43    1
    37    44    45    1
    38    33    32    1
    39    27    30    1
    40    27    28    1
    41    31    30    1
    42    31    32    1
    43    91    89    1
    44    71    68    1
    45    68    69    1
    46    45    46    2
    47    45    51   am
    48    90    89    1
    49    89    86    1
    50    28    29    2
    51    28    37   am
    52    51    52    1
    53    69    70    2
    54    37    38    1
    55    81    83   ar
    56    81    80   ar
    57    83    84   ar
    58    80    79    1
    59    80    82   ar
    60    79    76    1
    61    75    76    1
    62    86    85    1
    63    86    87    1
    64    78    77    2
    65    52    53    1
    66    52    55    1
    67    84    82   ar
    68    39    38    1
    69    39    40    2
    70    77    85   am
    71    77    76    1
    72    38    41    1
    73    42    41    1
    74    53    56   am
    75    53    54    2
    76    56    57    1
    77    87    92   am
    78    87    88    2
    79    58    59    2
    80    58    57    1
    81    97    96    1
    82    92    93    1
    83    57    60    1
    84    60    61    1
    85    93    96    1
    86    93    94    1
    87    96    98    1
    88    61    63   ar
    89    61    62   ar
    90    94    95    2
    91    94    99   am
    92    63    65   ar
    93    62    64   ar
    94    99   100    1
    95    65    66   ar
    96    64    66   ar
    97   100   101    1
    98   100   103    1
    99   113   111    1
   100   101   102    2
   101   103   104    1
   102   111   112    1
   103   111   108    1
   104   110   109    2
   105   109   108    1
   106   108   107    1
   107   104   105   ar
   108   104   106   ar
