@<TRIPOS>MOLECULE
tmp/4ma0A00.pdb
 173 164 0 0 0
SMALL
GASTEIGER

@<TRIPOS>ATOM
      1  N         21.2480   21.9130   33.6630 N.3    96  ARG96      -0.1245
      2  CA        20.5340   20.7130   34.1030 C.3    96  ARG96       0.1563
      3  C         19.6450   20.9560   35.3230 C.2    96  ARG96       0.2260
      4  O         18.5570   20.4060   35.4230 O.2    96  ARG96      -0.2867
      5  CB        21.5090   19.5690   34.3760 C.3    96  ARG96       0.0307
      6  CG        22.4600   19.2960   33.2130 C.3    96  ARG96       0.0489
      7  CD        23.1490   17.9490   33.3760 C.3    96  ARG96       0.2205
      8  NE        22.1640   16.8690   33.3890 N.pl3  96  ARG96      -0.0865
      9  CZ        21.7330   16.2410   32.2970 C.cat  96  ARG96       0.5346
     10  NH1       22.2160   16.5790   31.1010 N.pl3  96  ARG96       0.1354
     11  NH2       20.8290   15.2700   32.4010 N.pl3  96  ARG96       0.1354
     12  N         14.4040   12.1900   36.3580 N.3   110  ALA110     -0.1245
     13  CA        15.2070   11.5380   37.3690 C.3   110  ALA110      0.1562
     14  C         15.1080   12.3520   38.6550 C.2   110  ALA110      0.2260
     15  O         14.9670   13.5750   38.6060 O.2   110  ALA110     -0.2867
     16  CB        16.6560   11.4730   36.9010 C.3   110  ALA110      0.0290
     17  N         24.6360    9.5990   39.3140 N.3   133  ILE133     -0.1245
     18  CA        25.5980   10.3570   38.5350 C.3   133  ILE133      0.1561
     19  C         25.7410   11.7800   39.0640 C.2   133  ILE133      0.2260
     20  O         24.7570   12.4490   39.3590 O.2   133  ILE133     -0.2867
     21  CB        25.1830   10.4160   37.0470 C.3   133  ILE133      0.0252
     22  CG1       24.7230    9.0400   36.5630 C.3   133  ILE133      0.0019
     23  CG2       26.3210   10.9580   36.1970 C.3   133  ILE133      0.0019
     24  CD1       23.9790    9.0630   35.2330 C.3   133  ILE133      0.0001
     25  N         26.9250   15.3220   37.7640 N.3   135  LYS135     -0.1245
     26  CA        27.1010   15.9680   36.4630 C.3   135  LYS135      0.1561
     27  C         27.3210   17.4630   36.6220 C.2   135  LYS135      0.2260
     28  O         26.7810   18.0820   37.5380 O.2   135  LYS135     -0.2867
     29  CB        25.8280   15.7980   35.6240 C.3   135  LYS135      0.0271
     30  CG        25.4400   14.3730   35.2880 C.3   135  LYS135      0.0035
     31  CD        24.2880   14.3650   34.2870 C.3   135  LYS135      0.0206
     32  CE        23.7090   12.9640   34.0880 C.3   135  LYS135      0.1093
     33  NZ        22.4160   12.9730   33.3260 N.3   135  LYS135     -0.1314
     34  N         27.9080   20.1740   29.7290 N.3   140  GLY140     -0.1210
     35  CA        27.9790   18.7400   29.5270 C.3   140  GLY140      0.1956
     36  C         27.5210   18.4080   28.1100 C.2   140  GLY140      0.2612
     37  O         26.5470   18.9810   27.6140 O.2   140  GLY140     -0.2717
     38  N         28.2350   17.5040   27.4470 N.am  141  TYR141     -0.1962
     39  CA        27.7810   16.9740   26.1620 C.3   141  TYR141      0.1771
     40  C         28.4600   15.6280   25.8940 C.2   141  TYR141      0.2620
     41  O         29.6210   15.4270   26.2710 O.2   141  TYR141     -0.2715
     42  CB        28.0270   17.9740   25.0070 C.3   141  TYR141      0.0574
     43  CG        29.4830   18.1360   24.6020 C.ar  141  TYR141     -0.0198
     44  CD1       30.0490   17.3170   23.6240 C.ar  141  TYR141     -0.0009
     45  CD2       30.2890   19.1090   25.1890 C.ar  141  TYR141     -0.0009
     46  CE1       31.3790   17.4550   23.2500 C.ar  141  TYR141      0.0417
     47  CE2       31.6220   19.2550   24.8210 C.ar  141  TYR141      0.0417
     48  CZ        32.1590   18.4250   23.8510 C.ar  141  TYR141      0.1957
     49  OH        33.4770   18.5630   23.4810 O.3   141  TYR141     -0.2866
     50  N         27.7260   14.7210   25.2440 N.am  142  ASP142     -0.1957
     51  CA        28.1980   13.3660   24.9370 C.3   142  ASP142      0.1840
     52  C         28.6180   12.6110   26.1920 C.2   142  ASP142      0.2622
     53  O         29.5210   11.7700   26.1500 O.2   142  ASP142     -0.2715
     54  CB        29.3540   13.3860   23.9400 C.3   142  ASP142      0.1450
     55  CG        28.9180   13.7870   22.5470 C.2   142  ASP142      0.3671
     56  OD1       27.7290   13.5870   22.2040 O.co2 142  ASP142     -0.2456
     57  OD2       29.7730   14.3020   21.7990 O.co2 142  ASP142     -0.2456
     58  N         27.9670   12.9250   27.3050 N.am  143  GLY143     -0.1954
     59  CA        28.2360   12.2440   28.5570 C.3   143  GLY143      0.1869
     60  C         29.5400   12.6410   29.2220 C.2   143  GLY143      0.2309
     61  O         29.9810   11.9930   30.1710 O.2   143  GLY143     -0.2863
     62  N         30.9960   14.3130   33.7040 N.3   146  GLN146     -0.1245
     63  CA        30.2520   13.6470   34.7560 C.3   146  GLN146      0.1566
     64  C         31.0150   12.4760   35.3530 C.2   146  GLN146      0.2260
     65  O         32.0310   12.0540   34.8190 O.2   146  GLN146     -0.2867
     66  CB        28.8410   13.2520   34.2990 C.3   146  GLN146      0.0367
     67  CG        28.7270   12.5190   32.9840 C.3   146  GLN146      0.0905
     68  CD        27.3000   12.5750   32.4390 C.2   146  GLN146      0.2608
     69  OE1       26.5970   11.5650   32.3970 O.2   146  GLN146     -0.2717
     70  NE2       26.8630   13.7680   32.0340 N.am  146  GLN146     -0.0878
     71  N         22.1180   13.1250   40.0040 N.3   172  GLU172     -0.1231
     72  CA        20.9680   12.4410   39.4460 C.3   172  GLU172      0.1699
     73  C         20.9790   10.9810   39.8600 C.2   172  GLU172      0.2592
     74  O         22.0030   10.3130   39.7570 O.2   172  GLU172     -0.2718
     75  CB        20.9580   12.5080   37.9160 C.3   172  GLU172      0.0402
     76  CG        20.8310   13.8990   37.3390 C.3   172  GLU172      0.1161
     77  CD        20.6820   13.8580   35.8350 C.2   172  GLU172      0.3649
     78  OE1       20.4270   12.7540   35.2970 O.co2 172  GLU172     -0.2457
     79  OE2       20.8140   14.9240   35.2000 O.co2 172  GLU172     -0.2457
     80  N         19.8370   10.4810   40.3200 N.am  173  ALA173     -0.1966
     81  CA        19.7070    9.0590   40.6160 C.3   173  ALA173      0.1728
     82  C         19.4950    8.3070   39.3130 C.2   173  ALA173      0.2616
     83  O         18.9290    8.8500   38.3660 O.2   173  ALA173     -0.2715
     84  CB        18.5480    8.8150   41.5610 C.3   173  ALA173      0.0334
     85  N         19.9510    7.0600   39.2600 N.am  174  PHE174     -0.1960
     86  CA        19.7510    6.2330   38.0740 C.3   174  PHE174      0.1771
     87  C         18.2650    5.9860   37.8190 C.2   174  PHE174      0.2619
     88  O         17.5020    5.6870   38.7390 O.2   174  PHE174     -0.2715
     89  CB        20.4950    4.9030   38.2120 C.3   174  PHE174      0.0574
     90  CG        21.7570    4.8190   37.3940 C.ar  174  PHE174     -0.0200
     91  CD1       22.8060    5.6970   37.6160 C.ar  174  PHE174     -0.0042
     92  CD2       21.9000    3.8450   36.4170 C.ar  174  PHE174     -0.0042
     93  CE1       23.9650    5.6140   36.8730 C.ar  174  PHE174     -0.0003
     94  CE2       23.0580    3.7580   35.6710 C.ar  174  PHE174     -0.0003
     95  CZ        24.0920    4.6450   35.8990 C.ar  174  PHE174     -0.0000
     96  N         17.8610    6.1250   36.5630 N.am  175  VAL175     -0.1977
     97  CA        16.4830    5.8690   36.1780 C.3   175  VAL175      0.1596
     98  C         16.3020    4.4200   35.7420 C.2   175  VAL175      0.2287
     99  O         17.1140    3.8830   34.9890 O.2   175  VAL175     -0.2864
    100  CB        16.0360    6.8050   35.0460 C.3   175  VAL175      0.0276
    101  CG1       14.6550    6.4310   34.5500 C.3   175  VAL175      0.0022
    102  CG2       16.0470    8.2420   35.5200 C.3   175  VAL175      0.0022
    103  N         14.6600    2.3320   33.3700 N.3   177  PHE177     -0.1241
    104  CA        13.9700    2.4060   32.0840 C.3   177  PHE177      0.1605
    105  C         14.2930    1.2450   31.1370 C.2   177  PHE177      0.2264
    106  O         15.3200    0.5810   31.2610 O.2   177  PHE177     -0.2867
    107  CB        14.2010    3.7630   31.4000 C.3   177  PHE177      0.0534
    108  CG        15.5980    3.9610   30.9020 C.ar  177  PHE177     -0.0203
    109  CD1       16.5830    4.4550   31.7370 C.ar  177  PHE177     -0.0042
    110  CD2       15.9310    3.6500   29.5980 C.ar  177  PHE177     -0.0042
    111  CE1       17.8720    4.6300   31.2780 C.ar  177  PHE177     -0.0003
    112  CE2       17.2160    3.8240   29.1420 C.ar  177  PHE177     -0.0003
    113  CZ        18.1840    4.3150   29.9810 C.ar  177  PHE177     -0.0000
    114  N         14.8160    4.3010   25.2220 N.3   180  GLU180     -0.1245
    115  CA        14.7740    5.7540   25.1340 C.3   180  GLU180      0.1567
    116  C         14.1250    6.2020   23.8520 C.2   180  GLU180      0.2260
    117  O         14.2770    5.5600   22.8110 O.2   180  GLU180     -0.2867
    118  CB        16.1770    6.3400   25.2200 C.3   180  GLU180      0.0388
    119  CG        16.8830    5.9870   26.5040 C.3   180  GLU180      0.1160
    120  CD        18.2530    6.5960   26.5990 C.2   180  GLU180      0.3649
    121  OE1       18.3380    7.8370   26.7050 O.co2 180  GLU180     -0.2457
    122  OE2       19.2470    5.8430   26.5560 O.co2 180  GLU180     -0.2457
    123  N         21.8630    4.4510   22.3940 N.3   203  HIS203     -0.1241
    124  CA        23.1080    5.0900   22.8100 C.3   203  HIS203      0.1621
    125  C         24.2090    4.0750   23.0690 C.2   203  HIS203      0.2264
    126  O         23.9530    2.9310   23.4510 O.2   203  HIS203     -0.2867
    127  CB        22.8960    5.9300   24.0680 C.3   203  HIS203      0.0745
    128  CG        21.9530    7.0710   23.8730 C.ar  203  HIS203      0.0817
    129  ND1       20.5940    6.9540   24.0640 N.ar  203  HIS203     -0.2268
    130  CD2       22.1720    8.3550   23.4960 C.ar  203  HIS203      0.1154
    131  CE1       20.0170    8.1180   23.8250 C.ar  203  HIS203      0.1986
    132  NE2       20.9510    8.9820   23.4680 N.ar  203  HIS203     -0.2212
    133  N         27.3370    6.7880   26.0480 N.3   206  GLY206     -0.1225
    134  CA        26.7870    8.1170   26.2390 C.3   206  GLY206      0.1811
    135  C         26.5870    8.9510   24.9880 C.2   206  GLY206      0.2280
    136  O         26.2070   10.1170   25.0740 O.2   206  GLY206     -0.2866
    137  N         14.1380   14.5380   24.8710 N.3   244  GLU244     -0.1245
    138  CA        14.5780   13.1570   25.0540 C.3   244  GLU244      0.1567
    139  C         14.0030   12.5360   26.3310 C.2   244  GLU244      0.2260
    140  O         14.0620   13.1410   27.3900 O.2   244  GLU244     -0.2867
    141  CB        16.0980   13.1040   25.1050 C.3   244  GLU244      0.0388
    142  CG        16.7570   13.5590   23.8130 C.3   244  GLU244      0.1160
    143  CD        18.2480   13.3600   23.8440 C.2   244  GLU244      0.3649
    144  OE1       18.9500   14.2560   24.3640 O.co2 244  GLU244     -0.2457
    145  OE2       18.7070   12.2950   23.3630 O.co2 244  GLU244     -0.2457
    146  N         13.2490    8.8840   28.8850 N.3   246  PHE246     -0.1241
    147  CA        13.4060    7.5010   29.2820 C.3   246  PHE246      0.1605
    148  C         12.0130    6.8660   29.2540 C.2   246  PHE246      0.2264
    149  O         11.0170    7.5000   29.6000 O.2   246  PHE246     -0.2867
    150  CB        13.9700    7.4150   30.6990 C.3   246  PHE246      0.0534
    151  CG        15.2990    8.0880   30.8700 C.ar  246  PHE246     -0.0203
    152  CD1       16.3490    7.8130   30.0080 C.ar  246  PHE246     -0.0042
    153  CD2       15.5010    9.0010   31.8960 C.ar  246  PHE246     -0.0042
    154  CE1       17.5820    8.4420   30.1710 C.ar  246  PHE246     -0.0003
    155  CE2       16.7320    9.6240   32.0740 C.ar  246  PHE246     -0.0003
    156  CZ        17.7730    9.3440   31.2170 C.ar  246  PHE246     -0.0000
    157  N         14.4030   13.2060   30.0940 N.3   255  ASN255     -0.1225
    158  CA        15.8360   13.1480   30.3220 C.3   255  ASN255      0.1785
    159  C         16.3950   14.5670   30.2480 C.2   255  ASN255      0.2597
    160  O         16.8610   15.1210   31.2440 O.2   255  ASN255     -0.2718
    161  CB        16.4700   12.2460   29.2620 C.3   255  ASN255      0.1169
    162  CG        17.9890   12.2160   29.3370 C.2   255  ASN255      0.2627
    163  OD1       18.5810   12.4870   30.3740 O.2   255  ASN255     -0.2716
    164  ND2       18.6200   11.8570   28.2330 N.am  255  ASN255     -0.0877
    165  N         16.3240   15.1620   29.0610 N.am  256  GLU256     -0.1979
    166  CA        16.7060   16.5520   28.8940 C.3   256  GLU256      0.1602
    167  C         16.1180   17.0730   27.5940 C.2   256  GLU256      0.2287
    168  O         15.6230   16.3010   26.7880 O.2   256  GLU256     -0.2864
    169  CB        18.2300   16.6980   28.8850 C.3   256  GLU256      0.0415
    170  CG        18.9310   15.9240   27.7950 C.3   256  GLU256      0.1163
    171  CD        20.4080   16.3200   27.6710 C.2   256  GLU256      0.3649
    172  OE1       20.9580   16.9000   28.6280 O.co2 256  GLU256     -0.2457
    173  OE2       21.0100   16.0670   26.6090 O.co2 256  GLU256     -0.2457
@<TRIPOS>BOND
     1    57    55   ar
     2    56    55   ar
     3   123   124    1
     4    55    54    1
     5   124   125    1
     6   124   127    1
     7   117   116    2
     8   125   126    2
     9    46    44   ar
    10    46    48   ar
    11   145   143   ar
    12   132   130   ar
    13   132   131   ar
    14    49    48    1
    15   130   128   ar
    16    44    43   ar
    17   142   143    1
    18   142   141    1
    19   131   129   ar
    20   143   144   ar
    21    48    47   ar
    22   116   115    1
    23   128   129   ar
    24   128   127    1
    25    54    51    1
    26    43    42    1
    27    43    45   ar
    28    47    45   ar
    29   137   138    1
    30    51    50    1
    31    51    52    1
    32   135   136    2
    33   135   134    1
    34    42    39    1
    35   138   141    1
    36   138   139    1
    37   115   118    1
    38   115   114    1
    39   118   119    1
    40    50    40   am
    41    40    39    1
    42    40    41    2
    43   133   134    1
    44    53    52    2
    45    39    38    1
    46    52    58   am
    47   139   140    2
    48   119   120    1
    49   122   120   ar
    50   120   121   ar
    51   173   171   ar
    52   168   167    2
    53    58    59    1
    54    38    36   am
    55   167   166    1
    56    37    36    2
    57   171   170    1
    58   171   172   ar
    59   170   169    1
    60    36    35    1
    61   164   162   am
    62    59    60    1
    63   146   147    1
    64   169   166    1
    65   166   165    1
    66   165   159   am
    67   112   110   ar
    68   112   113   ar
    69    60    61    2
    70   148   147    1
    71   148   149    2
    72   161   162    1
    73   161   158    1
    74   147   150    1
    75   162   163    2
    76    35    34    1
    77   110   108   ar
    78   113   111   ar
    79   152   154   ar
    80   152   151   ar
    81   157   158    1
    82   154   156   ar
    83   159   158    1
    84   159   160    2
    85   150   151    1
    86   151   153   ar
    87   108   107    1
    88   108   109   ar
    89    10     9    1
    90   105   106    2
    91   105   104    1
    92   156   155   ar
    93   111   109   ar
    94   107   104    1
    95   153   155   ar
    96    70    68   am
    97   104   103    1
    98     9    11    1
    99     9     8    2
   100    69    68    2
   101    68    67    1
   102    67    66    1
   103     6     7    1
   104     6     5    1
   105    33    32    1
   106     7     8    1
   107     1     2    1
   108    62    63    1
   109    32    31    1
   110     2     5    1
   111     2     3    1
   112    31    30    1
   113    66    63    1
   114   101   100    1
   115    63    64    1
   116    65    64    2
   117    99    98    2
   118   100   102    1
   119   100    97    1
   120    79    77   ar
   121    24    22    1
   122    30    29    1
   123    78    77   ar
   124     3     4    2
   125    29    26    1
   126    94    95   ar
   127    94    92   ar
   128    98    97    1
   129    77    76    1
   130    95    93   ar
   131    97    96    1
   132    23    21    1
   133    12    13    1
   134    92    90   ar
   135    26    27    1
   136    26    25    1
   137    96    87   am
   138    22    21    1
   139    27    28    2
   140    93    91   ar
   141    16    13    1
   142    21    18    1
   143    76    75    1
   144    13    14    1
   145    90    91   ar
   146    90    89    1
   147    87    86    1
   148    87    88    2
   149    75    72    1
   150    86    89    1
   151    86    85    1
   152    83    82    2
   153    18    19    1
   154    18    17    1
   155    15    14    2
   156    19    20    2
   157    85    82   am
   158    82    81    1
   159    72    73    1
   160    72    71    1
   161    74    73    2
   162    73    80   am
   163    80    81    1
   164    81    84    1
