@<TRIPOS>MOLECULE
tmp/4ma4A02.pdb
 92 86 0 0 0
SMALL
GASTEIGER

@<TRIPOS>ATOM
      1  N         -7.2570   54.8190   -3.8940 N.3    61  VAL61      -0.1231
      2  CA        -6.4120   54.3640   -4.9950 C.3    61  VAL61       0.1692
      3  C         -6.7790   52.9410   -5.5260 C.2    61  VAL61       0.2592
      4  O         -6.6510   52.6400   -6.7470 O.2    61  VAL61      -0.2718
      5  CB        -4.9100   54.4680   -4.6100 C.3    61  VAL61       0.0266
      6  CG1       -4.0500   54.1510   -5.8150 C.3    61  VAL61       0.0020
      7  CG2       -4.5580   55.8900   -4.2340 C.3    61  VAL61       0.0020
      8  N         -7.2330   52.0680   -4.6450 N.am   62  GLY62      -0.1957
      9  CA        -7.6970   50.7360   -5.0870 C.3    62  GLY62       0.1869
     10  C         -8.8110   50.7960   -6.1330 C.2    62  GLY62       0.2309
     11  O         -8.9020   49.9710   -7.0650 O.2    62  GLY62      -0.2863
     12  N         -7.5300   51.7090   -9.3030 N.3    65  ARG65      -0.1245
     13  CA        -6.8810   50.5180   -9.8560 C.3    65  ARG65       0.1563
     14  C         -7.8850   49.5590  -10.5720 C.2    65  ARG65       0.2260
     15  O         -7.6730   49.0800  -11.7310 O.2    65  ARG65      -0.2867
     16  CB        -6.0910   49.8210   -8.7350 C.3    65  ARG65       0.0307
     17  CG        -5.2300   48.6270   -9.1710 C.3    65  ARG65       0.0489
     18  CD        -5.9950   47.3260   -8.9940 C.3    65  ARG65       0.2205
     19  NE        -6.4340   47.1640   -7.5950 N.pl3  65  ARG65      -0.0865
     20  CZ        -7.3040   46.2480   -7.1710 C.cat  65  ARG65       0.5346
     21  NH1       -7.8470   45.3740   -8.0130 N.pl3  65  ARG65       0.1354
     22  NH2       -7.6160   46.1700   -5.8860 N.pl3  65  ARG65       0.1354
     23  N          0.2580   42.1360   -7.1810 N.3    78  PHE78      -0.1241
     24  CA         0.8600   43.0480   -6.1530 C.3    78  PHE78       0.1605
     25  C          2.3230   42.7310   -5.7880 C.2    78  PHE78       0.2264
     26  O          2.9240   43.3870   -4.8950 O.2    78  PHE78      -0.2867
     27  CB         0.0090   43.0900   -4.8490 C.3    78  PHE78       0.0534
     28  CG        -1.3570   43.7270   -5.0620 C.ar   78  PHE78      -0.0203
     29  CD1       -2.4890   42.9360   -5.3460 C.ar   78  PHE78      -0.0042
     30  CD2       -1.4850   45.1500   -5.0780 C.ar   78  PHE78      -0.0042
     31  CE1       -3.7350   43.5450   -5.6190 C.ar   78  PHE78      -0.0003
     32  CE2       -2.7020   45.7750   -5.3490 C.ar   78  PHE78      -0.0003
     33  CZ        -3.8380   44.9580   -5.6090 C.ar   78  PHE78      -0.0000
     34  N         -0.0120   50.8640  -10.7240 N.3    89  ARG89      -0.1245
     35  CA        -0.2900   51.2300   -9.3370 C.3    89  ARG89       0.1563
     36  C          0.2200   52.6330   -9.0690 C.2    89  ARG89       0.2260
     37  O         -0.5210   53.4980   -8.6090 O.2    89  ARG89      -0.2867
     38  CB         0.3540   50.2330   -8.3710 C.3    89  ARG89       0.0307
     39  CG        -0.3720   48.9050   -8.3480 C.3    89  ARG89       0.0489
     40  CD         0.2800   47.8040   -7.5030 C.3    89  ARG89       0.2205
     41  NE         0.6120   48.2400   -6.1340 N.pl3  89  ARG89      -0.0865
     42  CZ         1.6550   47.7760   -5.4360 C.cat  89  ARG89       0.5346
     43  NH1        2.5040   46.8850   -5.9770 N.pl3  89  ARG89       0.1354
     44  NH2        1.9000   48.1890   -4.2020 N.pl3  89  ARG89       0.1354
     45  N         -2.1080   56.0320   -8.2180 N.3    93  ALA93      -0.1245
     46  CA        -1.7760   56.9830   -7.1710 C.3    93  ALA93       0.1562
     47  C         -1.6790   58.4280   -7.7230 C.2    93  ALA93       0.2260
     48  O         -2.2990   59.3700   -7.1690 O.2    93  ALA93      -0.2867
     49  CB        -0.4900   56.5410   -6.4730 C.3    93  ALA93       0.0290
     50  N         -4.7350   54.7870    0.6490 N.3   116  ALA116     -0.1231
     51  CA        -3.8650   53.7710    0.0780 C.3   116  ALA116      0.1694
     52  C         -2.9290   53.3030    1.1900 C.2   116  ALA116      0.2593
     53  O         -2.9930   53.8130    2.3510 O.2   116  ALA116     -0.2718
     54  CB        -3.0510   54.3370   -1.1030 C.3   116  ALA116      0.0304
     55  N         -2.0250   52.3820    0.8450 N.am  117  THR117     -0.1939
     56  CA        -1.1440   51.7790    1.8230 C.3   117  THR117      0.2028
     57  C         -0.0620   52.7290    2.2180 C.2   117  THR117      0.2638
     58  O          0.2540   52.8380    3.4040 O.2   117  THR117     -0.2714
     59  CB        -0.5380   50.4270    1.3470 C.3   117  THR117      0.1808
     60  OG1        0.1210   50.6290    0.0900 O.3   117  THR117     -0.2208
     61  CG2       -1.6300   49.4190    1.1530 C.3   117  THR117      0.0379
     62  N          0.4830   53.4470    1.2640 N.am  118  ASN118     -0.2025
     63  CA         1.5350   54.4440    1.5580 C.3   118  ASN118      0.1374
     64  C          2.6050   53.9460    2.5440 C.3   118  ASN118      0.2041
     65  O          3.0280   54.6660    3.5310 O.3   118  ASN118     -0.2185
     66  CB         0.8510   55.7650    2.0450 C.3   118  ASN118      0.1128
     67  CG         0.0080   56.4130    0.9280 C.2   118  ASN118      0.2626
     68  OD1        0.4220   56.4310   -0.2500 O.2   118  ASN118     -0.2716
     69  ND2       -1.1690   56.9170    1.2760 N.am  118  ASN118     -0.0877
     70  N          7.2200   56.7890   -1.0870 N.3   123  ARG123     -0.1245
     71  CA         5.8950   57.2010   -1.5500 C.3   123  ARG123      0.1563
     72  C          5.4020   58.4000   -0.6440 C.2   123  ARG123      0.2260
     73  O          4.9070   59.3850   -1.1090 O.2   123  ARG123     -0.2867
     74  CB         4.9370   56.0020   -1.5020 C.3   123  ARG123      0.0307
     75  CG         3.4690   56.3110   -1.8380 C.3   123  ARG123      0.0489
     76  CD         3.3270   56.9430   -3.2540 C.3   123  ARG123      0.2205
     77  NE         4.0450   56.1790   -4.2760 N.pl3 123  ARG123     -0.0865
     78  CZ         3.4920   55.1730   -4.9270 C.cat 123  ARG123      0.5346
     79  NH1        2.2200   54.9120   -4.6150 N.pl3 123  ARG123      0.1354
     80  NH2        4.1910   54.4170   -5.8380 N.pl3 123  ARG123      0.1354
     81  N          3.5690   43.2390    0.7530 N.3   184  TYR184     -0.1241
     82  CA         3.9510   44.5770    1.1960 C.3   184  TYR184      0.1605
     83  C          4.8860   44.5330    2.4200 C.2   184  TYR184      0.2264
     84  O          5.4060   45.5830    2.8270 O.2   184  TYR184     -0.2867
     85  CB         2.6750   45.3080    1.7100 C.3   184  TYR184      0.0534
     86  CG         1.6960   45.7510    0.6390 C.ar  184  TYR184     -0.0201
     87  CD1        0.7500   44.8740    0.1780 C.ar  184  TYR184     -0.0009
     88  CD2        1.7070   47.0640    0.1380 C.ar  184  TYR184     -0.0009
     89  CE1       -0.1450   45.2330   -0.8130 C.ar  184  TYR184      0.0417
     90  CE2        0.8070   47.4430   -0.8510 C.ar  184  TYR184      0.0417
     91  CZ        -0.1460   46.4970   -1.2910 C.ar  184  TYR184      0.1957
     92  OH        -1.0850   46.7360   -2.2760 O.3   184  TYR184     -0.2866
@<TRIPOS>BOND
     1    15    14    2
     2    34    35    1
     3    14    13    1
     4    13    12    1
     5    13    16    1
     6    35    36    1
     7    35    38    1
     8    17    18    1
     9    17    16    1
    10    36    37    2
    11    18    19    1
    12    38    39    1
    13    39    40    1
    14    45    46    1
    15    21    20    1
    16    47    46    1
    17    47    48    2
    18    19    20    2
    19    40    41    1
    20    23    24    1
    21    20    22    1
    22    46    49    1
    23    11    10    2
    24     4     3    2
    25    24    25    1
    26    24    27    1
    27    41    42    2
    28    10     9    1
    29    43    42    1
    30    80    78    1
    31     6     5    1
    32    25    26    2
    33    31    33   ar
    34    31    29   ar
    35    33    32   ar
    36     3     2    1
    37     3     8   am
    38    42    44    1
    39    32    30   ar
    40    29    28   ar
    41     9     8    1
    42    30    28   ar
    43    28    27    1
    44     2     5    1
    45     2     1    1
    46    78    79    1
    47    78    77    2
    48     5     7    1
    49    77    76    1
    50    76    75    1
    51    92    91    1
    52    75    74    1
    53    71    74    1
    54    71    70    1
    55    71    72    1
    56    91    90   ar
    57    91    89   ar
    58    73    72    2
    59    54    51    1
    60    90    88   ar
    61    89    87   ar
    62    68    67    2
    63    51    50    1
    64    51    52    1
    65    60    59    1
    66    88    86   ar
    67    87    86   ar
    68    86    85    1
    69    81    82    1
    70    55    52   am
    71    55    56    1
    72    67    69   am
    73    67    66    1
    74    61    59    1
    75    52    53    2
    76    82    85    1
    77    82    83    1
    78    62    63    1
    79    62    57   am
    80    59    56    1
    81    63    66    1
    82    63    64    1
    83    56    57    1
    84    57    58    2
    85    83    84    2
    86    64    65    1
