@<TRIPOS>MOLECULE
tmp/4ma5A00.pdb
 228 216 0 0 0
SMALL
GASTEIGER

@<TRIPOS>ATOM
      1  N         20.3750   21.1090   19.2430 N.3    96  ARG96      -0.1245
      2  CA        21.6010   21.7850   18.8210 C.3    96  ARG96       0.1563
      3  C         21.4440   22.6910   17.6000 C.2    96  ARG96       0.2260
      4  O         22.1050   23.7350   17.5150 O.2    96  ARG96      -0.2867
      5  CB        22.7200   20.7660   18.5930 C.3    96  ARG96       0.0307
      6  CG        23.1200   20.0250   19.8730 C.3    96  ARG96       0.0489
      7  CD        24.2460   19.0290   19.6530 C.3    96  ARG96       0.2205
      8  NE        24.6220   18.4150   20.9270 N.pl3  96  ARG96      -0.0865
      9  CZ        24.0060   17.3600   21.4550 C.cat  96  ARG96       0.5346
     10  NH1       24.4020   16.8710   22.6190 N.pl3  96  ARG96       0.1354
     11  NH2       22.9940   16.7820   20.8200 N.pl3  96  ARG96       0.1354
     12  N         30.3450   27.8570   16.7010 N.3   110  ALA110     -0.1245
     13  CA        31.0130   26.9970   15.7350 C.3   110  ALA110      0.1562
     14  C         30.2050   27.0390   14.4470 C.2   110  ALA110      0.2260
     15  O         28.9800   27.1860   14.4910 O.2   110  ALA110     -0.2867
     16  CB        31.0850   25.5700   16.2640 C.3   110  ALA110      0.0290
     17  N         32.6260   17.5180   13.8690 N.3   133  ILE133     -0.1245
     18  CA        31.8840   16.5170   14.6090 C.3   133  ILE133      0.1561
     19  C         30.4990   16.3810   13.9930 C.2   133  ILE133      0.2260
     20  O         29.8360   17.3800   13.7060 O.2   133  ILE133     -0.2867
     21  CB        31.7210   16.9050   16.0940 C.3   133  ILE133      0.0252
     22  CG1       33.0500   17.3400   16.7170 C.3   133  ILE133      0.0019
     23  CG2       31.1200   15.7430   16.8780 C.3   133  ILE133      0.0019
     24  CD1       32.8910   17.9610   18.1130 C.3   133  ILE133      0.0001
     25  N         27.0160   15.3950   15.1710 N.3   135  LYS135     -0.1245
     26  CA        26.2850   15.2080   16.4210 C.3   135  LYS135      0.1561
     27  C         24.8110   14.9960   16.1490 C.2   135  LYS135      0.2260
     28  O         24.2850   15.4270   15.1210 O.2   135  LYS135     -0.2867
     29  CB        26.3920   16.4520   17.3010 C.3   135  LYS135      0.0271
     30  CG        27.7880   16.9280   17.5870 C.3   135  LYS135      0.0035
     31  CD        27.6850   18.0990   18.5660 C.3   135  LYS135      0.0206
     32  CE        29.0440   18.6300   18.9840 C.3   135  LYS135      0.1093
     33  NZ        28.8320   19.7700   19.9250 N.3   135  LYS135     -0.1314
     34  N         22.3650   12.7840   23.7060 N.3   140  GLY140     -0.1210
     35  CA        23.7590   12.8790   24.0680 C.3   140  GLY140      0.1956
     36  C         24.1020   13.6870   25.2940 C.2   140  GLY140      0.2612
     37  O         23.6010   14.7970   25.5270 O.2   140  GLY140     -0.2717
     38  N         24.9960   13.0950   26.0700 N.am  141  TYR141     -0.1962
     39  CA        25.5320   13.7020   27.2660 C.3   141  TYR141      0.1771
     40  C         27.0270   13.4530   27.2370 C.2   141  TYR141      0.2620
     41  O         27.4740   12.3850   26.7890 O.2   141  TYR141     -0.2715
     42  CB        24.9470   13.0250   28.5080 C.3   141  TYR141      0.0574
     43  CG        23.4470   13.1470   28.6480 C.ar  141  TYR141     -0.0198
     44  CD1       22.8830   14.1620   29.4130 C.ar  141  TYR141     -0.0009
     45  CD2       22.5940   12.2370   28.0370 C.ar  141  TYR141     -0.0009
     46  CE1       21.5030   14.2810   29.5560 C.ar  141  TYR141      0.0417
     47  CE2       21.2080   12.3500   28.1710 C.ar  141  TYR141      0.0417
     48  CZ        20.6690   13.3750   28.9320 C.ar  141  TYR141      0.1957
     49  OH        19.2990   13.5000   29.0780 O.3   141  TYR141     -0.2866
     50  N         27.7840   14.4420   27.7090 N.am  142  ASP142     -0.1957
     51  CA        29.2220   14.3110   27.9800 C.3   142  ASP142      0.1840
     52  C         30.0290   13.6390   26.8680 C.2   142  ASP142      0.2623
     53  O         30.8360   12.7320   27.1160 O.2   142  ASP142     -0.2715
     54  CB        29.4480   13.6390   29.3360 C.3   142  ASP142      0.1450
     55  CG        28.7410   14.3710   30.4680 C.2   142  ASP142      0.3671
     56  OD1       28.7710   15.6250   30.4930 O.co2 142  ASP142     -0.2456
     57  OD2       28.1460   13.6920   31.3300 O.co2 142  ASP142     -0.2456
     58  N         29.7810   14.0870   25.6400 N.am  143  GLY143     -0.1940
     59  CA        30.5680   13.6680   24.4970 C.3   143  GLY143      0.2014
     60  C         30.0710   12.4020   23.8350 C.2   143  GLY143      0.2638
     61  O         30.6840   11.9170   22.8800 O.2   143  GLY143     -0.2714
     62  N         28.9730   11.8460   24.3410 N.am  144  LYS144     -0.1977
     63  CA        28.4890   10.5750   23.7930 C.3   144  LYS144      0.1596
     64  C         27.4500   10.8210   22.7040 C.2   144  LYS144      0.2287
     65  O         26.8640   11.9040   22.6340 O.2   144  LYS144     -0.2864
     66  CB        27.9170    9.6790   24.8910 C.3   144  LYS144      0.0298
     67  CG        28.9190    9.2410   25.9360 C.3   144  LYS144      0.0038
     68  CD        28.2720    8.4720   27.0560 C.3   144  LYS144      0.0206
     69  CE        27.5360    9.3430   28.0330 C.3   144  LYS144      0.1093
     70  NZ        27.0770    8.5890   29.2370 N.3   144  LYS144     -0.1314
     71  N         27.9610   10.8730   19.3550 N.3   146  GLN146     -0.1245
     72  CA        28.4780   11.6900   18.2690 C.3   146  GLN146      0.1566
     73  C         29.6310   10.9770   17.6010 C.2   146  GLN146      0.2260
     74  O         30.0220    9.8830   18.0170 O.2   146  GLN146     -0.2867
     75  CB        28.9440   13.0440   18.7910 C.3   146  GLN146      0.0367
     76  CG        30.0670   12.9770   19.8160 C.3   146  GLN146      0.0905
     77  CD        30.4000   14.3600   20.3700 C.2   146  GLN146      0.2608
     78  OE1       29.5920   15.2870   20.3010 O.2   146  GLN146     -0.2717
     79  NE2       31.5900   14.4970   20.9260 N.am  146  GLN146     -0.0878
     80  N         29.1530   20.1130   13.1390 N.3   172  GLU172     -0.1231
     81  CA        29.8070   21.2600   13.7630 C.3   172  GLU172      0.1699
     82  C         31.2810   21.2410   13.4360 C.2   172  GLU172      0.2592
     83  O         31.9320   20.2040   13.5760 O.2   172  GLU172     -0.2718
     84  CB        29.6660   21.2360   15.2800 C.3   172  GLU172      0.0402
     85  CG        28.2670   21.4460   15.7970 C.3   172  GLU172      0.1161
     86  CD        28.2500   21.6400   17.3010 C.2   172  GLU172      0.3649
     87  OE1       29.3260   21.8950   17.8840 O.co2 172  GLU172     -0.2457
     88  OE2       27.1590   21.5390   17.8940 O.co2 172  GLU172     -0.2457
     89  N         31.8190   22.3830   13.0220 N.am  173  ALA173     -0.1966
     90  CA        33.2660   22.5040   12.8700 C.3   173  ALA173      0.1728
     91  C         33.9060   22.3760   14.2460 C.2   173  ALA173      0.2616
     92  O         33.3640   22.8610   15.2390 O.2   173  ALA173     -0.2715
     93  CB        33.6320   23.8250   12.2250 C.3   173  ALA173      0.0334
     94  N         35.0360   21.6800   14.3080 N.am  174  PHE174     -0.1960
     95  CA        35.7310   21.4710   15.5670 C.3   174  PHE174      0.1771
     96  C         36.4810   22.7490   15.9150 C.2   174  PHE174      0.2619
     97  O         37.4170   23.1300   15.2150 O.2   174  PHE174     -0.2715
     98  CB        36.7060   20.2970   15.4400 C.3   174  PHE174      0.0574
     99  CG        37.0170   19.6180   16.7420 C.ar  174  PHE174     -0.0200
    100  CD1       37.8830   20.1950   17.6550 C.ar  174  PHE174     -0.0042
    101  CD2       36.4600   18.3860   17.0430 C.ar  174  PHE174     -0.0042
    102  CE1       38.1730   19.5600   18.8590 C.ar  174  PHE174     -0.0003
    103  CE2       36.7460   17.7480   18.2410 C.ar  174  PHE174     -0.0003
    104  CZ        37.6010   18.3370   19.1510 C.ar  174  PHE174     -0.0000
    105  N         36.0560   23.4130   16.9840 N.am  175  VAL175     -0.1977
    106  CA        36.6690   24.6710   17.4010 C.3   175  VAL175      0.1596
    107  C         37.9870   24.3980   18.1220 C.2   175  VAL175      0.2287
    108  O         38.0490   23.5740   19.0420 O.2   175  VAL175     -0.2864
    109  CB        35.7260   25.4770   18.3330 C.3   175  VAL175      0.0276
    110  CG1       36.4210   26.7150   18.8800 C.3   175  VAL175      0.0022
    111  CG2       34.4390   25.8650   17.6010 C.3   175  VAL175      0.0022
    112  N         40.0040   25.7760   20.5630 N.3   177  PHE177     -0.1241
    113  CA        39.9670   26.8350   21.5690 C.3   177  PHE177      0.1605
    114  C         41.2250   26.8870   22.4310 C.2   177  PHE177      0.2264
    115  O         41.9480   25.8930   22.5650 O.2   177  PHE177     -0.2867
    116  CB        38.7150   26.7230   22.4550 C.3   177  PHE177      0.0534
    117  CG        38.5140   25.3560   23.0600 C.ar  177  PHE177     -0.0203
    118  CD1       39.1240   25.0080   24.2500 C.ar  177  PHE177     -0.0042
    119  CD2       37.7160   24.4180   22.4360 C.ar  177  PHE177     -0.0042
    120  CE1       38.9360   23.7500   24.7960 C.ar  177  PHE177     -0.0003
    121  CE2       37.5260   23.1660   22.9880 C.ar  177  PHE177     -0.0003
    122  CZ        38.1380   22.8360   24.1640 C.ar  177  PHE177     -0.0000
    123  N         38.1390   27.2860   27.9980 N.3   180  GLU180     -0.1245
    124  CA        36.6860   27.3580   28.0620 C.3   180  GLU180      0.1567
    125  C         36.2520   28.1270   29.2950 C.2   180  GLU180      0.2260
    126  O         36.9000   28.0430   30.3460 O.2   180  GLU180     -0.2867
    127  CB        36.0840   25.9630   28.1380 C.3   180  GLU180      0.0388
    128  CG        36.3550   25.0740   26.9500 C.3   180  GLU180      0.1160
    129  CD        35.6740   23.7300   27.1060 C.2   180  GLU180      0.3649
    130  OE1       36.2870   22.8050   27.6810 O.co2 180  GLU180     -0.2457
    131  OE2       34.5130   23.6030   26.6760 O.co2 180  GLU180     -0.2457
    132  N         37.5950   20.3230   30.5660 N.3   203  HIS203     -0.1241
    133  CA        36.9180   19.0850   30.2260 C.3   203  HIS203      0.1621
    134  C         37.9450   18.0020   29.9940 C.2   203  HIS203      0.2264
    135  O         39.0310   18.2690   29.4810 O.2   203  HIS203     -0.2867
    136  CB        36.0560   19.2500   28.9770 C.3   203  HIS203      0.0745
    137  CG        34.7460   19.9280   29.2320 C.ar  203  HIS203      0.0817
    138  ND1       34.5660   21.2850   29.0510 N.ar  203  HIS203     -0.2268
    139  CD2       33.5580   19.4420   29.6580 C.ar  203  HIS203      0.1154
    140  CE1       33.3160   21.6010   29.3490 C.ar  203  HIS203      0.1986
    141  NE2       32.6860   20.5000   29.7240 N.ar  203  HIS203     -0.2212
    142  N         35.2040   14.7280   27.4160 N.3   206  GLY206     -0.1225
    143  CA        33.8220   15.1440   27.2450 C.3   206  GLY206      0.1811
    144  C         33.1190   15.5170   28.5310 C.2   206  GLY206      0.2280
    145  O         31.9710   15.9720   28.5190 O.2   206  GLY206     -0.2866
    146  N         33.2190   17.5380   32.3780 N.3   208  ILE208     -0.1245
    147  CA        33.8570   18.5840   33.1490 C.3   208  ILE208      0.1561
    148  C         34.5510   17.9690   34.3730 C.2   208  ILE208      0.2260
    149  O         33.9650   17.1440   35.0760 O.2   208  ILE208     -0.2867
    150  CB        32.8070   19.6460   33.4990 C.3   208  ILE208      0.0252
    151  CG1       33.4550   20.9490   33.9600 C.3   208  ILE208      0.0019
    152  CG2       31.7680   19.0960   34.4400 C.3   208  ILE208      0.0019
    153  CD1       32.6000   22.1600   33.6650 C.3   208  ILE208      0.0001
    154  N         27.9190   28.1540   28.1930 N.3   244  GLU244     -0.1245
    155  CA        29.2930   27.7120   28.0330 C.3   244  GLU244      0.1567
    156  C         29.8980   28.3160   26.7800 C.2   244  GLU244      0.2260
    157  O         29.2480   28.3620   25.7280 O.2   244  GLU244     -0.2867
    158  CB        29.3630   26.1900   27.9660 C.3   244  GLU244      0.0388
    159  CG        28.9930   25.5090   29.2700 C.3   244  GLU244      0.1160
    160  CD        29.2460   24.0300   29.2060 C.2   244  GLU244      0.3649
    161  OE1       28.4780   23.3380   28.5120 O.co2 244  GLU244     -0.2457
    162  OE2       30.2240   23.5720   29.8280 O.co2 244  GLU244     -0.2457
    163  N         33.6060   28.9820   24.2460 N.3   246  PHE246     -0.1241
    164  CA        34.9940   28.7530   23.8870 C.3   246  PHE246      0.1605
    165  C         35.6600   30.1260   23.9040 C.2   246  PHE246      0.2264
    166  O         35.0220   31.1290   23.5870 O.2   246  PHE246     -0.2867
    167  CB        35.1120   28.1650   22.4800 C.3   246  PHE246      0.0534
    168  CG        34.3610   26.8710   22.2850 C.ar  246  PHE246     -0.0203
    169  CD1       34.6710   25.7570   23.0360 C.ar  246  PHE246     -0.0042
    170  CD2       33.3730   26.7670   21.3210 C.ar  246  PHE246     -0.0042
    171  CE1       33.9820   24.5590   22.8490 C.ar  246  PHE246     -0.0003
    172  CE2       32.6860   25.5780   21.1330 C.ar  246  PHE246     -0.0003
    173  CZ        32.9960   24.4750   21.8930 C.ar  246  PHE246     -0.0000
    174  N         29.3320   27.8990   22.9400 N.3   253  ASN253     -0.1225
    175  CA        29.3630   26.4540   22.7830 C.3   253  ASN253      0.1785
    176  C         27.9350   25.9030   22.9110 C.2   253  ASN253      0.2597
    177  O         27.3550   25.3970   21.9420 O.2   253  ASN253     -0.2718
    178  CB        30.2600   25.8770   23.8720 C.3   253  ASN253      0.1169
    179  CG        30.2700   24.3620   23.9000 C.2   253  ASN253      0.2627
    180  OD1       29.7580   23.7050   22.9990 O.2   253  ASN253     -0.2716
    181  ND2       30.8730   23.7990   24.9500 N.am  253  ASN253     -0.0877
    182  N         27.3660   26.0190   24.1010 N.am  254  GLU254     -0.1979
    183  CA        25.9840   25.6120   24.3020 C.3   254  GLU254      0.1602
    184  C         25.4040   26.2660   25.5410 C.2   254  GLU254      0.2287
    185  O         26.1240   26.8750   26.3320 O.2   254  GLU254     -0.2864
    186  CB        25.8940   24.0930   24.4370 C.3   254  GLU254      0.0415
    187  CG        26.5550   23.5710   25.6820 C.3   254  GLU254      0.1163
    188  CD        26.2350   22.1020   25.9140 C.2   254  GLU254      0.3649
    189  OE1       25.0420   21.7680   26.0850 O.co2 254  GLU254     -0.2457
    190  OE2       27.1740   21.2860   25.9270 O.co2 254  GLU254     -0.2457
    191  N         19.2900   25.8530   33.3450 N.3   258  ARG258     -0.1245
    192  CA        19.2570   25.2290   34.6650 C.3   258  ARG258      0.1563
    193  C         20.5390   25.5260   35.4010 C.2   258  ARG258      0.2260
    194  O         21.4860   26.0440   34.8130 O.2   258  ARG258     -0.2867
    195  CB        19.1150   23.7100   34.5290 C.3   258  ARG258      0.0307
    196  CG        20.1400   23.0830   33.5640 C.3   258  ARG258      0.0489
    197  CD        20.1830   21.5890   33.7210 C.3   258  ARG258      0.2205
    198  NE        21.0430   20.9250   32.7390 N.pl3 258  ARG258     -0.0865
    199  CZ        22.3540   20.7710   32.8920 C.cat 258  ARG258      0.5346
    200  NH1       22.9550   21.2600   33.9670 N.pl3 258  ARG258      0.1354
    201  NH2       23.0680   20.1400   31.9700 N.pl3 258  ARG258      0.1354
    202  N         24.0350   24.3360   36.7740 N.3   260  HIS260     -0.1226
    203  CA        24.9820   23.6440   35.9190 C.3   260  HIS260      0.1752
    204  C         26.2210   23.2740   36.7120 C.2   260  HIS260      0.2596
    205  O         26.5840   23.9690   37.6540 O.2   260  HIS260     -0.2718
    206  CB        25.3950   24.5770   34.7890 C.3   260  HIS260      0.0759
    207  CG        26.1480   23.9040   33.6870 C.ar  260  HIS260      0.0818
    208  ND1       27.5200   23.9840   33.5650 N.ar  260  HIS260     -0.2268
    209  CD2       25.7200   23.1540   32.6440 C.ar  260  HIS260      0.1154
    210  CE1       27.9050   23.3000   32.5030 C.ar  260  HIS260      0.1986
    211  NE2       26.8350   22.7890   31.9240 N.ar  260  HIS260     -0.2212
    212  N         26.8710   22.1880   36.3100 N.am  261  ASN261     -0.1974
    213  CA        28.0870   21.6930   36.9510 C.3   261  ASN261      0.1688
    214  C         29.1680   22.7680   37.1210 C.2   261  ASN261      0.2292
    215  O         29.9180   22.7700   38.1110 O.2   261  ASN261     -0.2864
    216  CB        28.6360   20.5470   36.0870 C.3   261  ASN261      0.1181
    217  CG        29.4230   19.5120   36.8780 C.2   261  ASN261      0.2629
    218  OD1       29.5180   18.3550   36.4730 O.2   261  ASN261     -0.2716
    219  ND2       30.0000   19.9260   37.9980 N.am  261  ASN261     -0.0877
    220  N         28.6900   11.0580   37.2920 N.3   328  LYS328     -0.1245
    221  CA        28.9690   12.1110   38.2710 C.3   328  LYS328      0.1561
    222  C         28.4350   11.6970   39.6280 C.2   328  LYS328      0.2260
    223  O         27.2210   11.5640   39.7960 O.2   328  LYS328     -0.2867
    224  CB        28.3440   13.4370   37.8310 C.3   328  LYS328      0.0271
    225  CG        29.0130   14.0060   36.5750 C.3   328  LYS328      0.0035
    226  CD        28.2420   15.1810   35.9750 C.3   328  LYS328      0.0206
    227  CE        28.9770   15.7100   34.7570 C.3   328  LYS328      0.1093
    228  NZ        28.4720   17.0230   34.2560 N.3   328  LYS328     -0.1314
@<TRIPOS>BOND
     1    93    90    1
     2    90    89    1
     3    90    91    1
     4    89    82   am
     5    80    81    1
     6    82    83    2
     7    82    81    1
     8    20    19    2
     9    81    84    1
    10    17    18    1
    11    19    18    1
    12    91    94   am
    13    91    92    2
    14    94    95    1
    15    14    15    2
    16    14    13    1
    17    18    21    1
    18    28    27    2
    19    25    26    1
    20    97    96    2
    21    84    85    1
    22    98    95    1
    23    98    99    1
    24    95    96    1
    25    13    16    1
    26    13    12    1
    27    85    86    1
    28    96   105   am
    29    21    22    1
    30    21    23    1
    31    27    26    1
    32    26    29    1
    33    22    24    1
    34    99   101   ar
    35    99   100   ar
    36   105   106    1
    37   101   103   ar
    38    86    87   ar
    39    86    88   ar
    40    29    30    1
    41   106   107    1
    42   106   109    1
    43     4     3    2
    44    30    31    1
    45     3     2    1
    46    73    74    2
    47    73    72    1
    48   111   109    1
    49   100   102   ar
    50   107   108    2
    51   103   104   ar
    52    72    75    1
    53    72    71    1
    54   109   110    1
    55    31    32    1
    56     5     2    1
    57     5     6    1
    58    75    76    1
    59     2     1    1
    60   102   104   ar
    61    32    33    1
    62     7     6    1
    63     7     8    1
    64    76    77    1
    65    78    77    2
    66    77    79   am
    67   112   113    1
    68    11     9    1
    69     8     9    2
    70   172   170   ar
    71   172   173   ar
    72   170   168   ar
    73     9    10    1
    74   113   114    1
    75   113   116    1
    76   173   171   ar
    77   177   176    2
    78   168   167    1
    79   168   169   ar
    80   114   115    2
    81   119   121   ar
    82   119   117   ar
    83   116   117    1
    84   167   164    1
    85    65    64    2
    86    64    63    1
    87   175   176    1
    88   175   174    1
    89   175   178    1
    90   171   169   ar
    91    61    60    2
    92   176   182   am
    93   121   122   ar
    94   180   179    2
    95   117   118   ar
    96   166   165    2
    97    34    35    1
    98    63    62    1
    99    63    66    1
   100    60    62   am
   101    60    59    1
   102   178   179    1
   103   164   165    1
   104   164   163    1
   105   179   181   am
   106    35    36    1
   107   182   183    1
   108   122   120   ar
   109   118   120   ar
   110   183   186    1
   111   183   184    1
   112   186   187    1
   113    59    58    1
   114    66    67    1
   115    36    37    2
   116    36    38   am
   117   184   185    2
   118    58    52   am
   119   187   188    1
   120   157   156    2
   121   188   190   ar
   122   188   189   ar
   123    67    68    1
   124    38    39    1
   125   131   129   ar
   126   156   155    1
   127    41    40    2
   128    52    53    2
   129    52    51    1
   130   128   129    1
   131   128   127    1
   132    68    69    1
   133   129   130   ar
   134    40    39    1
   135    40    50   am
   136   143   142    1
   137   143   144    1
   138    39    42    1
   139    50    51    1
   140   158   155    1
   141   158   159    1
   142    51    54    1
   143   123   124    1
   144    69    70    1
   145   155   154    1
   146    45    47   ar
   147    45    43   ar
   148   124   127    1
   149   124   125    1
   150    47    48   ar
   151    42    43    1
   152   161   160   ar
   153   145   144    2
   154    43    44   ar
   155    48    49    1
   156    48    46   ar
   157   136   137    1
   158   136   133    1
   159   138   137   ar
   160   138   140   ar
   161   160   159    1
   162   160   162   ar
   163   137   139   ar
   164   125   126    2
   165    54    55    1
   166   140   141   ar
   167    44    46   ar
   168   135   134    2
   169   139   141   ar
   170   134   133    1
   171   133   132    1
   172    55    56   ar
   173    55    57   ar
   174   211   210   ar
   175   211   209   ar
   176   201   199    1
   177   146   147    1
   178   210   208   ar
   179   209   207   ar
   180   198   199    2
   181   198   197    1
   182   199   200    1
   183   147   150    1
   184   147   148    1
   185   191   192    1
   186   150   151    1
   187   150   152    1
   188   196   197    1
   189   196   195    1
   190   208   207   ar
   191   153   151    1
   192   207   206    1
   193   228   227    1
   194   148   149    2
   195   195   192    1
   196   192   193    1
   197   227   226    1
   198   206   203    1
   199   194   193    2
   200   203   204    1
   201   203   202    1
   202   226   225    1
   203   216   217    1
   204   216   213    1
   205   212   204   am
   206   212   213    1
   207   218   217    2
   208   225   224    1
   209   204   205    2
   210   217   219   am
   211   213   214    1
   212   214   215    2
   213   220   221    1
   214   224   221    1
   215   221   222    1
   216   222   223    2
