@<TRIPOS>MOLECULE
tmp/4ma7A00.pdb
 82 76 0 0 0
SMALL
GASTEIGER

@<TRIPOS>ATOM
      1  N        -17.3830   30.8510  -41.4420 N.3     4  VAL4       -0.1245
      2  CA       -18.5380   30.6890  -42.2850 C.3     4  VAL4        0.1561
      3  C        -19.8270   30.6070  -41.4750 C.2     4  VAL4        0.2260
      4  O        -19.8540   30.8520  -40.2740 O.2     4  VAL4       -0.2867
      5  CB       -18.4190   29.4880  -43.2360 C.3     4  VAL4        0.0252
      6  CG1      -17.2530   29.6690  -44.1710 C.3     4  VAL4        0.0019
      7  CG2      -18.2990   28.1790  -42.4840 C.3     4  VAL4        0.0019
      8  N        -22.8280   29.5930  -39.4400 N.3     6  GLY6       -0.1210
      9  CA       -23.2250   29.8430  -38.0800 C.3     6  GLY6        0.1956
     10  C        -22.3060   29.0900  -37.1480 C.2     6  GLY6        0.2611
     11  O        -22.6380   28.0260  -36.6400 O.2     6  GLY6       -0.2717
     12  N        -21.1380   29.6660  -36.9520 N.am    7  LEU7       -0.1979
     13  CA       -20.1480   29.1180  -36.0770 C.3     7  LEU7        0.1596
     14  C        -20.3470   29.7290  -34.7180 C.2     7  LEU7        0.2287
     15  O        -19.6770   29.3740  -33.7740 O.2     7  LEU7       -0.2864
     16  CB       -18.7720   29.4500  -36.6200 C.3     7  LEU7        0.0297
     17  CG       -18.4820   28.7810  -37.9580 C.3     7  LEU7        0.0022
     18  CD1      -17.0680   28.9770  -38.4470 C.3     7  LEU7        0.0001
     19  CD2      -18.8730   27.3240  -37.9420 C.3     7  LEU7        0.0001
     20  N        -17.3780   31.0200  -33.4190 N.3    10  TYR10      -0.1241
     21  CA       -16.1980   30.2010  -33.6340 C.3    10  TYR10       0.1605
     22  C        -15.5400   30.4110  -34.9920 C.2    10  TYR10       0.2264
     23  O        -16.1430   30.8940  -35.9070 O.2    10  TYR10      -0.2867
     24  CB       -16.4650   28.7310  -33.3140 C.3    10  TYR10       0.0534
     25  CG       -16.6370   28.4700  -31.8400 C.ar   10  TYR10      -0.0201
     26  CD1      -15.5670   28.1930  -31.0230 C.ar   10  TYR10      -0.0009
     27  CD2      -17.8670   28.5280  -31.2700 C.ar   10  TYR10      -0.0009
     28  CE1      -15.7450   27.9570  -29.6700 C.ar   10  TYR10       0.0417
     29  CE2      -18.0590   28.3180  -29.9390 C.ar   10  TYR10       0.0417
     30  CZ       -17.0090   28.0360  -29.1300 C.ar   10  TYR10       0.1957
     31  OH       -17.2640   27.8150  -27.7920 O.3    10  TYR10      -0.2866
     32  N        -12.4980   28.6340  -37.7450 N.3    12  LEU12      -0.1245
     33  CA       -11.8220   27.4090  -38.1490 C.3    12  LEU12       0.1561
     34  C        -10.3750   27.7110  -38.5130 C.2    12  LEU12       0.2260
     35  O        -10.1120   28.4430  -39.4650 O.2    12  LEU12      -0.2867
     36  CB       -12.5450   26.7950  -39.3480 C.3    12  LEU12       0.0270
     37  CG       -11.9940   25.4920  -39.9300 C.3    12  LEU12       0.0019
     38  CD1      -11.7830   24.4390  -38.8490 C.3    12  LEU12       0.0001
     39  CD2      -12.9370   24.9830  -41.0090 C.3    12  LEU12       0.0001
     40  N        -11.4980   24.3520  -34.0610 N.3    44  TYR44      -0.1241
     41  CA       -12.4160   25.4680  -33.8960 C.3    44  TYR44       0.1605
     42  C        -12.1360   26.1790  -32.5830 C.2    44  TYR44       0.2264
     43  O        -11.8210   25.5520  -31.5710 O.2    44  TYR44      -0.2867
     44  CB       -13.8620   24.9860  -33.9160 C.3    44  TYR44       0.0534
     45  CG       -14.3600   24.6460  -35.2960 C.ar   44  TYR44      -0.0201
     46  CD1      -14.3660   23.3350  -35.7510 C.ar   44  TYR44      -0.0009
     47  CD2      -14.8280   25.6430  -36.1490 C.ar   44  TYR44      -0.0009
     48  CE1      -14.8220   23.0220  -37.0190 C.ar   44  TYR44       0.0417
     49  CE2      -15.2880   25.3420  -37.4190 C.ar   44  TYR44       0.0417
     50  CZ       -15.2850   24.0320  -37.8490 C.ar   44  TYR44       0.1957
     51  OH       -15.7370   23.7280  -39.1130 O.3    44  TYR44      -0.2866
     52  N        -14.9980   22.2100  -28.0960 N.3    64  ILE64      -0.1245
     53  CA       -15.8180   22.5000  -29.2810 C.3    64  ILE64       0.1561
     54  C        -15.3380   21.7080  -30.4880 C.2    64  ILE64       0.2260
     55  O        -16.1490   21.1380  -31.2250 O.2    64  ILE64      -0.2867
     56  CB       -15.8440   23.9950  -29.6500 C.3    64  ILE64       0.0252
     57  CG1      -16.5040   24.7970  -28.5350 C.3    64  ILE64       0.0019
     58  CG2      -16.6150   24.2340  -30.9470 C.3    64  ILE64       0.0019
     59  CD1      -15.5200   25.5050  -27.6530 C.3    64  ILE64       0.0001
     60  N        -17.8290   19.0550  -32.0720 N.3    68  GLN68      -0.1245
     61  CA       -18.3020   19.2540  -33.4360 C.3    68  GLN68       0.1566
     62  C        -17.7510   18.2100  -34.4050 C.2    68  GLN68       0.2260
     63  O        -18.4210   17.8480  -35.3680 O.2    68  GLN68      -0.2867
     64  CB       -17.9980   20.6760  -33.9070 C.3    68  GLN68       0.0367
     65  CG       -18.6800   21.7470  -33.0550 C.3    68  GLN68       0.0905
     66  CD       -20.1570   21.4730  -32.8160 C.2    68  GLN68       0.2608
     67  OE1      -20.8740   21.0280  -33.7150 O.2    68  GLN68      -0.2717
     68  NE2      -20.6180   21.7370  -31.5970 N.am   68  GLN68      -0.0878
     69  N        -20.0990   15.1090  -33.8440 N.3    71  VAL71      -0.1231
     70  CA       -21.4160   15.1060  -34.5070 C.3    71  VAL71       0.1692
     71  C        -21.2540   14.7830  -36.0030 C.2    71  VAL71       0.2592
     72  O        -22.0200   13.9850  -36.5380 O.2    71  VAL71      -0.2718
     73  CB       -22.2950   16.3800  -34.2540 C.3    71  VAL71       0.0266
     74  CG1      -21.9530   17.0640  -32.9330 C.3    71  VAL71       0.0020
     75  CG2      -22.2290   17.3760  -35.4010 C.3    71  VAL71       0.0020
     76  N        -20.2470   15.3630  -36.6670 N.am   72  THR72      -0.1953
     77  CA       -19.9700   15.0230  -38.0730 C.3    72  THR72       0.1897
     78  C        -19.5960   13.5500  -38.2310 C.2    72  THR72       0.2313
     79  O        -19.9780   12.9120  -39.2130 O.2    72  THR72      -0.2863
     80  CB       -18.8330   15.8650  -38.6960 C.3    72  THR72       0.1794
     81  OG1      -17.6240   15.6760  -37.9520 O.3    72  THR72      -0.2208
     82  CG2      -19.1920   17.3440  -38.7330 C.3    72  THR72       0.0378
@<TRIPOS>BOND
     1     6     5    1
     2     5     7    1
     3     5     2    1
     4     2     3    1
     5     2     1    1
     6     3     4    2
     7    39    37    1
     8    37    36    1
     9    37    38    1
    10    35    34    2
    11     8     9    1
    12    36    33    1
    13    79    78    2
    14    51    50    1
    15    82    80    1
    16    80    77    1
    17    80    81    1
    18    34    33    1
    19    18    17    1
    20    78    77    1
    21    33    32    1
    22     9    10    1
    23    77    76    1
    24    17    19    1
    25    17    16    1
    26    50    49   ar
    27    50    48   ar
    28    49    47   ar
    29    10    12   am
    30    10    11    2
    31    48    46   ar
    32    12    13    1
    33    76    71   am
    34    16    13    1
    35    72    71    2
    36    47    45   ar
    37    13    14    1
    38    71    70    1
    39    23    22    2
    40    46    45   ar
    41    75    73    1
    42    63    62    2
    43    45    44    1
    44    22    21    1
    45    14    15    2
    46    70    73    1
    47    70    69    1
    48    62    61    1
    49    73    74    1
    50    40    41    1
    51    44    41    1
    52    64    61    1
    53    64    65    1
    54    41    42    1
    55    67    66    2
    56    21    20    1
    57    21    24    1
    58    61    60    1
    59    24    25    1
    60    65    66    1
    61    66    68   am
    62    42    43    2
    63    25    27   ar
    64    25    26   ar
    65    27    29   ar
    66    55    54    2
    67    26    28   ar
    68    58    56    1
    69    54    53    1
    70    29    30   ar
    71    28    30   ar
    72    56    53    1
    73    56    57    1
    74    53    52    1
    75    30    31    1
    76    57    59    1
