@<TRIPOS>MOLECULE
tmp/4madB00.pdb
 121 120 0 0 0
SMALL
GASTEIGER

@<TRIPOS>ATOM
      1  N         26.5210   -8.4390   11.7890 N.3    96  CYS96      -0.1221
      2  CA        25.0670   -8.3740   11.8250 C.3    96  CYS96       0.1808
      3  C         24.8920   -7.2550   12.8680 C.2    96  CYS96       0.2601
      4  O         25.3670   -6.1780   12.7080 O.2    96  CYS96      -0.2717
      5  CB        24.4990   -9.7040   12.2890 C.3    96  CYS96       0.0970
      6  SG        22.6970   -9.8530   12.1430 S.3    96  CYS96      -0.0800
      7  N         24.1620   -7.5490   13.9250 N.am   97  ALA97      -0.1965
      8  CA        24.1690   -6.6400   15.0620 C.3    97  ALA97       0.1728
      9  C         23.2310   -5.4300   14.9420 C.2    97  ALA97       0.2616
     10  O         23.4080   -4.4520   15.6090 O.2    97  ALA97      -0.2715
     11  CB        25.5510   -6.1740   15.3320 C.3    97  ALA97       0.0334
     12  N         22.2450   -5.5500   14.0740 N.am   98  GLU98      -0.1977
     13  CA        21.3200   -4.4840   13.8050 C.3    98  GLU98       0.1602
     14  C         22.0690   -3.1720   13.4490 C.2    98  GLU98       0.2287
     15  O         21.6260   -2.1320   13.7640 O.2    98  GLU98      -0.2864
     16  CB        20.4090   -4.2960   14.9980 C.3    98  GLU98       0.0415
     17  CG        19.3730   -5.3340   15.1160 C.3    98  GLU98       0.1163
     18  CD        19.9000   -6.6390   15.6230 C.2    98  GLU98       0.3649
     19  OE1       20.3450   -6.6560   16.7520 O.co2  98  GLU98      -0.2457
     20  OE2       19.8190   -7.6340   14.9780 O.co2  98  GLU98      -0.2457
     21  N         27.1400  -16.4310   13.3000 N.3   157  GLU157     -0.1245
     22  CA        25.9440  -17.1200   12.8980 C.3   157  GLU157      0.1567
     23  C         26.0190  -17.5040   11.4150 C.2   157  GLU157      0.2260
     24  O         25.0900  -17.3650   10.7040 O.2   157  GLU157     -0.2867
     25  CB        24.7230  -16.2500   13.1780 C.3   157  GLU157      0.0388
     26  CG        24.4660  -16.0470   14.6740 C.3   157  GLU157      0.1160
     27  CD        23.0400  -15.6490   14.9600 C.2   157  GLU157      0.3649
     28  OE1       22.4900  -14.8990   14.1360 O.co2 157  GLU157     -0.2457
     29  OE2       22.4900  -16.0910   15.9740 O.co2 157  GLU157     -0.2457
     30  N         24.5810  -15.6390   22.6940 N.3   233  GLU233     -0.1245
     31  CA        23.6980  -14.5120   22.7160 C.3   233  GLU233      0.1567
     32  C         22.4040  -14.9270   23.3770 C.2   233  GLU233      0.2260
     33  O         21.6570  -15.6560   22.8220 O.2   233  GLU233     -0.2867
     34  CB        23.4570  -13.9610   21.3170 C.3   233  GLU233      0.0388
     35  CG        24.6880  -13.6710   20.5160 C.3   233  GLU233      0.1160
     36  CD        24.4270  -13.1000   19.1150 C.2   233  GLU233      0.3649
     37  OE1       23.3170  -12.8360   18.7700 O.co2 233  GLU233     -0.2457
     38  OE2       25.3870  -12.9310   18.3910 O.co2 233  GLU233     -0.2457
     39  N         19.1600  -13.5050   24.0760 N.3   235  TRP235     -0.1241
     40  CA        18.3860  -12.3650   23.6270 C.3   235  TRP235      0.1605
     41  C         17.3030  -12.1150   24.6560 C.2   235  TRP235      0.2264
     42  O         16.1950  -12.4770   24.4520 O.2   235  TRP235     -0.2867
     43  CB        17.7480  -12.6190   22.2610 C.3   235  TRP235      0.0550
     44  CG        18.7070  -12.9330   21.1590 C.ar  235  TRP235      0.0003
     45  CD1       19.8730  -12.3420   20.9210 C.ar  235  TRP235      0.0946
     46  CD2       18.5430  -13.9210   20.1240 C.ar  235  TRP235      0.0152
     47  NE1       20.4790  -12.8900   19.8300 N.ar  235  TRP235     -0.2442
     48  CE2       19.6760  -13.8680   19.3240 C.ar  235  TRP235      0.0810
     49  CE3       17.5670  -14.8430   19.8290 C.ar  235  TRP235      0.0012
     50  CZ2       19.8530  -14.7010   18.2400 C.ar  235  TRP235      0.0191
     51  CZ3       17.7390  -15.6530   18.7540 C.ar  235  TRP235      0.0001
     52  CH2       18.8720  -15.5870   17.9760 C.ar  235  TRP235      0.0015
     53  N         14.9320   -7.1390   22.8780 N.3   238  TRP238     -0.1227
     54  CA        14.8450   -7.0810   21.4370 C.3   238  TRP238      0.1737
     55  C         14.8800   -5.6460   20.9910 C.2   238  TRP238      0.2595
     56  O         14.8490   -4.7720   21.8040 O.2   238  TRP238     -0.2718
     57  CB        13.5960   -7.7670   20.9290 C.3   238  TRP238      0.0564
     58  CG        13.6400   -8.3500   19.5340 C.ar  238  TRP238      0.0003
     59  CD1       12.9300   -7.9500   18.4840 C.ar  238  TRP238      0.0946
     60  CD2       14.3580   -9.5060   19.1020 C.ar  238  TRP238      0.0152
     61  NE1       13.1680   -8.7310   17.4170 N.ar  238  TRP238     -0.2442
     62  CE2       14.0560   -9.6990   17.7680 C.ar  238  TRP238      0.0810
     63  CE3       15.2650  -10.3630   19.6950 C.ar  238  TRP238      0.0012
     64  CZ2       14.5980  -10.7400   17.0320 C.ar  238  TRP238      0.0191
     65  CZ3       15.7840  -11.3650   18.9650 C.ar  238  TRP238      0.0001
     66  CH2       15.4490  -11.5580   17.6570 C.ar  238  TRP238      0.0015
     67  N         14.9910   -5.4700   19.6930 N.am  239  PHE239     -0.1976
     68  CA        15.1000   -4.1830   19.0470 C.3   239  PHE239      0.1639
     69  C         13.8440   -3.7890   18.2750 C.2   239  PHE239      0.2290
     70  O         12.9950   -4.5910   18.0020 O.2   239  PHE239     -0.2864
     71  CB        16.2790   -4.1570   18.1110 C.3   239  PHE239      0.0560
     72  CG        16.1780   -5.1270   17.0280 C.ar  239  PHE239     -0.0200
     73  CD1       15.8400   -4.7350   15.7780 C.ar  239  PHE239     -0.0042
     74  CD2       16.3940   -6.4460   17.2590 C.ar  239  PHE239     -0.0042
     75  CE1       15.7260   -5.6320   14.8130 C.ar  239  PHE239     -0.0003
     76  CE2       16.2900   -7.3410   16.3010 C.ar  239  PHE239     -0.0003
     77  CZ        15.9770   -6.9480   15.0740 C.ar  239  PHE239     -0.0000
     78  N         22.6350  -10.4980   25.5850 N.3   271  TYR271     -0.1241
     79  CA        22.5540   -9.6340   24.4320 C.3   271  TYR271      0.1605
     80  C         21.2560   -8.8400   24.4790 C.2   271  TYR271      0.2264
     81  O         20.2590   -9.3960   24.2310 O.2   271  TYR271     -0.2867
     82  CB        22.6490  -10.4530   23.1450 C.3   271  TYR271      0.0534
     83  CG        22.9110   -9.6070   21.9350 C.ar  271  TYR271     -0.0201
     84  CD1       24.1410   -9.5610   21.3580 C.ar  271  TYR271     -0.0009
     85  CD2       21.9460   -8.7930   21.4240 C.ar  271  TYR271     -0.0009
     86  CE1       24.3850   -8.7600   20.3240 C.ar  271  TYR271      0.0417
     87  CE2       22.1820   -7.9950   20.4020 C.ar  271  TYR271      0.0417
     88  CZ        23.3840   -7.9760   19.8240 C.ar  271  TYR271      0.1957
     89  OH        23.5800   -7.1410   18.7950 O.3   271  TYR271     -0.2866
     90  N         16.2550   -4.7520    8.4410 N.3   286  ASN286     -0.1240
     91  CA        15.8340   -6.0840    8.0990 C.3   286  ASN286      0.1653
     92  C         14.9000   -6.0830    6.8620 C.2   286  ASN286      0.2266
     93  O         14.4910   -5.0860    6.4210 O.2   286  ASN286     -0.2867
     94  CB        15.1890   -6.8180    9.2790 C.3   286  ASN286      0.1155
     95  CG        16.1800   -7.0790   10.4190 C.2   286  ASN286      0.2627
     96  OD1       16.9090   -8.0330   10.4200 O.2   286  ASN286     -0.2716
     97  ND2       16.2080   -6.2050   11.3200 N.am  286  ASN286     -0.0877
     98  N         17.2660   -1.6870   23.8140 N.3   301  TYR301     -0.1241
     99  CA        17.1640   -3.1210   23.6150 C.3   301  TYR301      0.1605
    100  C         16.3880   -3.7910   24.7410 C.2   301  TYR301      0.2264
    101  O         16.3660   -4.9620   24.8370 O.2   301  TYR301     -0.2867
    102  CB        18.5720   -3.7210   23.4670 C.3   301  TYR301      0.0534
    103  CG        18.6220   -4.9660   22.6570 C.ar  301  TYR301     -0.0201
    104  CD1       18.8470   -4.9350   21.3290 C.ar  301  TYR301     -0.0009
    105  CD2       18.4580   -6.1700   23.2420 C.ar  301  TYR301     -0.0009
    106  CE1       18.8730   -6.0560   20.6220 C.ar  301  TYR301      0.0417
    107  CE2       18.4810   -7.2900   22.5370 C.ar  301  TYR301      0.0417
    108  CZ        18.6980   -7.2390   21.2490 C.ar  301  TYR301      0.1957
    109  OH        18.7020   -8.3780   20.5690 O.3   301  TYR301     -0.2866
    110  N         20.8870   -8.5040    7.8450 N.3   450  TYR450     -0.1241
    111  CA        20.5800   -9.8960    7.9950 C.3   450  TYR450      0.1605
    112  C         19.7550  -10.3920    6.8210 C.2   450  TYR450      0.2264
    113  O         18.9650   -9.6970    6.3180 O.2   450  TYR450     -0.2867
    114  CB        19.7670  -10.1110    9.2620 C.3   450  TYR450      0.0534
    115  CG        19.4940  -11.5570    9.6200 C.ar  450  TYR450     -0.0201
    116  CD1       20.4320  -12.3290   10.2410 C.ar  450  TYR450     -0.0009
    117  CD2       18.3160  -12.1510    9.3110 C.ar  450  TYR450     -0.0009
    118  CE1       20.1900  -13.6060   10.5670 C.ar  450  TYR450      0.0417
    119  CE2       18.0810  -13.4350    9.6260 C.ar  450  TYR450      0.0417
    120  CZ        19.0100  -14.1630   10.2220 C.ar  450  TYR450      0.1957
    121  OH        18.7230  -15.4340   10.5280 O.3   450  TYR450     -0.2866
@<TRIPOS>BOND
     1   113   112    2
     2    93    92    2
     3   112   111    1
     4    92    91    1
     5   110   111    1
     6   111   114    1
     7    91    90    1
     8    91    94    1
     9   114   115    1
    10    94    95    1
    11   117   115   ar
    12   117   119   ar
    13   115   116   ar
    14   119   120   ar
    15   120   121    1
    16   120   118   ar
    17   116   118   ar
    18    95    96    2
    19    95    97   am
    20    24    23    2
    21    23    22    1
    22     1     2    1
    23     2     5    1
    24     2     3    1
    25     6     5    1
    26     4     3    2
    27     3     7   am
    28    22    25    1
    29    22    21    1
    30    25    26    1
    31    14    15    2
    32    14    13    1
    33    13    12    1
    34    13    16    1
    35     7     8    1
    36    12     9   am
    37    28    27   ar
    38    26    27    1
    39    75    77   ar
    40    75    73   ar
    41     9     8    1
    42     9    10    2
    43    27    29   ar
    44    20    18   ar
    45    16    17    1
    46     8    11    1
    47    77    76   ar
    48    17    18    1
    49    18    19   ar
    50    73    72   ar
    51    76    74   ar
    52    72    74   ar
    53    72    71    1
    54    64    66   ar
    55    64    62   ar
    56    61    62   ar
    57    61    59   ar
    58    66    65   ar
    59    62    60   ar
    60    52    50   ar
    61    52    51   ar
    62    70    69    2
    63    71    68    1
    64    50    48   ar
    65    69    68    1
    66    38    36   ar
    67    59    58   ar
    68    51    49   ar
    69    37    36   ar
    70    89    88    1
    71    65    63   ar
    72    68    67    1
    73    60    58   ar
    74    60    63   ar
    75    36    35    1
    76    48    47   ar
    77    48    46   ar
    78    58    57    1
    79    67    55   am
    80    88    86   ar
    81    88    87   ar
    82    49    46   ar
    83    47    45   ar
    84    46    44   ar
    85    86    84   ar
    86    87    85   ar
    87    35    34    1
    88   109   108    1
    89   106   108   ar
    90   106   104   ar
    91    45    44   ar
    92    57    54    1
    93    55    54    1
    94    55    56    2
    95    44    43    1
    96   108   107   ar
    97    34    31    1
    98   104   103   ar
    99    84    83   ar
   100    85    83   ar
   101    54    53    1
   102    83    82    1
   103    43    40    1
   104   107   105   ar
   105   103   105   ar
   106   103   102    1
   107    30    31    1
   108    31    32    1
   109    33    32    2
   110    82    79    1
   111   102    99    1
   112    99    98    1
   113    99   100    1
   114    40    39    1
   115    40    41    1
   116    81    80    2
   117    79    80    1
   118    79    78    1
   119    42    41    2
   120   100   101    2
