@<TRIPOS>MOLECULE
tmp/4madA01.pdb
 80 79 0 0 0
SMALL
GASTEIGER

@<TRIPOS>ATOM
      1  N         29.0620  -34.9400  -19.4180 N.3   358  HIS358     -0.1226
      2  CA        30.3360  -34.7400  -20.0470 C.3   358  HIS358      0.1752
      3  C         30.3590  -35.0160  -21.5450 C.2   358  HIS358      0.2596
      4  O         31.3270  -34.8130  -22.2130 O.2   358  HIS358     -0.2718
      5  CB        31.3880  -35.5670  -19.3960 C.3   358  HIS358      0.0759
      6  CG        31.9370  -34.9710  -18.1530 C.ar  358  HIS358      0.0818
      7  ND1       31.1690  -34.7110  -17.0460 N.ar  358  HIS358     -0.2268
      8  CD2       33.1980  -34.6430  -17.8220 C.ar  358  HIS358      0.1154
      9  CE1       31.9350  -34.2250  -16.0920 C.ar  358  HIS358      0.1986
     10  NE2       33.1720  -34.2080  -16.5270 N.ar  358  HIS358     -0.2212
     11  N         29.3150  -35.6490  -22.0000 N.am  359  ARG359     -0.1966
     12  CA        29.1040  -35.8990  -23.4130 C.3   359  ARG359      0.1729
     13  C         28.7470  -34.6270  -24.1880 C.2   359  ARG359      0.2616
     14  O         28.9860  -34.4880  -25.3590 O.2   359  ARG359     -0.2715
     15  CB        28.0800  -36.9930  -23.6500 C.3   359  ARG359      0.0348
     16  CG        28.5570  -38.3790  -23.2740 C.3   359  ARG359      0.0492
     17  CD        27.4720  -39.4550  -23.3530 C.3   359  ARG359      0.2205
     18  NE        27.9220  -40.7290  -22.8690 N.pl3 359  ARG359     -0.0865
     19  CZ        27.1750  -41.7770  -22.6510 C.cat 359  ARG359      0.5346
     20  NH1       25.9020  -41.7310  -22.8430 N.pl3 359  ARG359      0.1354
     21  NH2       27.7110  -42.8740  -22.2160 N.pl3 359  ARG359      0.1354
     22  N         28.0920  -33.7310  -23.4910 N.am  360  ILE360     -0.1963
     23  CA        27.6740  -32.5050  -24.1150 C.3   360  ILE360      0.1727
     24  C         28.0160  -31.2280  -23.3280 C.2   360  ILE360      0.2617
     25  O         27.4480  -30.2300  -23.5690 O.2   360  ILE360     -0.2715
     26  CB        26.2020  -32.5600  -24.4630 C.3   360  ILE360      0.0290
     27  CG1       25.4120  -32.9460  -23.2370 C.3   360  ILE360      0.0022
     28  CG2       25.9930  -33.5830  -25.5140 C.3   360  ILE360      0.0023
     29  CD1       23.9900  -32.7510  -23.3550 C.3   360  ILE360      0.0001
     30  N         28.9320  -31.3020  -22.3870 N.am  361  SER361     -0.1936
     31  CA        29.3290  -30.1490  -21.6530 C.3   361  SER361      0.2055
     32  C         30.7030  -30.3410  -21.0500 C.2   361  SER361      0.2643
     33  O         31.2570  -31.3930  -21.1120 O.2   361  SER361     -0.2714
     34  CB        28.3160  -29.8270  -20.5270 C.3   361  SER361      0.2130
     35  OG        28.5300  -28.5890  -19.9200 O.3   361  SER361     -0.2179
     36  N         31.2240  -29.2770  -20.4780 N.am  362  THR362     -0.1950
     37  CA        32.4750  -29.2780  -19.7600 C.3   362  THR362      0.1897
     38  C         32.2040  -28.5680  -18.4390 C.2   362  THR362      0.2313
     39  O         31.7200  -27.5140  -18.4400 O.2   362  THR362     -0.2863
     40  CB        33.5300  -28.5640  -20.5530 C.3   362  THR362      0.1794
     41  OG1       33.5870  -29.1370  -21.8400 O.3   362  THR362     -0.2208
     42  CG2       34.8520  -28.7090  -19.9130 C.3   362  THR362      0.0378
     43  N         24.4270  -25.4850  -24.1930 N.3   480  PRO480     -0.2102
     44  CA        24.0280  -24.7180  -25.3720 C.3   480  PRO480      0.1504
     45  C         23.4820  -25.6110  -26.5110 C.2   480  PRO480      0.2576
     46  O         22.9110  -25.1330  -27.4290 O.2   480  PRO480     -0.2718
     47  CB        25.3210  -24.0700  -25.8170 C.3   480  PRO480      0.0282
     48  CG        26.3660  -24.8740  -25.2430 C.3   480  PRO480      0.0208
     49  CD        25.8720  -25.4930  -23.9980 C.3   480  PRO480      0.0893
     50  N         23.7530  -26.8920  -26.4060 N.am  481  LEU481     -0.1966
     51  CA        23.2530  -27.9000  -27.3210 C.3   481  LEU481      0.1728
     52  C         23.6990  -27.6290  -28.7580 C.2   481  LEU481      0.2616
     53  O         22.9940  -27.9180  -29.6510 O.2   481  LEU481     -0.2715
     54  CB        21.7530  -27.9990  -27.2490 C.3   481  LEU481      0.0311
     55  CG        21.0950  -28.3320  -25.9140 C.3   481  LEU481      0.0022
     56  CD1       19.6530  -28.5990  -26.1260 C.3   481  LEU481      0.0001
     57  CD2       21.7830  -29.4810  -25.2600 C.3   481  LEU481      0.0001
     58  N         24.8500  -27.0390  -28.9390 N.am  482  LYS482     -0.1963
     59  CA        25.4460  -26.8300  -30.2520 C.3   482  LYS482      0.1728
     60  C         25.9640  -28.0760  -30.9900 C.2   482  LYS482      0.2616
     61  O         26.0420  -28.0830  -32.1830 O.2   482  LYS482     -0.2715
     62  CB        26.5230  -25.7430  -30.1980 C.3   482  LYS482      0.0311
     63  CG        26.0600  -24.4210  -29.6620 C.3   482  LYS482      0.0038
     64  CD        27.0900  -23.3490  -29.6800 C.3   482  LYS482      0.0206
     65  CE        28.1300  -23.5200  -28.6630 C.3   482  LYS482      0.1093
     66  NZ        28.8460  -22.2380  -28.4090 N.3   482  LYS482     -0.1314
     67  N         26.4670  -29.0420  -30.2310 N.am  483  ASP483     -0.1971
     68  CA        27.0920  -30.2090  -30.7930 C.3   483  ASP483      0.1709
     69  C         26.7250  -31.3970  -29.9700 C.2   483  ASP483      0.2293
     70  O         27.2390  -31.5890  -28.9180 O.2   483  ASP483     -0.2864
     71  CB        28.5930  -30.0550  -30.8120 C.3   483  ASP483      0.1436
     72  CG        29.3020  -31.3490  -31.0660 C.2   483  ASP483      0.3671
     73  OD1       28.6880  -32.2260  -31.6210 O.co2 483  ASP483     -0.2456
     74  OD2       30.4610  -31.4640  -30.7130 O.co2 483  ASP483     -0.2456
     75  N         28.4070  -36.3680  -29.5470 N.3   486  SER486     -0.1217
     76  CA        28.9940  -37.3030  -28.6070 C.3   486  SER486      0.1889
     77  C         28.0040  -38.0800  -27.7300 C.2   486  SER486      0.2288
     78  O         28.3570  -38.9690  -27.0450 O.2   486  SER486     -0.2866
     79  CB        30.0750  -36.6340  -27.7650 C.3   486  SER486      0.2089
     80  OG        31.1240  -36.1790  -28.5520 O.3   486  SER486     -0.2183
@<TRIPOS>BOND
     1    61    60    2
     2    73    72   ar
     3    72    71    1
     4    72    74   ar
     5    60    59    1
     6    60    67   am
     7    71    68    1
     8    68    67    1
     9    68    69    1
    10    59    62    1
    11    59    58    1
    12    62    63    1
    13    69    70    2
    14    64    63    1
    15    64    65    1
    16    53    52    2
    17    75    76    1
    18    58    52   am
    19    52    51    1
    20    65    66    1
    21    76    79    1
    22    76    77    1
    23    80    79    1
    24    77    78    2
    25    46    45    2
    26    51    54    1
    27    51    50    1
    28    54    55    1
    29    45    50   am
    30    45    44    1
    31    56    55    1
    32    55    57    1
    33    47    44    1
    34    47    48    1
    35    28    26    1
    36    44    43    1
    37    14    13    2
    38    48    49    1
    39    26    23    1
    40    26    27    1
    41    43    49    1
    42    13    22   am
    43    13    12    1
    44    23    22    1
    45    23    24    1
    46    15    12    1
    47    15    16    1
    48    25    24    2
    49    12    11    1
    50    29    27    1
    51    17    16    1
    52    17    18    1
    53    24    30   am
    54    18    19    2
    55    20    19    1
    56    19    21    1
    57    30    31    1
    58     4     3    2
    59    11     3   am
    60    41    40    1
    61    31    32    1
    62    31    34    1
    63     3     2    1
    64    33    32    2
    65    32    36   am
    66    40    42    1
    67    40    37    1
    68    34    35    1
    69    36    37    1
    70     2     1    1
    71     2     5    1
    72    37    38    1
    73     5     6    1
    74    39    38    2
    75     6     8   ar
    76     6     7   ar
    77     8    10   ar
    78     7     9   ar
    79    10     9   ar
