@<TRIPOS>MOLECULE
tmp/4maeB00.pdb
 182 174 0 0 0
SMALL
GASTEIGER

@<TRIPOS>ATOM
      1  N          5.8130  -24.7740   44.0670 N.3    55  GLU55      -0.1245
      2  CA         4.8280  -25.6730   44.6710 C.3    55  GLU55       0.1567
      3  C          3.6530  -24.9170   45.2840 C.2    55  GLU55       0.2260
      4  O          3.6120  -23.6890   45.2820 O.2    55  GLU55      -0.2867
      5  CB         5.5120  -26.5790   45.7020 C.3    55  GLU55       0.0388
      6  CG         6.3890  -27.6280   45.0170 C.3    55  GLU55       0.1160
      7  CD         6.9900  -28.6700   45.9390 C.2    55  GLU55       0.3649
      8  OE1        7.8290  -29.4520   45.4360 O.co2  55  GLU55      -0.2457
      9  OE2        6.6410  -28.7290   47.1390 O.co2  55  GLU55      -0.2457
     10  N         17.1090  -29.8950   51.1130 N.3   104  CYS104     -0.1221
     11  CA        17.3240  -31.2220   50.5190 C.3   104  CYS104      0.1808
     12  C         16.8490  -31.3230   49.0790 C.2   104  CYS104      0.2601
     13  O         17.4900  -31.9540   48.2370 O.2   104  CYS104     -0.2717
     14  CB        16.6220  -32.3270   51.3420 C.3   104  CYS104      0.0970
     15  SG        14.7780  -32.3880   51.2940 S.3   104  CYS104     -0.0800
     16  N         15.7180  -30.6910   48.8080 N.am  105  CYS105     -0.1956
     17  CA        14.8380  -31.1460   47.7470 C.3   105  CYS105      0.1843
     18  C         14.2870  -29.9850   46.9380 C.2   105  CYS105      0.2625
     19  O         13.1090  -29.9700   46.5920 O.2   105  CYS105     -0.2714
     20  CB        13.7110  -31.9480   48.3930 C.3   105  CYS105      0.0997
     21  SG        14.3070  -33.2850   49.4980 S.3   105  CYS105     -0.0797
     22  N         15.1800  -29.0470   46.6200 N.am  106  ASP106     -0.1971
     23  CA        14.8680  -27.7810   45.9540 C.3   106  ASP106      0.1709
     24  C         14.3380  -26.7400   46.9410 C.2   106  ASP106      0.2293
     25  O         13.8700  -27.0670   48.0320 O.2   106  ASP106     -0.2864
     26  CB        13.9050  -27.9650   44.7700 C.3   106  ASP106      0.1436
     27  CG        13.9800  -26.8270   43.7570 C.2   106  ASP106      0.3671
     28  OD1       14.9660  -26.0540   43.7630 O.co2 106  ASP106     -0.2456
     29  OD2       13.0340  -26.7040   42.9430 O.co2 106  ASP106     -0.2456
     30  N         11.7540  -24.9420   47.3510 N.3   108  VAL108     -0.1245
     31  CA        10.3190  -24.7690   47.2000 C.3   108  VAL108      0.1561
     32  C          9.6760  -24.2410   48.4790 C.2   108  VAL108      0.2260
     33  O         10.2780  -24.2650   49.5720 O.2   108  VAL108     -0.2867
     34  CB         9.6390  -26.0960   46.8090 C.3   108  VAL108      0.0252
     35  CG1       10.1560  -26.5830   45.4500 C.3   108  VAL108      0.0019
     36  CG2        9.8530  -27.1600   47.8890 C.3   108  VAL108      0.0019
     37  N          5.4490  -24.3090   49.9810 N.3   110  ARG110     -0.1245
     38  CA         4.1110  -24.7940   49.6580 C.3   110  ARG110      0.1563
     39  C          2.9910  -23.7910   49.8920 C.2   110  ARG110      0.2260
     40  O          1.8330  -24.0960   49.6190 O.2   110  ARG110     -0.2867
     41  CB         3.8490  -26.1230   50.3690 C.3   110  ARG110      0.0307
     42  CG         4.7410  -27.1950   49.7930 C.3   110  ARG110      0.0489
     43  CD         4.6430  -28.5770   50.4060 C.3   110  ARG110      0.2205
     44  NE         5.8330  -29.2430   49.9190 N.pl3 110  ARG110     -0.0865
     45  CZ         7.0040  -29.2470   50.5450 C.cat 110  ARG110      0.5346
     46  NH1        7.1320  -28.7430   51.7790 N.pl3 110  ARG110      0.1354
     47  NH2        8.0430  -29.8070   49.9510 N.pl3 110  ARG110      0.1354
     48  N          9.7500  -25.5070   54.3610 N.3   154  THR154     -0.1218
     49  CA         9.1550  -25.5000   53.0160 C.3   154  THR154      0.1862
     50  C          7.6290  -25.6760   53.0420 C.2   154  THR154      0.2287
     51  O          6.9540  -25.3870   52.0500 O.2   154  THR154     -0.2866
     52  CB         9.7580  -26.6160   52.1390 C.3   154  THR154      0.1770
     53  OG1        9.5380  -27.8810   52.7680 O.3   154  THR154     -0.2211
     54  CG2       11.2600  -26.4050   51.9310 C.3   154  THR154      0.0375
     55  N         11.5930  -28.7260   58.2670 N.3   169  SER169     -0.1202
     56  CA        12.2240  -29.7220   57.4070 C.3   169  SER169      0.2020
     57  C         13.6420  -30.0190   57.9000 C.2   169  SER169      0.2619
     58  O         14.2330  -29.2340   58.6490 O.2   169  SER169     -0.2717
     59  CB        12.2910  -29.2030   55.9730 C.3   169  SER169      0.2103
     60  OG        10.9880  -28.9690   55.4570 O.3   169  SER169     -0.2182
     61  N         14.1860  -31.1400   57.4410 N.am  170  GLY170     -0.1942
     62  CA        15.5280  -31.5730   57.8080 C.3   170  GLY170      0.2014
     63  C         15.6670  -33.0250   58.2200 C.2   170  GLY170      0.2639
     64  O         16.6160  -33.3780   58.9350 O.2   170  GLY170     -0.2714
     65  N         14.7610  -33.8820   57.7530 N.am  171  GLY171     -0.1939
     66  CA        14.8570  -35.3170   58.0220 C.3   171  GLY171      0.2014
     67  C         16.1160  -35.9640   57.4650 C.2   171  GLY171      0.2638
     68  O         16.4980  -37.0550   57.8860 O.2   171  GLY171     -0.2714
     69  N         16.7550  -35.2990   56.5070 N.am  172  GLU172     -0.1977
     70  CA        18.0300  -35.7610   55.9700 C.3   172  GLU172      0.1602
     71  C         19.2120  -35.0400   56.6270 C.2   172  GLU172      0.2287
     72  O         20.3480  -35.1920   56.1780 O.2   172  GLU172     -0.2864
     73  CB        18.0490  -35.5740   54.4460 C.3   172  GLU172      0.0415
     74  CG        17.2770  -36.6470   53.6710 C.3   172  GLU172      0.1163
     75  CD        15.7640  -36.6510   53.9170 C.2   172  GLU172      0.3649
     76  OE1       15.2490  -37.6330   54.4990 O.co2 172  GLU172     -0.2457
     77  OE2       15.0820  -35.6870   53.5030 O.co2 172  GLU172     -0.2457
     78  N         10.1840  -34.9690   60.8090 N.3   236  THR236     -0.1218
     79  CA         9.8820  -33.5920   60.4400 C.3   236  THR236      0.1862
     80  C          8.4770  -33.4970   59.8450 C.2   236  THR236      0.2287
     81  O          7.8320  -34.5130   59.5900 O.2   236  THR236     -0.2866
     82  CB        10.9360  -33.0090   59.5000 C.3   236  THR236      0.1770
     83  OG1       10.9560  -33.7530   58.2810 O.3   236  THR236     -0.2211
     84  CG2       12.2940  -33.0680   60.1580 C.3   236  THR236      0.0375
     85  N          6.7830  -31.3250   57.2670 N.3   238  TRP238     -0.1241
     86  CA         6.8410  -30.3990   56.1280 C.3   238  TRP238      0.1605
     87  C          5.6740  -30.5570   55.1400 C.2   238  TRP238      0.2264
     88  O          5.6440  -29.8760   54.1140 O.2   238  TRP238     -0.2867
     89  CB         8.1910  -30.5520   55.3980 C.3   238  TRP238      0.0550
     90  CG         8.5060  -31.9570   54.9810 C.ar  238  TRP238      0.0003
     91  CD1        9.1140  -32.9150   55.7390 C.ar  238  TRP238      0.0946
     92  CD2        8.2320  -32.5630   53.7120 C.ar  238  TRP238      0.0152
     93  NE1        9.2240  -34.0850   55.0270 N.ar  238  TRP238     -0.2442
     94  CE2        8.6930  -33.8920   53.7760 C.ar  238  TRP238      0.0810
     95  CE3        7.6340  -32.1110   52.5240 C.ar  238  TRP238      0.0012
     96  CZ2        8.5780  -34.7740   52.7010 C.ar  238  TRP238      0.0191
     97  CZ3        7.5330  -32.9830   51.4590 C.ar  238  TRP238      0.0001
     98  CH2        8.0090  -34.3000   51.5520 C.ar  238  TRP238      0.0015
     99  N         10.6230  -39.5270   57.7850 N.3   256  ASN256     -0.1240
    100  CA        11.5690  -40.5790   58.1060 C.3   256  ASN256      0.1653
    101  C         12.3170  -40.3000   59.4210 C.2   256  ASN256      0.2266
    102  O         12.4550  -39.1440   59.8130 O.2   256  ASN256     -0.2867
    103  CB        12.5860  -40.6830   56.9740 C.3   256  ASN256      0.1155
    104  CG        13.4440  -39.4250   56.8400 C.2   256  ASN256      0.2627
    105  OD1       12.9510  -38.3450   56.4620 O.2   256  ASN256     -0.2716
    106  ND2       14.7280  -39.5500   57.1730 N.am  256  ASN256     -0.0877
    107  N         13.1470  -44.3610   53.5340 N.3   299  ASP299     -0.1239
    108  CA        12.8130  -42.9240   53.4770 C.3   299  ASP299      0.1674
    109  C         11.3510  -42.7080   53.0730 C.2   299  ASP299      0.2266
    110  O         11.0330  -41.8160   52.2840 O.2   299  ASP299     -0.2867
    111  CB        13.7650  -42.1340   52.5500 C.3   299  ASP299      0.1410
    112  CG        13.5130  -40.6250   52.5810 C.2   299  ASP299      0.3668
    113  OD1       13.4630  -40.0330   53.6820 O.co2 299  ASP299     -0.2456
    114  OD2       13.3700  -40.0190   51.4980 O.co2 299  ASP299     -0.2456
    115  N          8.7210  -41.0220   54.1080 N.3   301  ASP301     -0.1239
    116  CA         8.1700  -39.9400   54.9360 C.3   301  ASP301      0.1674
    117  C          6.6610  -40.0870   55.0190 C.2   301  ASP301      0.2266
    118  O          6.0190  -40.4530   54.0300 O.2   301  ASP301     -0.2867
    119  CB         8.4880  -38.5650   54.3470 C.3   301  ASP301      0.1410
    120  CG         9.9540  -38.1970   54.4590 C.2   301  ASP301      0.3668
    121  OD1       10.2580  -36.9940   54.4860 O.co2 301  ASP301     -0.2456
    122  OD2       10.8070  -39.0980   54.5280 O.co2 301  ASP301     -0.2456
    123  N          3.6680  -42.2460   51.1490 N.3   326  ARG326     -0.1245
    124  CA         4.8640  -42.5600   50.3900 C.3   326  ARG326      0.1563
    125  C          5.1160  -44.0590   50.3420 C.2   326  ARG326      0.2260
    126  O          5.5780  -44.5650   49.3290 O.2   326  ARG326     -0.2867
    127  CB         6.0630  -41.8430   51.0000 C.3   326  ARG326      0.0307
    128  CG         6.0370  -40.3230   50.7890 C.3   326  ARG326      0.0489
    129  CD         6.9430  -39.9100   49.6590 C.3   326  ARG326      0.2205
    130  NE         8.3500  -40.0420   50.0400 N.pl3 326  ARG326     -0.0865
    131  CZ         9.0580  -39.1060   50.6650 C.cat 326  ARG326      0.5346
    132  NH1        8.5020  -37.9530   50.9970 N.pl3 326  ARG326      0.1354
    133  NH2       10.3300  -39.3280   50.9770 N.pl3 326  ARG326      0.1354
    134  N          4.5000  -38.3160   46.3930 N.3   388  ASP388     -0.1225
    135  CA         5.2030  -37.4440   47.3230 C.3   388  ASP388      0.1805
    136  C          4.1900  -36.4010   47.8040 C.2   388  ASP388      0.2597
    137  O          2.9900  -36.6870   47.8650 O.2   388  ASP388     -0.2718
    138  CB         6.4570  -36.8520   46.6530 C.3   388  ASP388      0.1424
    139  CG         7.5490  -36.5070   47.6440 C.2   388  ASP388      0.3668
    140  OD1        7.2690  -35.7490   48.5950 O.co2 388  ASP388     -0.2456
    141  OD2        8.6960  -36.9640   47.4560 O.co2 388  ASP388     -0.2456
    142  N          4.6620  -35.2110   48.1520 N.am  389  GLN389     -0.1979
    143  CA         3.8100  -34.1750   48.7510 C.3   389  GLN389      0.1601
    144  C          2.5910  -33.7420   47.9290 C.2   389  GLN389      0.2287
    145  O          1.5810  -33.3240   48.5040 O.2   389  GLN389     -0.2864
    146  CB         4.6660  -32.9530   49.1060 C.3   389  GLN389      0.0394
    147  CG         5.4680  -32.3760   47.9330 C.3   389  GLN389      0.0908
    148  CD         4.6360  -31.4510   47.0690 C.2   389  GLN389      0.2608
    149  OE1        3.9100  -30.6050   47.5910 O.2   389  GLN389     -0.2717
    150  NE2        4.7490  -31.5890   45.7440 N.am  389  GLN389     -0.0878
    151  N          3.5680  -34.5600   39.7070 N.3   467  TRP467     -0.1241
    152  CA         4.0250  -33.8180   40.8720 C.3   467  TRP467      0.1605
    153  C          3.1740  -32.5660   41.0540 C.2   467  TRP467      0.2264
    154  O          3.6720  -31.4970   41.4260 O.2   467  TRP467     -0.2867
    155  CB         5.4960  -33.4610   40.6900 C.3   467  TRP467      0.0550
    156  CG         6.2980  -33.4890   41.9430 C.ar  467  TRP467      0.0003
    157  CD1        6.4750  -32.4670   42.8310 C.ar  467  TRP467      0.0946
    158  CD2        7.0690  -34.5870   42.4290 C.ar  467  TRP467      0.0152
    159  NE1        7.3100  -32.8690   43.8530 N.ar  467  TRP467     -0.2442
    160  CE2        7.6820  -34.1690   43.6280 C.ar  467  TRP467      0.0810
    161  CE3        7.2910  -35.8950   41.9730 C.ar  467  TRP467      0.0012
    162  CZ2        8.5160  -35.0060   44.3680 C.ar  467  TRP467      0.0191
    163  CZ3        8.1140  -36.7270   42.7170 C.ar  467  TRP467      0.0001
    164  CH2        8.7120  -36.2760   43.9010 C.ar  467  TRP467      0.0015
    165  N         11.4130  -29.1480   42.7250 N.3   531  GLY531     -0.1210
    166  CA        11.1510  -30.1880   43.7150 C.3   531  GLY531      0.1956
    167  C         12.1660  -31.3100   43.5890 C.2   531  GLY531      0.2611
    168  O         13.1710  -31.1800   42.8860 O.2   531  GLY531     -0.2717
    169  N         11.9200  -32.4300   44.2660 N.am  532  TRP532     -0.1976
    170  CA        12.9510  -33.4630   44.3710 C.3   532  TRP532      0.1640
    171  C         13.2590  -34.1270   43.0260 C.2   532  TRP532      0.2290
    172  O         14.4160  -34.1680   42.5980 O.2   532  TRP532     -0.2864
    173  CB        12.5890  -34.5090   45.4330 C.3   532  TRP532      0.0576
    174  CG        13.6980  -35.4890   45.7230 C.ar  532  TRP532      0.0006
    175  CD1       15.0160  -35.3830   45.3680 C.ar  532  TRP532      0.0946
    176  CD2       13.5860  -36.7100   46.4650 C.ar  532  TRP532      0.0152
    177  NE1       15.7170  -36.4720   45.8160 N.ar  532  TRP532     -0.2442
    178  CE2       14.8660  -37.2980   46.5010 C.ar  532  TRP532      0.0810
    179  CE3       12.5240  -37.3660   47.0970 C.ar  532  TRP532      0.0012
    180  CZ2       15.1120  -38.5180   47.1400 C.ar  532  TRP532      0.0191
    181  CZ3       12.7690  -38.5710   47.7350 C.ar  532  TRP532      0.0001
    182  CH2       14.0530  -39.1320   47.7490 C.ar  532  TRP532      0.0015
@<TRIPOS>BOND
     1   151   152    1
     2   155   152    1
     3   155   156    1
     4   152   153    1
     5   153   154    2
     6   156   158   ar
     7   156   157   ar
     8   161   158   ar
     9   161   163   ar
    10   158   160   ar
    11   172   171    2
    12   163   164   ar
    13   165   166    1
    14   157   159   ar
    15   168   167    2
    16    29    27   ar
    17   171   170    1
    18   167   166    1
    19   167   169   am
    20   160   159   ar
    21   160   162   ar
    22    27    28   ar
    23    27    26    1
    24   164   162   ar
    25     1     2    1
    26   169   170    1
    27   170   173    1
    28     2     3    1
    29     2     5    1
    30    26    23    1
    31     6     5    1
    32     6     7    1
    33     4     3    2
    34   175   174   ar
    35   175   177   ar
    36   173   174    1
    37     8     7   ar
    38    35    34    1
    39   174   176   ar
    40   150   148   am
    41   177   178   ar
    42     7     9   ar
    43    23    22    1
    44    23    24    1
    45   134   135    1
    46   176   178   ar
    47   176   179   ar
    48   178   180   ar
    49    19    18    2
    50    22    18   am
    51   138   135    1
    52   138   139    1
    53    34    31    1
    54    34    36    1
    55    18    17    1
    56    24    25    2
    57   148   149    2
    58   148   147    1
    59   179   181   ar
    60   180   182   ar
    61    31    30    1
    62    31    32    1
    63   135   136    1
    64   141   139   ar
    65   139   140   ar
    66   181   182   ar
    67    17    20    1
    68    17    16    1
    69   136   137    2
    70   136   142   am
    71   144   145    2
    72   144   143    1
    73   147   146    1
    74   142   143    1
    75    13    12    2
    76    20    21    1
    77    32    33    2
    78   143   146    1
    79    16    12   am
    80    12    11    1
    81   126   125    2
    82    21    15    1
    83    40    39    2
    84    38    39    1
    85    38    37    1
    86    38    41    1
    87   129   130    1
    88   129   128    1
    89    42    41    1
    90    42    43    1
    91    44    43    1
    92    44    45    2
    93    47    45    1
    94   130   131    2
    95   125   124    1
    96   124   127    1
    97   124   123    1
    98    11    10    1
    99    11    14    1
   100    45    46    1
   101   131   133    1
   102   131   132    1
   103   128   127    1
   104    15    14    1
   105    97    98   ar
   106    97    95   ar
   107   114   112   ar
   108    98    96   ar
   109    54    52    1
   110    51    50    2
   111    52    53    1
   112    52    49    1
   113   110   109    2
   114    95    92   ar
   115   111   112    1
   116   111   108    1
   117   112   113   ar
   118    96    94   ar
   119    49    50    1
   120    49    48    1
   121   109   108    1
   122   108   107    1
   123    77    75   ar
   124    74    75    1
   125    74    73    1
   126    92    94   ar
   127    92    90   ar
   128    94    93   ar
   129    75    76   ar
   130   118   117    2
   131   115   116    1
   132    88    87    2
   133   119   120    1
   134   119   116    1
   135    73    70    1
   136   120   121   ar
   137   120   122   ar
   138   116   117    1
   139    90    89    1
   140    90    91   ar
   141    93    91   ar
   142    87    86    1
   143    89    86    1
   144    60    59    1
   145    70    69    1
   146    70    71    1
   147    59    56    1
   148    86    85    1
   149    72    71    2
   150   105   104    2
   151    69    67   am
   152   104   103    1
   153   104   106   am
   154   103   100    1
   155    56    57    1
   156    56    55    1
   157    61    62    1
   158    61    57   am
   159    67    68    2
   160    67    66    1
   161    65    66    1
   162    65    63   am
   163    99   100    1
   164    62    63    1
   165    57    58    2
   166   100   101    1
   167    63    64    2
   168    83    82    1
   169   101   102    2
   170    82    84    1
   171    82    79    1
   172    81    80    2
   173    80    79    1
   174    79    78    1
