@<TRIPOS>MOLECULE
tmp/4mafG00.pdb
 182 180 0 0 0
SMALL
GASTEIGER

@<TRIPOS>ATOM
      1  N        -70.0300  -75.8560   13.6650 N.3   198  PHE198     -0.1227
      2  CA       -68.8930  -75.3250   14.3850 C.3   198  PHE198      0.1736
      3  C        -68.2370  -76.4480   15.1890 C.2   198  PHE198      0.2595
      4  O        -68.6990  -76.7940   16.2780 O.2   198  PHE198     -0.2718
      5  CB       -69.2810  -74.1600   15.3050 C.3   198  PHE198      0.0547
      6  CG       -68.0850  -73.4410   15.8860 C.ar  198  PHE198     -0.0202
      7  CD1      -67.2660  -72.6560   15.0670 C.ar  198  PHE198     -0.0042
      8  CD2      -67.7510  -73.5810   17.2270 C.ar  198  PHE198     -0.0042
      9  CE1      -66.1380  -72.0130   15.5790 C.ar  198  PHE198     -0.0003
     10  CE2      -66.6320  -72.9340   17.7490 C.ar  198  PHE198     -0.0003
     11  CZ       -65.8260  -72.1490   16.9200 C.ar  198  PHE198     -0.0000
     12  N        -67.1880  -77.0370   14.6180 N.am  199  GLN199     -0.1965
     13  CA       -66.3190  -77.9660   15.3350 C.3   199  GLN199      0.1733
     14  C        -65.5030  -77.1710   16.3510 C.2   199  GLN199      0.2616
     15  O        -65.0070  -76.0880   16.0390 O.2   199  GLN199     -0.2715
     16  CB       -65.3710  -78.6650   14.3520 C.3   199  GLN199      0.0408
     17  CG       -63.9290  -78.8820   14.8440 C.3   199  GLN199      0.0908
     18  CD       -63.7860  -80.0660   15.7930 C.2   199  GLN199      0.2608
     19  OE1      -64.4200  -81.1090   15.6100 O.2   199  GLN199     -0.2717
     20  NE2      -62.9400  -79.9140   16.8090 N.am  199  GLN199     -0.0878
     21  N        -65.3820  -77.7100   17.5630 N.am  200  LEU200     -0.1963
     22  CA       -64.5190  -77.1290   18.6000 C.3   200  LEU200      0.1728
     23  C        -64.1250  -78.2180   19.6070 C.2   200  LEU200      0.2616
     24  O        -64.7710  -79.2760   19.6930 O.2   200  LEU200     -0.2715
     25  CB       -65.2070  -75.9780   19.3380 C.3   200  LEU200      0.0311
     26  CG       -66.3600  -76.3760   20.2820 C.3   200  LEU200      0.0022
     27  CD1      -66.7030  -75.2540   21.2230 C.3   200  LEU200      0.0001
     28  CD2      -67.6240  -76.7850   19.4920 C.3   200  LEU200      0.0001
     29  N        -63.0530  -77.9410   20.3450 N.am  201  ARG201     -0.1963
     30  CA       -62.5290  -78.8310   21.3720 C.3   201  ARG201      0.1729
     31  C        -62.3030  -78.0570   22.6790 C.2   201  ARG201      0.2616
     32  O        -61.9520  -78.6440   23.7010 O.2   201  ARG201     -0.2715
     33  CB       -61.1900  -79.4040   20.9150 C.3   201  ARG201      0.0348
     34  CG       -60.0160  -78.4480   21.1460 C.3   201  ARG201      0.0492
     35  CD       -58.7450  -79.0170   20.5470 C.3   201  ARG201      0.2205
     36  NE       -57.5380  -78.4070   21.0860 N.pl3 201  ARG201     -0.0865
     37  CZ       -56.5250  -77.9400   20.3570 C.cat 201  ARG201      0.5346
     38  NH1      -56.5540  -77.9950   19.0220 N.pl3 201  ARG201      0.1354
     39  NH2      -55.4700  -77.4160   20.9760 N.pl3 201  ARG201      0.1354
     40  N        -62.4890  -76.7370   22.6210 N.am  202  ASN202     -0.1972
     41  CA       -62.1940  -75.8350   23.7300 C.3   202  ASN202      0.1688
     42  C        -63.4800  -75.2040   24.2590 C.2   202  ASN202      0.2292
     43  O        -64.5420  -75.3380   23.6380 O.2   202  ASN202     -0.2864
     44  CB       -61.2210  -74.7210   23.2790 C.3   202  ASN202      0.1181
     45  CG       -59.7700  -75.1940   23.1720 C.2   202  ASN202      0.2629
     46  OD1      -59.3020  -76.0030   23.9800 O.2   202  ASN202     -0.2716
     47  ND2      -59.0430  -74.6800   22.1620 N.am  202  ASN202     -0.0877
     48  N        -65.4260  -69.0260   23.9290 N.3   205  HIS205     -0.1241
     49  CA       -65.3350  -67.6100   24.2830 C.3   205  HIS205      0.1621
     50  C        -66.0610  -66.7630   23.2280 C.2   205  HIS205      0.2264
     51  O        -66.5660  -67.2970   22.2320 O.2   205  HIS205     -0.2867
     52  CB       -63.8800  -67.1410   24.5350 C.3   205  HIS205      0.0745
     53  CG       -62.9560  -67.3040   23.3680 C.ar  205  HIS205      0.0817
     54  ND1      -63.2090  -66.7600   22.1260 N.ar  205  HIS205     -0.2268
     55  CD2      -61.7570  -67.9220   23.2660 C.ar  205  HIS205      0.1154
     56  CE1      -62.2170  -67.0550   21.3040 C.ar  205  HIS205      0.1986
     57  NE2      -61.3200  -67.7600   21.9720 N.ar  205  HIS205     -0.2212
     58  N        -65.0410  -64.7780   21.0500 N.3   207  GLY207     -0.1210
     59  CA       -64.4040  -64.8370   19.7430 C.3   207  GLY207      0.1956
     60  C        -65.0480  -65.9220   18.8920 C.2   207  GLY207      0.2611
     61  O        -65.4850  -65.6650   17.7680 O.2   207  GLY207     -0.2717
     62  N        -65.1210  -67.1360   19.4390 N.am  208  HIS208     -0.1975
     63  CA       -65.8490  -68.2370   18.8060 C.3   208  HIS208      0.1656
     64  C        -67.2740  -67.8320   18.4660 C.2   208  HIS208      0.2291
     65  O        -67.7840  -68.1610   17.3910 O.2   208  HIS208     -0.2864
     66  CB       -65.8810  -69.4590   19.7280 C.3   208  HIS208      0.0771
     67  CG       -64.5260  -69.9130   20.1780 C.ar  208  HIS208      0.0820
     68  ND1      -64.2240  -70.1510   21.5020 N.ar  208  HIS208     -0.2267
     69  CD2      -63.3970  -70.1800   19.4790 C.ar  208  HIS208      0.1154
     70  CE1      -62.9670  -70.5370   21.6000 C.ar  208  HIS208      0.1986
     71  NE2      -62.4420  -70.5650   20.3880 N.ar  208  HIS208     -0.2212
     72  N        -67.6460  -65.6490   15.3340 N.3   211  LEU211     -0.1245
     73  CA       -67.6280  -66.5250   14.1590 C.3   211  LEU211      0.1561
     74  C        -69.0170  -67.0930   13.8600 C.2   211  LEU211      0.2260
     75  O        -69.4850  -67.0530   12.7200 O.2   211  LEU211     -0.2867
     76  CB       -66.6180  -67.6690   14.3420 C.3   211  LEU211      0.0270
     77  CG       -65.1960  -67.4830   13.8210 C.3   211  LEU211      0.0019
     78  CD1      -64.6000  -66.1630   14.2690 C.3   211  LEU211      0.0001
     79  CD2      -64.3110  -68.6310   14.2550 C.3   211  LEU211      0.0001
     80  N        -59.3080  -86.8330   19.1170 N.3   275  MET275     -0.1245
     81  CA       -58.5790  -85.6740   18.5890 C.3   275  MET275      0.1570
     82  C        -57.1290  -86.0370   18.2480 C.2   275  MET275      0.2261
     83  O        -56.4010  -86.5780   19.0800 O.2   275  MET275     -0.2867
     84  CB       -58.5880  -84.5200   19.6080 C.3   275  MET275      0.0387
     85  CG       -57.9230  -83.2270   19.1080 C.3   275  MET275      0.0595
     86  SD       -59.0290  -82.1560   18.1700 S.3   275  MET275     -0.1393
     87  CE       -57.8580  -81.0960   17.3460 C.3   275  MET275      0.0692
     88  N        -62.4230  -83.2940   10.2600 N.3   286  HIS286     -0.1241
     89  CA       -63.4680  -82.5660   10.9630 C.3   286  HIS286      0.1621
     90  C        -64.5910  -82.1180   10.0240 C.2   286  HIS286      0.2264
     91  O        -65.7710  -82.1930   10.3690 O.2   286  HIS286     -0.2867
     92  CB       -62.8660  -81.3800   11.7140 C.3   286  HIS286      0.0745
     93  CG       -62.0380  -81.7850   12.8870 C.ar  286  HIS286      0.0817
     94  ND1      -61.2740  -80.8950   13.6060 N.ar  286  HIS286     -0.2268
     95  CD2      -61.8560  -82.9990   13.4670 C.ar  286  HIS286      0.1154
     96  CE1      -60.6590  -81.5390   14.5820 C.ar  286  HIS286      0.1986
     97  NE2      -61.0000  -82.8160   14.5220 N.ar  286  HIS286     -0.2212
     98  N        -69.4480  -75.0150    6.7750 N.3   298  TYR298     -0.1227
     99  CA       -68.4580  -75.3580    7.7900 C.3   298  TYR298      0.1736
    100  C        -67.6320  -74.1260    8.1440 C.2   298  TYR298      0.2595
    101  O        -66.9570  -73.5450    7.2830 O.2   298  TYR298     -0.2718
    102  CB       -67.5510  -76.4820    7.2730 C.3   298  TYR298      0.0548
    103  CG       -66.5950  -77.0300    8.2990 C.ar  298  TYR298     -0.0200
    104  CD1      -66.9620  -78.0880    9.1290 C.ar  298  TYR298     -0.0009
    105  CD2      -65.3180  -76.5030    8.4290 C.ar  298  TYR298     -0.0009
    106  CE1      -66.0850  -78.5960   10.0640 C.ar  298  TYR298      0.0417
    107  CE2      -64.4390  -77.0000    9.3570 C.ar  298  TYR298      0.0417
    108  CZ       -64.8210  -78.0400   10.1730 C.ar  298  TYR298      0.1957
    109  OH       -63.9300  -78.5210   11.0980 O.3   298  TYR298     -0.2866
    110  N        -67.6960  -73.7280    9.4110 N.am  299  ILE299     -0.1966
    111  CA       -66.9580  -72.5760    9.8980 C.3   299  ILE299      0.1727
    112  C        -65.5320  -72.9980   10.2170 C.2   299  ILE299      0.2616
    113  O        -65.3200  -73.9620   10.9440 O.2   299  ILE299     -0.2715
    114  CB       -67.6020  -72.0010   11.1860 C.3   299  ILE299      0.0290
    115  CG1      -68.9570  -71.3540   10.8910 C.3   299  ILE299      0.0022
    116  CG2      -66.6750  -70.9730   11.8470 C.3   299  ILE299      0.0023
    117  CD1      -69.7110  -70.9210   12.1360 C.3   299  ILE299      0.0001
    118  N        -64.5530  -72.2800    9.6730 N.am  300  VAL300     -0.1963
    119  CA       -63.1650  -72.4900   10.0680 C.3   300  VAL300      0.1727
    120  C        -62.4290  -71.1830   10.3930 C.2   300  VAL300      0.2617
    121  O        -62.5780  -70.1750    9.6990 O.2   300  VAL300     -0.2715
    122  CB       -62.3840  -73.3200    9.0120 C.3   300  VAL300      0.0290
    123  CG1      -62.3580  -72.6130    7.6490 C.3   300  VAL300      0.0023
    124  CG2      -60.9830  -73.6130    9.5230 C.3   300  VAL300      0.0023
    125  N        -61.6460  -71.2010   11.4670 N.am  301  GLY301     -0.1940
    126  CA       -60.8440  -70.0480   11.8680 C.3   301  GLY301      0.2014
    127  C        -59.3540  -70.2730   11.6550 C.2   301  GLY301      0.2639
    128  O        -58.9350  -71.0550   10.7900 O.2   301  GLY301     -0.2714
    129  N        -58.5480  -69.5900   12.4540 N.am  302  ARG302     -0.1963
    130  CA       -57.1040  -69.7610   12.4210 C.3   302  ARG302      0.1729
    131  C        -56.6560  -70.9730   13.2170 C.2   302  ARG302      0.2616
    132  O        -57.2240  -71.2860   14.2880 O.2   302  ARG302     -0.2715
    133  CB       -56.4150  -68.5270   13.0100 C.3   302  ARG302      0.0348
    134  CG       -56.9610  -68.1640   14.3490 C.3   302  ARG302      0.0492
    135  CD       -55.9800  -68.4480   15.4460 C.3   302  ARG302      0.2205
    136  NE       -56.6890  -69.0050   16.5850 N.pl3 302  ARG302     -0.0865
    137  CZ       -56.1120  -69.3660   17.7170 C.cat 302  ARG302      0.5346
    138  NH1      -54.8090  -69.2110   17.8790 N.pl3 302  ARG302      0.1354
    139  NH2      -56.8400  -69.8740   18.6830 N.pl3 302  ARG302      0.1354
    140  N        -55.6150  -71.6280   12.7020 N.am  303  ASP303     -0.1958
    141  CA       -55.0000  -72.7700   13.3590 C.3   303  ASP303      0.1825
    142  C        -55.9690  -73.8740   13.8180 C.2   303  ASP303      0.2464
    143  O        -55.8350  -74.3700   14.9270 O.2   303  ASP303     -0.2730
    144  CB       -54.1550  -72.2970   14.5550 C.3   303  ASP303      0.1450
    145  CG       -53.0630  -73.3100   14.9400 C.2   303  ASP303      0.3671
    146  OD1      -52.5780  -74.0550   14.0490 O.co2 303  ASP303     -0.2456
    147  OD2      -52.6790  -73.3560   16.1340 O.co2 303  ASP303     -0.2456
    148  N        -56.9380  -74.2660   12.9680 N.am  304  PRO304     -0.2715
    149  CA       -57.8470  -75.3140   13.4720 C.3   304  PRO304      0.1536
    150  C        -57.0930  -76.6130   13.7060 C.2   304  PRO304      0.2598
    151  O        -56.1750  -76.9540   12.9510 O.2   304  PRO304     -0.2715
    152  CB       -58.8400  -75.5010   12.3270 C.3   304  PRO304      0.0310
    153  CG       -58.0180  -75.1200   11.0780 C.3   304  PRO304      0.0237
    154  CD       -57.1930  -73.9440   11.5450 C.3   304  PRO304      0.0939
    155  N        -57.4660  -77.3030   14.7750 N.am  305  ALA305     -0.1978
    156  CA       -56.8720  -78.5810   15.1250 C.3   305  ALA305      0.1597
    157  C        -55.3650  -78.4860   15.3920 C.2   305  ALA305      0.2287
    158  O        -54.6840  -79.5070   15.5160 O.2   305  ALA305     -0.2864
    159  CB       -57.1880  -79.6270   14.0640 C.3   305  ALA305      0.0319
    160  N        -60.9340  -64.7030    9.9210 N.3   341  ARG341     -0.1231
    161  CA       -59.6510  -64.2210   10.4390 C.3   341  ARG341      0.1694
    162  C        -59.6550  -64.3540   11.9560 C.2   341  ARG341      0.2592
    163  O        -60.6740  -64.7120   12.5420 O.2   341  ARG341     -0.2718
    164  CB       -59.4230  -62.7610   10.0320 C.3   341  ARG341      0.0321
    165  CG       -60.0300  -62.4110    8.6810 C.3   341  ARG341      0.0489
    166  CD       -59.6120  -61.0450    8.1540 C.3   341  ARG341      0.2205
    167  NE       -59.9980  -59.9190    9.0070 N.pl3 341  ARG341     -0.0865
    168  CZ       -61.2420  -59.4560    9.1490 C.cat 341  ARG341      0.5346
    169  NH1      -62.2550  -60.0370    8.5190 N.pl3 341  ARG341      0.1354
    170  NH2      -61.4800  -58.4100    9.9340 N.pl3 341  ARG341      0.1354
    171  N        -58.5250  -64.0760   12.5950 N.am  342  VAL342     -0.1966
    172  CA       -58.4340  -64.1900   14.0490 C.3   342  VAL342      0.1727
    173  C        -59.3250  -63.1720   14.7650 C.2   342  VAL342      0.2616
    174  O        -59.3990  -61.9970   14.3900 O.2   342  VAL342     -0.2715
    175  CB       -56.9930  -64.0050   14.5770 C.3   342  VAL342      0.0290
    176  CG1      -56.9370  -64.3570   16.0400 C.3   342  VAL342      0.0023
    177  CG2      -56.0180  -64.8640   13.8040 C.3   342  VAL342      0.0023
    178  N        -60.0120  -63.6360   15.7990 N.am  343  ALA343     -0.1977
    179  CA       -60.7810  -62.7490   16.6340 C.3   343  ALA343      0.1597
    180  C        -60.0040  -62.6170   17.9380 C.2   343  ALA343      0.2287
    181  O        -59.4620  -63.6010   18.4390 O.2   343  ALA343     -0.2864
    182  CB       -62.1460  -63.3250   16.8670 C.3   343  ALA343      0.0319
@<TRIPOS>BOND
     1    98    99    1
     2   102    99    1
     3   102   103    1
     4   101   100    2
     5   123   122    1
     6    99   100    1
     7   100   110   am
     8   166   165    1
     9   166   167    1
    10   103   105   ar
    11   103   104   ar
    12   105   107   ar
    13   169   168    1
    14   165   164    1
    15   167   168    2
    16   122   124    1
    17   122   119    1
    18   104   106   ar
    19   168   170    1
    20   107   108   ar
    21   110   111    1
    22   118   119    1
    23   118   112   am
    24   121   120    2
    25   111   112    1
    26   111   114    1
    27   160   161    1
    28    90    91    2
    29    90    89    1
    30   164   161    1
    31   106   108   ar
    32   119   120    1
    33   108   109    1
    34   112   113    2
    35    88    89    1
    36   120   125   am
    37   161   162    1
    38   128   127    2
    39   115   114    1
    40   115   117    1
    41    89    92    1
    42   153   154    1
    43   153   152    1
    44   114   116    1
    45   125   126    1
    46   154   148    1
    47   127   126    1
    48   127   129   am
    49    92    93    1
    50   162   163    2
    51   162   171   am
    52   152   149    1
    53   130   129    1
    54   130   133    1
    55   130   131    1
    56   171   172    1
    57   140   131   am
    58   140   141    1
    59    75    74    2
    60    93    95   ar
    61    93    94   ar
    62   151   150    2
    63   148   149    1
    64   148   142   am
    65   133   134    1
    66   131   132    2
    67   141   142    1
    68   141   144    1
    69    95    97   ar
    70   149   150    1
    71    94    96   ar
    72     1     2    1
    73   150   155   am
    74   177   175    1
    75   142   143    2
    76    77    79    1
    77    77    78    1
    78    77    76    1
    79    74    73    1
    80   172   175    1
    81   172   173    1
    82   146   145   ar
    83   159   156    1
    84    73    76    1
    85    73    72    1
    86   134   135    1
    87    16    17    1
    88    16    13    1
    89     2     3    1
    90     2     5    1
    91   174   173    2
    92    97    96   ar
    93   144   145    1
    94   175   176    1
    95    12     3   am
    96    12    13    1
    97   173   178   am
    98   155   156    1
    99    17    18    1
   100   145   147   ar
   101     7     9   ar
   102     7     6   ar
   103   156   157    1
   104     3     4    2
   105     5     6    1
   106    13    14    1
   107   157   158    2
   108   135   136    1
   109     9    11   ar
   110    19    18    2
   111    18    20   am
   112   178   179    1
   113     6     8   ar
   114    15    14    2
   115    14    21   am
   116   136   137    2
   117   179   182    1
   118   179   180    1
   119    11    10   ar
   120     8    10   ar
   121    87    86    1
   122    65    64    2
   123    21    22    1
   124   137   138    1
   125   137   139    1
   126    61    60    2
   127   180   181    2
   128    86    85    1
   129    82    81    1
   130    82    83    2
   131    64    63    1
   132    81    80    1
   133    81    84    1
   134    22    25    1
   135    22    23    1
   136    63    62    1
   137    63    66    1
   138    60    62   am
   139    60    59    1
   140    38    37    1
   141    85    84    1
   142    25    26    1
   143    69    67   ar
   144    69    71   ar
   145    28    26    1
   146    23    24    2
   147    23    29   am
   148    66    67    1
   149    59    58    1
   150    67    68   ar
   151    26    27    1
   152    29    30    1
   153    37    39    1
   154    37    36    2
   155    71    70   ar
   156    35    36    1
   157    35    34    1
   158    33    34    1
   159    33    30    1
   160    56    57   ar
   161    56    54   ar
   162    30    31    1
   163    68    70   ar
   164    57    55   ar
   165    54    53   ar
   166    47    45   am
   167    51    50    2
   168    40    31   am
   169    40    41    1
   170    31    32    2
   171    45    44    1
   172    45    46    2
   173    50    49    1
   174    55    53   ar
   175    44    41    1
   176    53    52    1
   177    43    42    2
   178    41    42    1
   179    48    49    1
   180    49    52    1
