@<TRIPOS>MOLECULE
tmp/4mamA00.pdb
 194 184 0 0 0
SMALL
GASTEIGER

@<TRIPOS>ATOM
      1  N        -15.3440   -6.7710   18.1170 N.3    96  ARG96      -0.1245
      2  CA       -16.2230   -6.8570   19.2790 C.3    96  ARG96       0.1563
      3  C        -15.5750   -6.3440   20.5570 C.2    96  ARG96       0.2260
      4  O        -16.2510   -5.7480   21.3900 O.2    96  ARG96      -0.2867
      5  CB       -16.6900   -8.2970   19.5060 C.3    96  ARG96       0.0307
      6  CG       -17.4650   -8.8880   18.3430 C.3    96  ARG96       0.0489
      7  CD       -18.1110  -10.2240   18.7760 C.3    96  ARG96       0.2205
      8  NE       -18.7540  -10.9000   17.6550 N.pl3  96  ARG96      -0.0865
      9  CZ       -19.9380  -10.5520   17.1580 C.cat  96  ARG96       0.5346
     10  NH1      -20.4460  -11.2090   16.1210 N.pl3  96  ARG96       0.1354
     11  NH2      -20.6090   -9.5390   17.6870 N.pl3  96  ARG96       0.1354
     12  N        -23.0840   -6.4800   27.6470 N.3   110  ALA110     -0.1245
     13  CA       -22.7900   -7.7550   28.2850 C.3   110  ALA110      0.1562
     14  C        -21.4500   -7.6660   29.0050 C.2   110  ALA110      0.2260
     15  O        -20.5700   -6.9010   28.6060 O.2   110  ALA110     -0.2867
     16  CB       -22.7440   -8.8680   27.2420 C.3   110  ALA110      0.0290
     17  N        -21.2140  -17.0140   25.8350 N.3   133  ILE133     -0.1245
     18  CA       -20.9620  -17.2010   24.4150 C.3   133  ILE133      0.1561
     19  C        -19.5240  -16.8250   24.1310 C.2   133  ILE133      0.2260
     20  O        -19.0400  -15.8010   24.6250 O.2   133  ILE133     -0.2867
     21  CB       -21.8740  -16.3080   23.5430 C.3   133  ILE133      0.0252
     22  CG1      -23.3270  -16.4390   24.0070 C.3   133  ILE133      0.0019
     23  CG2      -21.7360  -16.7050   22.0820 C.3   133  ILE133      0.0019
     24  CD1      -24.2660  -15.4140   23.4010 C.3   133  ILE133      0.0001
     25  N        -17.1610  -15.6880   21.0290 N.3   135  LYS135     -0.1245
     26  CA       -17.3930  -15.0830   19.7140 C.3   135  LYS135      0.1561
     27  C        -16.0880  -14.6310   19.0960 C.2   135  LYS135      0.2260
     28  O        -15.2080  -14.1420   19.8010 O.2   135  LYS135     -0.2867
     29  CB       -18.2870  -13.8370   19.8560 C.3   135  LYS135      0.0271
     30  CG       -19.6120  -14.0650   20.5580 C.3   135  LYS135      0.0035
     31  CD       -20.4380  -12.7810   20.4790 C.3   135  LYS135      0.0206
     32  CE       -21.7660  -12.9150   21.2020 C.3   135  LYS135      0.1093
     33  NZ       -22.5250  -11.6120   21.1750 N.3   135  LYS135     -0.1314
     34  N        -17.6390  -11.8370   12.2620 N.3   140  GLY140     -0.1210
     35  CA       -18.9030  -12.4670   12.5970 C.3   140  GLY140      0.1956
     36  C        -20.1130  -11.7600   12.0090 C.2   140  GLY140      0.2612
     37  O        -20.2100  -10.5320   12.0240 O.2   140  GLY140     -0.2717
     38  N        -21.0480  -12.5450   11.4880 N.am  141  TYR141     -0.1962
     39  CA       -22.3270  -12.0130   11.0350 C.3   141  TYR141      0.1771
     40  C        -23.3480  -13.1420   11.0370 C.2   141  TYR141      0.2620
     41  O        -22.9830  -14.3150   10.9120 O.2   141  TYR141     -0.2715
     42  CB       -22.2080  -11.3810    9.6410 C.3   141  TYR141      0.0574
     43  CG       -21.9290  -12.3750    8.5450 C.ar  141  TYR141     -0.0198
     44  CD1      -20.6320  -12.7940    8.2800 C.ar  141  TYR141     -0.0009
     45  CD2      -22.9610  -12.9030    7.7780 C.ar  141  TYR141     -0.0009
     46  CE1      -20.3660  -13.7060    7.2820 C.ar  141  TYR141      0.0417
     47  CE2      -22.7060  -13.8180    6.7770 C.ar  141  TYR141      0.0417
     48  CZ       -21.4070  -14.2150    6.5320 C.ar  141  TYR141      0.1957
     49  OH       -21.1460  -15.1250    5.5310 O.3   141  TYR141     -0.2866
     50  N        -24.6220  -12.7840   11.1870 N.am  142  ASP142     -0.1957
     51  CA       -25.7170  -13.7640   11.2210 C.3   142  ASP142      0.1840
     52  C        -25.4300  -14.9080   12.1890 C.2   142  ASP142      0.2622
     53  O        -25.7690  -16.0710   11.9310 O.2   142  ASP142     -0.2715
     54  CB       -26.0230  -14.3000    9.8140 C.3   142  ASP142      0.1450
     55  CG       -26.5340  -13.2240    8.8810 C.2   142  ASP142      0.3671
     56  OD1      -26.9530  -12.1620    9.3810 O.co2 142  ASP142     -0.2456
     57  OD2      -26.5380  -13.4490    7.6530 O.co2 142  ASP142     -0.2456
     58  N        -24.7790  -14.5700   13.3030 N.am  143  GLY143     -0.1954
     59  CA       -24.4990  -15.5480   14.3410 C.3   143  GLY143      0.1869
     60  C        -23.2960  -16.4430   14.0970 C.2   143  GLY143      0.2309
     61  O        -22.9860  -17.3000   14.9270 O.2   143  GLY143     -0.2863
     62  N        -19.5400  -18.1880   16.4410 N.3   146  GLN146     -0.1245
     63  CA       -19.9310  -18.1850   17.8490 C.3   146  GLN146      0.1566
     64  C        -20.1320  -19.5930   18.3740 C.2   146  GLN146      0.2260
     65  O        -20.4570  -20.5120   17.6250 O.2   146  GLN146     -0.2867
     66  CB       -21.2170  -17.3770   18.0660 C.3   146  GLN146      0.0367
     67  CG       -21.1330  -15.9590   17.5420 C.3   146  GLN146      0.0905
     68  CD       -22.2050  -15.0570   18.0900 C.2   146  GLN146      0.2608
     69  OE1      -22.9040  -15.3890   19.0490 O.2   146  GLN146     -0.2717
     70  NE2      -22.3360  -13.8930   17.4820 N.am  146  GLN146     -0.0878
     71  N        -18.5770  -13.5260   26.2350 N.3   172  GLU172     -0.1231
     72  CA       -19.6700  -12.7120   26.7540 C.3   172  GLU172      0.1699
     73  C        -20.4940  -13.5370   27.7210 C.2   172  GLU172      0.2592
     74  O        -20.8220  -14.6940   27.4480 O.2   172  GLU172     -0.2718
     75  CB       -20.5850  -12.2330   25.6320 C.3   172  GLU172      0.0402
     76  CG       -19.9620  -11.2510   24.6600 C.3   172  GLU172      0.1161
     77  CD       -20.9740  -10.6960   23.6830 C.2   172  GLU172      0.3649
     78  OE1      -22.1900  -10.7950   23.9600 O.co2 172  GLU172     -0.2457
     79  OE2      -20.5530  -10.1560   22.6430 O.co2 172  GLU172     -0.2457
     80  N        -20.8320  -12.9450   28.8590 N.am  173  ALA173     -0.1966
     81  CA       -21.8170  -13.5510   29.7330 C.3   173  ALA173      0.1728
     82  C        -23.1890  -13.4050   29.1100 C.2   173  ALA173      0.2616
     83  O        -23.4670  -12.4230   28.4200 O.2   173  ALA173     -0.2715
     84  CB       -21.7790  -12.9150   31.1080 C.3   173  ALA173      0.0334
     85  N        -24.0540  -14.3830   29.3420 N.am  174  PHE174     -0.1960
     86  CA       -25.4120  -14.3050   28.8350 C.3   174  PHE174      0.1771
     87  C        -26.1420  -13.1500   29.4890 C.2   174  PHE174      0.2619
     88  O        -26.1740  -13.0360   30.7110 O.2   174  PHE174     -0.2715
     89  CB       -26.1660  -15.5890   29.1360 C.3   174  PHE174      0.0574
     90  CG       -26.6180  -16.3130   27.9190 C.ar  174  PHE174     -0.0200
     91  CD1      -25.7050  -17.0010   27.1370 C.ar  174  PHE174     -0.0042
     92  CD2      -27.9580  -16.3450   27.5750 C.ar  174  PHE174     -0.0042
     93  CE1      -26.1150  -17.6950   26.0160 C.ar  174  PHE174     -0.0003
     94  CE2      -28.3800  -17.0330   26.4500 C.ar  174  PHE174     -0.0003
     95  CZ       -27.4560  -17.7090   25.6710 C.ar  174  PHE174     -0.0000
     96  N        -26.7280  -12.2930   28.6680 N.am  175  VAL175     -0.1977
     97  CA       -27.5120  -11.1940   29.1930 C.3   175  VAL175      0.1596
     98  C        -28.9310  -11.6640   29.4580 C.2   175  VAL175      0.2287
     99  O        -29.5360  -12.3580   28.6290 O.2   175  VAL175     -0.2864
    100  CB       -27.5390  -10.0120   28.2120 C.3   175  VAL175      0.0276
    101  CG1      -28.4470   -8.8920   28.7370 C.3   175  VAL175      0.0022
    102  CG2      -26.1400   -9.4870   27.9960 C.3   175  VAL175      0.0022
    103  N        -32.3970  -10.6720   29.2610 N.3   177  PHE177     -0.1241
    104  CA       -33.2220   -9.6760   28.5710 C.3   177  PHE177      0.1605
    105  C        -34.5830  -10.2270   28.1530 C.2   177  PHE177      0.2264
    106  O        -34.7620  -11.4430   28.0380 O.2   177  PHE177     -0.2867
    107  CB       -32.4810   -9.0320   27.3790 C.3   177  PHE177      0.0534
    108  CG       -32.1790   -9.9720   26.2390 C.ar  177  PHE177     -0.0203
    109  CD1      -33.1420  -10.2570   25.2800 C.ar  177  PHE177     -0.0042
    110  CD2      -30.9160  -10.5290   26.1060 C.ar  177  PHE177     -0.0042
    111  CE1      -32.8650  -11.1080   24.2210 C.ar  177  PHE177     -0.0003
    112  CE2      -30.6220  -11.3770   25.0460 C.ar  177  PHE177     -0.0003
    113  CZ       -31.5960  -11.6690   24.1020 C.ar  177  PHE177     -0.0000
    114  N        -35.4670   -7.7430   22.0270 N.3   180  GLU180     -0.1245
    115  CA       -34.4190   -6.9590   21.3940 C.3   180  GLU180      0.1567
    116  C        -35.0230   -5.8720   20.5190 C.2   180  GLU180      0.2260
    117  O        -36.0590   -6.0730   19.8620 O.2   180  GLU180     -0.2867
    118  CB       -33.5160   -7.8770   20.5570 C.3   180  GLU180      0.0388
    119  CG       -32.7970   -8.9300   21.3910 C.3   180  GLU180      0.1160
    120  CD       -31.9320   -9.8530   20.5530 C.2   180  GLU180      0.3649
    121  OE1      -32.2930  -11.0390   20.4060 O.co2 180  GLU180     -0.2457
    122  OE2      -30.8880   -9.3910   20.0430 O.co2 180  GLU180     -0.2457
    123  N        -35.0620  -12.9060   16.4720 N.3   203  HIS203     -0.1241
    124  CA       -33.9980  -13.7470   15.9230 C.3   203  HIS203      0.1621
    125  C        -34.3140  -15.2250   16.1020 C.2   203  HIS203      0.2264
    126  O        -35.0070  -15.6110   17.0460 O.2   203  HIS203     -0.2867
    127  CB       -32.6480  -13.4060   16.5820 C.3   203  HIS203      0.0745
    128  CG       -32.2650  -11.9590   16.4550 C.ar  203  HIS203      0.0817
    129  ND1      -32.8050  -10.9740   17.2550 N.ar  203  HIS203     -0.2268
    130  CD2      -31.4130  -11.3330   15.6090 C.ar  203  HIS203      0.1154
    131  CE1      -32.2940   -9.8040   16.9130 C.ar  203  HIS203      0.1986
    132  NE2      -31.4520   -9.9930   15.9150 N.ar  203  HIS203     -0.2212
    133  N        -29.6770  -17.1850   15.9360 N.3   206  GLY206     -0.1225
    134  CA       -28.6660  -16.1590   15.7240 C.3   206  GLY206      0.1811
    135  C        -28.8290  -15.2500   14.5130 C.2   206  GLY206      0.2280
    136  O        -27.9880  -14.3820   14.2800 O.2   206  GLY206     -0.2866
    137  N        -27.9360   -2.1180   17.9450 N.3   244  GLU244     -0.1245
    138  CA       -28.7780   -3.1970   18.4400 C.3   244  GLU244      0.1567
    139  C        -28.7100   -3.2650   19.9610 C.2   244  GLU244      0.2260
    140  O        -27.6350   -3.1800   20.5540 O.2   244  GLU244     -0.2867
    141  CB       -28.3680   -4.5280   17.8100 C.3   244  GLU244      0.0388
    142  CG       -28.3390   -4.4790   16.2870 C.3   244  GLU244      0.1160
    143  CD       -28.3340   -5.8550   15.6570 C.2   244  GLU244      0.3649
    144  OE1      -27.2700   -6.2790   15.1490 O.co2 244  GLU244     -0.2457
    145  OE2      -29.3950   -6.5080   15.6570 O.co2 244  GLU244     -0.2457
    146  N        -30.3110   -5.0830   23.7520 N.3   246  PHE246     -0.1241
    147  CA       -31.1120   -5.9890   24.5630 C.3   246  PHE246      0.1605
    148  C        -31.9470   -5.1110   25.4920 C.2   246  PHE246      0.2264
    149  O        -31.4510   -4.1110   26.0020 O.2   246  PHE246     -0.2867
    150  CB       -30.2100   -6.8860   25.4130 C.3   246  PHE246      0.0534
    151  CG       -29.2500   -7.7350   24.6220 C.ar  246  PHE246     -0.0203
    152  CD1      -29.6560   -8.4010   23.4740 C.ar  246  PHE246     -0.0042
    153  CD2      -27.9340   -7.8690   25.0420 C.ar  246  PHE246     -0.0042
    154  CE1      -28.7550   -9.1980   22.7590 C.ar  246  PHE246     -0.0003
    155  CE2      -27.0310   -8.6630   24.3360 C.ar  246  PHE246     -0.0003
    156  CZ       -27.4450   -9.3330   23.2030 C.ar  246  PHE246     -0.0000
    157  N        -25.9580   -4.3800   22.4810 N.3   255  ASN255     -0.1225
    158  CA       -25.4310   -5.6300   21.9450 C.3   255  ASN255      0.1785
    159  C        -24.2530   -5.3170   21.0230 C.2   255  ASN255      0.2597
    160  O        -23.1100   -5.6850   21.3180 O.2   255  ASN255     -0.2718
    161  CB       -26.5320   -6.3570   21.1770 C.3   255  ASN255      0.1169
    162  CG       -26.0390   -7.6290   20.5240 C.2   255  ASN255      0.2627
    163  OD1      -25.1080   -8.2700   21.0180 O.2   255  ASN255     -0.2716
    164  ND2      -26.6630   -8.0030   19.4040 N.am  255  ASN255     -0.0877
    165  N        -24.5270   -4.6030   19.9290 N.am  256  GLU256     -0.1979
    166  CA       -23.4600   -4.1970   19.0180 C.3   256  GLU256      0.1602
    167  C        -23.9530   -3.0950   18.1030 C.2   256  GLU256      0.2287
    168  O        -25.1480   -2.8010   18.0740 O.2   256  GLU256     -0.2864
    169  CB       -22.9480   -5.4050   18.2100 C.3   256  GLU256      0.0415
    170  CG       -23.9580   -5.9880   17.2530 C.3   256  GLU256      0.1163
    171  CD       -23.4020   -7.1590   16.4690 C.2   256  GLU256      0.3649
    172  OE1      -22.1690   -7.3530   16.4490 O.co2 256  GLU256     -0.2457
    173  OE2      -24.2210   -7.8830   15.8760 O.co2 256  GLU256     -0.2457
    174  N        -29.9190  -19.8460   21.5160 N.3   366  TYR366     -0.1241
    175  CA       -29.7090  -18.7560   22.4670 C.3   366  TYR366      0.1605
    176  C        -30.8270  -18.6060   23.4940 C.2   366  TYR366      0.2264
    177  O        -30.9660  -17.5420   24.1100 O.2   366  TYR366     -0.2867
    178  CB       -29.5530  -17.4350   21.7160 C.3   366  TYR366      0.0534
    179  CG       -28.3340  -17.3770   20.8240 C.ar  366  TYR366     -0.0201
    180  CD1      -28.3940  -17.8150   19.5060 C.ar  366  TYR366     -0.0009
    181  CD2      -27.1300  -16.8770   21.2990 C.ar  366  TYR366     -0.0009
    182  CE1      -27.2830  -17.7580   18.6870 C.ar  366  TYR366      0.0417
    183  CE2      -26.0150  -16.8150   20.4890 C.ar  366  TYR366      0.0417
    184  CZ       -26.1020  -17.2540   19.1820 C.ar  366  TYR366      0.1957
    185  OH       -24.9880  -17.1940   18.3770 O.3   366  TYR366     -0.2866
    186  N        -33.1240  -18.3930   26.6830 N.3   368  GLN368     -0.1245
    187  CA       -32.8950  -18.0320   28.0770 C.3   368  GLN368      0.1566
    188  C        -34.2070  -18.0310   28.8510 C.2   368  GLN368      0.2260
    189  O        -34.8980  -19.0490   28.9120 O.2   368  GLN368     -0.2867
    190  CB       -32.1830  -16.6780   28.2000 C.3   368  GLN368      0.0367
    191  CG       -32.9310  -15.4910   27.5990 C.3   368  GLN368      0.0905
    192  CD       -32.2470  -14.1670   27.9040 C.2   368  GLN368      0.2608
    193  OE1      -32.5340  -13.5240   28.9140 O.2   368  GLN368     -0.2717
    194  NE2      -31.3320  -13.7600   27.0350 N.am  368  GLN368     -0.0878
@<TRIPOS>BOND
     1    49    48    1
     2    48    47   ar
     3    48    46   ar
     4    47    45   ar
     5    46    44   ar
     6    57    55   ar
     7    45    43   ar
     8    44    43   ar
     9    43    42    1
    10    55    56   ar
    11    55    54    1
    12    42    39    1
    13    54    51    1
    14    41    40    2
    15    39    40    1
    16    39    38    1
    17    40    50   am
    18    50    51    1
    19    51    52    1
    20    38    36   am
    21    53    52    2
    22    36    37    2
    23    36    35    1
    24    52    58   am
    25    34    35    1
    26    58    59    1
    27    60    59    1
    28    60    61    2
    29   136   135    2
    30   135   134    1
    31   144   143   ar
    32   130   132   ar
    33   130   128   ar
    34   145   143   ar
    35   143   142    1
    36   134   133    1
    37   173   171   ar
    38   132   131   ar
    39   124   125    1
    40   124   123    1
    41   124   127    1
    42   125   126    2
    43    10     9    1
    44   142   141    1
    45    62    63    1
    46   172   171   ar
    47   128   127    1
    48   128   129   ar
    49   171   170    1
    50   131   129   ar
    51     9     8    2
    52     9    11    1
    53   170   169    1
    54    70    68   am
    55    67    66    1
    56    67    68    1
    57    65    64    2
    58     8     7    1
    59   141   138    1
    60    63    66    1
    61    63    64    1
    62   137   138    1
    63   168   167    2
    64    68    69    2
    65   167   166    1
    66     1     2    1
    67   169   166    1
    68     6     7    1
    69     6     5    1
    70   185   184    1
    71   138   139    1
    72   182   184   ar
    73   182   180   ar
    74   166   165    1
    75    27    26    1
    76    27    28    2
    77   184   183   ar
    78     2     5    1
    79     2     3    1
    80   164   162   am
    81   180   179   ar
    82    26    29    1
    83    26    25    1
    84    29    30    1
    85   117   116    2
    86   165   159   am
    87   139   140    2
    88   122   120   ar
    89   121   120   ar
    90    31    30    1
    91    31    32    1
    92   183   181   ar
    93   116   115    1
    94   162   163    2
    95   162   161    1
    96   120   119    1
    97     3     4    2
    98   118   119    1
    99   118   115    1
   100   179   181   ar
   101   179   178    1
   102   159   160    2
   103   159   158    1
   104    33    32    1
   105   161   158    1
   106   115   114    1
   107   174   175    1
   108   178   175    1
   109   158   157    1
   110    23    21    1
   111   175   176    1
   112    79    77   ar
   113   154   156   ar
   114   154   152   ar
   115   156   155   ar
   116    24    22    1
   117   152   151   ar
   118   176   177    2
   119    21    22    1
   120    21    18    1
   121    77    78   ar
   122    77    76    1
   123   146   147    1
   124   113   111   ar
   125   113   112   ar
   126    19    18    1
   127    19    20    2
   128   111   109   ar
   129   155   153   ar
   130    18    17    1
   131   147   150    1
   132   147   148    1
   133   151   153   ar
   134   151   150    1
   135    76    75    1
   136   112   110   ar
   137   109   108   ar
   138   148   149    2
   139    75    72    1
   140    95    93   ar
   141    95    94   ar
   142    93    91   ar
   143   110   108   ar
   144    71    72    1
   145   108   107    1
   146    94    92   ar
   147   186   187    1
   148    72    73    1
   149   194   192   am
   150    91    90   ar
   151    16    13    1
   152   107   104    1
   153    74    73    2
   154    92    90   ar
   155   191   192    1
   156   191   190    1
   157    12    13    1
   158    73    80   am
   159   192   193    2
   160    90    89    1
   161   102   100    1
   162   106   105    2
   163   187   190    1
   164   187   188    1
   165   105   104    1
   166   100   101    1
   167   100    97    1
   168    13    14    1
   169    83    82    2
   170   104   103    1
   171    15    14    2
   172    99    98    2
   173    96    97    1
   174    96    87   am
   175    86    89    1
   176    86    85    1
   177    86    87    1
   178   188   189    2
   179    80    81    1
   180    82    85   am
   181    82    81    1
   182    97    98    1
   183    87    88    2
   184    81    84    1
