@<TRIPOS>MOLECULE
tmp/4manA00.pdb
 221 214 0 0 0
SMALL
GASTEIGER

@<TRIPOS>ATOM
      1  N        -13.6130   17.3570   -4.7410 N.3    28  THR28      -0.1218
      2  CA       -13.4090   17.5800   -3.2980 C.3    28  THR28       0.1862
      3  C        -13.4300   16.2380   -2.5600 C.2    28  THR28       0.2287
      4  O        -12.5380   15.9820   -1.7650 O.2    28  THR28      -0.2866
      5  CB       -14.4260   18.5870   -2.7400 C.3    28  THR28       0.1770
      6  OG1      -14.2850   19.8090   -3.4750 O.3    28  THR28      -0.2211
      7  CG2      -14.2170   18.8640   -1.2480 C.3    28  THR28       0.0375
      8  N        -10.1730   14.2400   -3.3240 N.3    31  GLN31      -0.1231
      9  CA        -9.0710   14.8300   -2.5670 C.3    31  GLN31       0.1698
     10  C         -9.1990   14.5090   -1.1070 C.2    31  GLN31       0.2592
     11  O         -8.2030   14.1830   -0.4980 O.2    31  GLN31      -0.2718
     12  CB        -9.0170   16.3610   -2.7690 C.3    31  GLN31       0.0381
     13  CG        -8.6430   16.7750   -4.1990 C.3    31  GLN31       0.0905
     14  CD        -8.8370   18.2500   -4.5070 C.2    31  GLN31       0.2608
     15  OE1       -8.0870   18.8250   -5.3010 O.2    31  GLN31      -0.2717
     16  NE2       -9.8600   18.8940   -3.9370 N.am   31  GLN31      -0.0878
     17  N        -10.4190   14.5740   -0.5490 N.am   32  ALA32      -0.1980
     18  CA       -10.6580   14.2670    0.8780 C.3    32  ALA32       0.1597
     19  C        -10.3390   12.7860    1.1620 C.2    32  ALA32       0.2287
     20  O         -9.6240   12.4890    2.1200 O.2    32  ALA32      -0.2864
     21  CB       -12.1070   14.5960    1.2490 C.3    32  ALA32       0.0319
     22  N         -6.6400   12.2350    1.1600 N.3    35  ASP35      -0.1225
     23  CA        -6.1070   12.8000    2.4120 C.3    35  ASP35       0.1805
     24  C         -6.3740   11.8340    3.5930 C.2    35  ASP35       0.2597
     25  O         -5.4520   11.5230    4.3500 O.2    35  ASP35      -0.2718
     26  CB        -6.7110   14.1790    2.7010 C.3    35  ASP35       0.1424
     27  CG        -6.0680   14.8420    3.9140 C.2    35  ASP35       0.3668
     28  OD1       -6.7860   15.1100    4.8860 O.co2  35  ASP35      -0.2456
     29  OD2       -4.8270   14.9300    3.9520 O.co2  35  ASP35      -0.2456
     30  N         -7.6280   11.3270    3.7060 N.am   36  PHE36      -0.1976
     31  CA        -8.0210   10.4170    4.7880 C.3    36  PHE36       0.1639
     32  C         -7.1080    9.1710    4.8340 C.2    36  PHE36       0.2290
     33  O         -6.6570    8.7770    5.9100 O.2    36  PHE36      -0.2864
     34  CB        -9.4980    9.9660    4.6240 C.3    36  PHE36       0.0560
     35  CG        -9.8770    8.7950    5.5120 C.ar   36  PHE36      -0.0200
     36  CD1      -10.2820    8.9980    6.8250 C.ar   36  PHE36      -0.0042
     37  CD2       -9.8200    7.4850    5.0350 C.ar   36  PHE36      -0.0042
     38  CE1      -10.5830    7.9050    7.6600 C.ar   36  PHE36      -0.0003
     39  CE2      -10.1330    6.3950    5.8690 C.ar   36  PHE36      -0.0003
     40  CZ       -10.5180    6.6160    7.1690 C.ar   36  PHE36      -0.0000
     41  N         -3.6190   10.0840    6.1710 N.3    39  ARG39      -0.1231
     42  CA        -3.5800   10.4450    7.6090 C.3    39  ARG39       0.1694
     43  C         -3.8000    9.2100    8.4960 C.2    39  ARG39       0.2592
     44  O         -2.9740    8.9290    9.3790 O.2    39  ARG39      -0.2718
     45  CB        -4.5990   11.5600    7.9310 C.3    39  ARG39       0.0321
     46  CG        -4.3780   12.8800    7.1640 C.3    39  ARG39       0.0489
     47  CD        -3.5270   13.8780    7.9080 C.3    39  ARG39       0.2205
     48  NE        -3.2930   15.1010    7.1340 N.pl3  39  ARG39      -0.0865
     49  CZ        -2.2430   15.3060    6.3410 C.cat  39  ARG39       0.5346
     50  NH1       -1.3220   14.3600    6.1870 N.pl3  39  ARG39       0.1354
     51  NH2       -2.1100   16.4540    5.6900 N.pl3  39  ARG39       0.1354
     52  N         -4.8820    8.4310    8.2200 N.am   40  TYR40      -0.1976
     53  CA        -5.1850    7.2190    8.9800 C.3    40  TYR40       0.1639
     54  C         -4.5530    6.0200    8.2530 C.2    40  TYR40       0.2290
     55  O         -5.2540    5.1050    7.8330 O.2    40  TYR40      -0.2864
     56  CB        -6.7220    7.0860    9.1990 C.3    40  TYR40       0.0560
     57  CG        -7.2470    8.0590   10.2380 C.ar   40  TYR40      -0.0198
     58  CD1       -7.5430    9.3720    9.9010 C.ar   40  TYR40      -0.0009
     59  CD2       -7.3790    7.6820   11.5730 C.ar   40  TYR40      -0.0009
     60  CE1       -7.9730   10.2900   10.8630 C.ar   40  TYR40       0.0417
     61  CE2       -7.8380    8.5850   12.5390 C.ar   40  TYR40       0.0417
     62  CZ        -8.1500    9.8860   12.1720 C.ar   40  TYR40       0.1957
     63  OH        -8.5900   10.8000   13.1060 O.3    40  TYR40      -0.2866
     64  N         -5.0460    2.3720    9.9310 N.3    43  ASP43      -0.1225
     65  CA        -6.4560    1.9630    9.7580 C.3    43  ASP43       0.1805
     66  C         -6.7240    1.5660    8.3090 C.2    43  ASP43       0.2597
     67  O         -7.3590    0.5430    8.0610 O.2    43  ASP43      -0.2718
     68  CB        -7.4190    3.0810   10.1660 C.3    43  ASP43       0.1424
     69  CG        -7.4290    3.2820   11.6630 C.2    43  ASP43       0.3668
     70  OD1       -7.6270    2.2860   12.3930 O.co2  43  ASP43      -0.2456
     71  OD2       -7.1490    4.4050   12.1030 O.co2  43  ASP43      -0.2456
     72  N         -6.2000    2.3440    7.3660 N.am   44  PHE44      -0.1976
     73  CA        -6.3460    2.0470    5.9460 C.3    44  PHE44       0.1639
     74  C         -5.7450    0.6650    5.5560 C.2    44  PHE44       0.2290
     75  O         -6.4290   -0.1320    4.9030 O.2    44  PHE44      -0.2864
     76  CB        -5.7870    3.1940    5.0960 C.3    44  PHE44       0.0560
     77  CG        -6.1480    3.0870    3.6360 C.ar   44  PHE44      -0.0200
     78  CD1       -5.2380    2.5850    2.7150 C.ar   44  PHE44      -0.0042
     79  CD2       -7.4130    3.4470    3.1880 C.ar   44  PHE44      -0.0042
     80  CE1       -5.5890    2.4460    1.3610 C.ar   44  PHE44      -0.0003
     81  CE2       -7.7600    3.3130    1.8430 C.ar   44  PHE44      -0.0003
     82  CZ        -6.8390    2.8370    0.9350 C.ar   44  PHE44      -0.0000
     83  N         -7.6690   -2.3030    7.2230 N.3    47  MET47      -0.1245
     84  CA        -8.9230   -2.5580    6.5120 C.3    47  MET47       0.1570
     85  C         -8.6920   -3.3160    5.2060 C.2    47  MET47       0.2261
     86  O         -9.3880   -4.2840    4.9290 O.2    47  MET47      -0.2867
     87  CB        -9.6900   -1.2270    6.2740 C.3    47  MET47       0.0387
     88  CG       -11.0220   -1.4040    5.5770 C.3    47  MET47       0.0595
     89  SD       -12.2370   -2.3790    6.4960 S.3    47  MET47      -0.1393
     90  CE       -12.5920   -1.2820    7.8570 C.3    47  MET47       0.0692
     91  N        -18.9350   -3.4610    8.6040 N.3    65  VAL65      -0.1245
     92  CA       -18.0650   -2.2910    8.6590 C.3    65  VAL65       0.1561
     93  C        -18.8500   -0.9930    8.6790 C.2    65  VAL65       0.2260
     94  O        -18.5480   -0.1000    9.4840 O.2    65  VAL65      -0.2867
     95  CB       -17.0020   -2.3150    7.5480 C.3    65  VAL65       0.0252
     96  CG1      -16.2190   -0.9960    7.4980 C.3    65  VAL65       0.0019
     97  CG2      -16.0630   -3.5040    7.7080 C.3    65  VAL65       0.0019
     98  N        -20.4220   -0.3410   12.1230 N.3    68  GLU68      -0.1231
     99  CA       -19.4760    0.1580   13.1240 C.3    68  GLU68       0.1699
    100  C        -19.0880    1.6220   12.8350 C.2    68  GLU68       0.2592
    101  O        -19.0260    2.4360   13.7650 O.2    68  GLU68      -0.2718
    102  CB       -18.2460   -0.7440   13.2030 C.3    68  GLU68       0.0402
    103  CG       -17.3860   -0.4460   14.4250 C.3    68  GLU68       0.1161
    104  CD       -16.0020   -1.0570   14.5250 C.2    68  GLU68       0.3649
    105  OE1      -15.3040   -0.7560   15.5210 O.co2  68  GLU68      -0.2457
    106  OE2      -15.6130   -1.8360   13.6270 O.co2  68  GLU68      -0.2457
    107  N        -18.9010    1.9710   11.5350 N.am   69  LEU69      -0.1980
    108  CA       -18.4790    3.3110   11.1200 C.3    69  LEU69       0.1596
    109  C        -19.4140    4.4190   11.5700 C.2    69  LEU69       0.2287
    110  O        -18.9720    5.4790   12.0510 O.2    69  LEU69      -0.2864
    111  CB       -18.2860    3.3640    9.5980 C.3    69  LEU69       0.0297
    112  CG       -17.8710    4.7060    9.0020 C.3    69  LEU69       0.0022
    113  CD1      -16.5230    5.1910    9.5810 C.3    69  LEU69       0.0001
    114  CD2      -17.7620    4.5800    7.4960 C.3    69  LEU69       0.0001
    115  N        -22.1260    5.6850   16.1990 N.3    72  ASP72      -0.1239
    116  CA       -22.3000    6.8830   17.0320 C.3    72  ASP72       0.1674
    117  C        -22.8730    8.0640   16.2880 C.2    72  ASP72       0.2266
    118  O        -23.0180    9.1230   16.8830 O.2    72  ASP72      -0.2867
    119  CB       -20.9550    7.2900   17.6730 C.3    72  ASP72       0.1410
    120  CG       -20.3780    6.2840   18.6420 C.2    72  ASP72       0.3668
    121  OD1      -21.1660    5.6320   19.3650 O.co2  72  ASP72      -0.2456
    122  OD2      -19.1350    6.2020   18.7370 O.co2  72  ASP72      -0.2456
    123  N        -21.0540   12.3770   10.3620 N.3    75  ASN75      -0.1225
    124  CA       -20.2550   13.5900   10.2060 C.3    75  ASN75       0.1785
    125  C        -19.5250   13.4710    8.8430 C.2    75  ASN75       0.2597
    126  O        -19.5320   12.3690    8.2740 O.2    75  ASN75      -0.2718
    127  CB       -19.3020   13.8700   11.4130 C.3    75  ASN75       0.1169
    128  CG       -18.2640   12.8160   11.7010 C.2    75  ASN75       0.2627
    129  OD1      -17.5570   12.3350   10.8210 O.2    75  ASN75      -0.2716
    130  ND2      -18.0810   12.5030   12.9660 N.am   75  ASN75      -0.0877
    131  N        -18.9170   14.5740    8.3250 N.am   76  TRP76      -0.1962
    132  CA       -18.2780   14.5650    7.0160 C.3    76  TRP76       0.1771
    133  C        -17.1140   13.5870    6.8930 C.2    76  TRP76       0.2620
    134  O        -17.0110   12.9370    5.8580 O.2    76  TRP76      -0.2715
    135  CB       -17.8620   15.9620    6.5400 C.3    76  TRP76       0.0590
    136  CG       -19.0270   16.8570    6.2190 C.ar   76  TRP76       0.0006
    137  CD1      -19.3440   18.0320    6.8320 C.ar   76  TRP76       0.0946
    138  CD2      -20.0390   16.6370    5.2180 C.ar   76  TRP76       0.0152
    139  NE1      -20.4920   18.5580    6.2840 N.ar   76  TRP76      -0.2442
    140  CE2      -20.9470   17.7190    5.2970 C.ar   76  TRP76       0.0810
    141  CE3      -20.2750   15.6210    4.2700 C.ar   76  TRP76       0.0012
    142  CZ2      -22.0540   17.8410    4.4350 C.ar   76  TRP76       0.0191
    143  CZ3      -21.3850   15.7240    3.4360 C.ar   76  TRP76       0.0001
    144  CH2      -22.2670   16.8150    3.5320 C.ar   76  TRP76       0.0015
    145  N        -16.2820   13.4870    7.9390 N.am   77  GLY77      -0.1940
    146  CA       -15.1460   12.5720    7.9920 C.3    77  GLY77       0.2014
    147  C        -15.5510   11.1160    7.8900 C.2    77  GLY77       0.2638
    148  O        -14.9030   10.3440    7.1820 O.2    77  GLY77      -0.2714
    149  N        -16.6250   10.7240    8.5840 N.am   78  ARG78      -0.1977
    150  CA       -17.1340    9.3480    8.5100 C.3    78  ARG78       0.1597
    151  C        -17.6840    9.0010    7.1120 C.2    78  ARG78       0.2287
    152  O        -17.4830    7.8850    6.6470 O.2    78  ARG78      -0.2864
    153  CB       -18.2070    9.0940    9.5740 C.3    78  ARG78       0.0334
    154  CG       -17.6250    8.9070   10.9370 C.3    78  ARG78       0.0492
    155  CD       -18.6800    8.8640   12.0020 C.3    78  ARG78       0.2205
    156  NE       -18.0320    8.8660   13.3090 N.pl3  78  ARG78      -0.0865
    157  CZ       -18.6610    8.7370   14.4720 C.cat  78  ARG78       0.5346
    158  NH1      -19.9770    8.5520   14.5070 N.pl3  78  ARG78       0.1354
    159  NH2      -17.9790    8.7670   15.6070 N.pl3  78  ARG78       0.1354
    160  N        -16.5800   10.4440    4.3390 N.3    80  VAL80      -0.1231
    161  CA       -15.3350   10.2920    3.5570 C.3    80  VAL80       0.1692
    162  C        -14.7840    8.8620    3.7690 C.2    80  VAL80       0.2591
    163  O        -14.4980    8.1790    2.7850 O.2    80  VAL80      -0.2718
    164  CB       -14.2700   11.4020    3.8200 C.3    80  VAL80       0.0266
    165  CG1      -12.9550   11.0870    3.0850 C.3    80  VAL80       0.0020
    166  CG2      -14.7860   12.7720    3.3800 C.3    80  VAL80       0.0020
    167  N        -14.7100    8.3990    5.0240 N.am   81  ALA81      -0.1980
    168  CA       -14.2090    7.0410    5.3750 C.3    81  ALA81       0.1597
    169  C        -15.0970    5.9320    4.7370 C.2    81  ALA81       0.2287
    170  O        -14.5990    4.8850    4.3340 O.2    81  ALA81      -0.2864
    171  CB       -14.1690    6.8750    6.8890 C.3    81  ALA81       0.0319
    172  N        -14.0470    5.7590    1.0740 N.3    84  GLU84      -0.1231
    173  CA       -12.7290    5.0920    1.0630 C.3    84  GLU84       0.1699
    174  C        -12.8470    3.5760    1.2970 C.2    84  GLU84       0.2592
    175  O        -12.1500    2.7730    0.6590 O.2    84  GLU84      -0.2718
    176  CB       -11.7880    5.7370    2.0760 C.3    84  GLU84       0.0402
    177  CG       -11.0810    6.9480    1.4890 C.3    84  GLU84       0.1161
    178  CD       -10.1710    6.6240    0.3170 C.2    84  GLU84       0.3649
    179  OE1       -9.2990    5.7420    0.4510 O.co2  84  GLU84      -0.2457
    180  OE2      -10.3750    7.2090   -0.7630 O.co2  84  GLU84      -0.2457
    181  N        -13.7500    3.2020    2.1980 N.am   85  PHE85      -0.1976
    182  CA       -14.0360    1.7960    2.5140 C.3    85  PHE85       0.1639
    183  C        -14.6230    1.1130    1.2700 C.2    85  PHE85       0.2290
    184  O        -14.1810    0.0270    0.9370 O.2    85  PHE85      -0.2864
    185  CB       -14.9850    1.6630    3.7150 C.3    85  PHE85       0.0560
    186  CG       -15.5580    0.2590    3.8500 C.ar   85  PHE85      -0.0200
    187  CD1      -14.7310   -0.8260    4.1300 C.ar   85  PHE85      -0.0042
    188  CD2      -16.9240    0.0330    3.7260 C.ar   85  PHE85      -0.0042
    189  CE1      -15.2580   -2.1190    4.2380 C.ar   85  PHE85      -0.0003
    190  CE2      -17.4480   -1.2630    3.8350 C.ar   85  PHE85      -0.0003
    191  CZ       -16.6100   -2.3260    4.0880 C.ar   85  PHE85      -0.0000
    192  N        -11.8070    0.4660   -1.2430 N.3    88  VAL88      -0.1245
    193  CA       -10.9830   -0.6640   -0.8180 C.3    88  VAL88       0.1561
    194  C        -11.6670   -1.9950   -1.1890 C.2    88  VAL88       0.2260
    195  O        -11.0090   -2.9220   -1.6890 O.2    88  VAL88      -0.2867
    196  CB       -10.6530   -0.5200    0.6850 C.3    88  VAL88       0.0252
    197  CG1      -10.3490   -1.8480    1.3530 C.3    88  VAL88       0.0019
    198  CG2       -9.4810    0.4340    0.8800 C.3    88  VAL88       0.0019
    199  N        -20.2910   20.5810    2.2120 N.3   130  PHE130     -0.1241
    200  CA       -19.0690   19.7800    2.2190 C.3   130  PHE130      0.1605
    201  C        -18.0180   20.5060    1.3810 C.2   130  PHE130      0.2264
    202  O        -16.8630   20.6460    1.7920 O.2   130  PHE130     -0.2867
    203  CB       -19.3480   18.3580    1.6540 C.3   130  PHE130      0.0534
    204  CG       -18.1020   17.5070    1.5440 C.ar  130  PHE130     -0.0203
    205  CD1      -17.4620   17.0290    2.6830 C.ar  130  PHE130     -0.0042
    206  CD2      -17.5710   17.1820    0.3010 C.ar  130  PHE130     -0.0042
    207  CE1      -16.2950   16.2600    2.5770 C.ar  130  PHE130     -0.0003
    208  CE2      -16.4200   16.3930    0.1990 C.ar  130  PHE130     -0.0003
    209  CZ       -15.7860   15.9480    1.3370 C.ar  130  PHE130     -0.0000
    210  N        -14.6180   21.9590    2.7690 N.3   134  TYR134     -0.1241
    211  CA       -13.3820   21.2700    2.4090 C.3   134  TYR134      0.1605
    212  C        -12.8610   21.4850    0.9870 C.2   134  TYR134      0.2264
    213  O        -11.7490   21.0340    0.6830 O.2   134  TYR134     -0.2867
    214  CB       -13.5670   19.7660    2.6960 C.3   134  TYR134      0.0534
    215  CG       -13.9020   19.5100    4.1520 C.ar  134  TYR134     -0.0201
    216  CD1      -12.9620   19.7410    5.1560 C.ar  134  TYR134     -0.0009
    217  CD2      -15.1710   19.0710    4.5310 C.ar  134  TYR134     -0.0009
    218  CE1      -13.2820   19.5650    6.4980 C.ar  134  TYR134      0.0417
    219  CE2      -15.4880   18.8510    5.8750 C.ar  134  TYR134      0.0417
    220  CZ       -14.5480   19.1270    6.8520 C.ar  134  TYR134      0.1957
    221  OH       -14.8250   18.8970    8.1720 O.3   134  TYR134     -0.2866
@<TRIPOS>BOND
     1    15    14    2
     2     1     2    1
     3    14    13    1
     4    14    16   am
     5    13    12    1
     6     6     5    1
     7     8     9    1
     8     2     5    1
     9     2     3    1
    10    12     9    1
    11     5     7    1
    12     9    10    1
    13     3     4    2
    14   195   194    2
    15   192   193    1
    16   194   193    1
    17    10    17   am
    18    10    11    2
    19   193   196    1
    20   180   178   ar
    21    17    18    1
    22   208   206   ar
    23   208   209   ar
    24   206   204   ar
    25   178   179   ar
    26   178   177    1
    27   175   174    2
    28   213   212    2
    29   196   198    1
    30   196   197    1
    31    18    19    1
    32    18    21    1
    33    82    80   ar
    34    82    81   ar
    35   184   183    2
    36   212   211    1
    37   173   172    1
    38   173   174    1
    39   173   176    1
    40    22    23    1
    41    19    20    2
    42   183   182    1
    43   174   181   am
    44   209   207   ar
    45    80    78   ar
    46   201   202    2
    47   201   200    1
    48   177   176    1
    49   204   203    1
    50   204   205   ar
    51   203   200    1
    52    81    79   ar
    53   181   182    1
    54   199   200    1
    55   211   214    1
    56   211   210    1
    57    23    26    1
    58    23    24    1
    59   182   185    1
    60   207   205   ar
    61   214   215    1
    62    26    27    1
    63    78    77   ar
    64   163   162    2
    65   165   164    1
    66    79    77   ar
    67   166   164    1
    68   143   144   ar
    69   143   141   ar
    70   144   142   ar
    71   161   162    1
    72   161   164    1
    73   161   160    1
    74    24    30   am
    75    24    25    2
    76    77    76    1
    77    30    31    1
    78   185   186    1
    79   188   190   ar
    80   188   186   ar
    81   162   167   am
    82   190   191   ar
    83   186   187   ar
    84    27    29   ar
    85    27    28   ar
    86   191   189   ar
    87   187   189   ar
    88   215   217   ar
    89   215   216   ar
    90   141   138   ar
    91   170   169    2
    92   142   140   ar
    93   217   219   ar
    94    34    31    1
    95    34    35    1
    96   169   168    1
    97    31    32    1
    98    32    33    2
    99    75    74    2
   100    86    85    2
   101   167   168    1
   102    37    35   ar
   103    37    39   ar
   104    76    73    1
   105   216   218   ar
   106    85    84    1
   107   138   140   ar
   108   138   136   ar
   109   140   139   ar
   110   168   171    1
   111    35    36   ar
   112    74    73    1
   113    88    87    1
   114    88    89    1
   115    51    49    1
   116   134   133    2
   117    39    40   ar
   118   219   220   ar
   119    73    72    1
   120    41    42    1
   121    50    49    1
   122   136   135    1
   123   136   137   ar
   124    87    84    1
   125   139   137   ar
   126    49    48    2
   127    89    90    1
   128   218   220   ar
   129    84    83    1
   130   135   132    1
   131   152   151    2
   132    36    38   ar
   133   220   221    1
   134   133   132    1
   135   133   145   am
   136   132   131    1
   137   151   150    1
   138    48    47    1
   139    46    47    1
   140    46    45    1
   141    40    38   ar
   142   148   147    2
   143    72    66   am
   144   114   112    1
   145    96    95    1
   146    95    97    1
   147    95    92    1
   148    42    45    1
   149    42    43    1
   150    55    54    2
   151   147   146    1
   152   147   149   am
   153   145   146    1
   154    67    66    2
   155    52    43   am
   156    52    53    1
   157    54    53    1
   158   126   125    2
   159    66    65    1
   160   131   125   am
   161    43    44    2
   162   150   149    1
   163   150   153    1
   164    91    92    1
   165    92    93    1
   166    93    94    2
   167   125   124    1
   168    53    56    1
   169   112   113    1
   170   112   111    1
   171    56    57    1
   172   153   154    1
   173   111   108    1
   174    65    64    1
   175    65    68    1
   176    58    57   ar
   177    58    60   ar
   178    68    69    1
   179   124   123    1
   180   124   127    1
   181    57    59   ar
   182   129   128    2
   183    60    62   ar
   184   154   155    1
   185   108   107    1
   186   108   109    1
   187   127   128    1
   188   107   100   am
   189   109   110    2
   190    59    61   ar
   191    69    71   ar
   192    69    70   ar
   193   128   130   am
   194   155   156    1
   195    98    99    1
   196    62    61   ar
   197    62    63    1
   198   100    99    1
   199   100   101    2
   200    99   102    1
   201   102   103    1
   202   156   157    2
   203   106   104   ar
   204   103   104    1
   205   157   158    1
   206   157   159    1
   207   104   105   ar
   208   115   116    1
   209   117   118    2
   210   117   116    1
   211   116   119    1
   212   119   120    1
   213   120   122   ar
   214   120   121   ar
