@<TRIPOS>MOLECULE
tmp/4maoA00.pdb
 174 161 0 0 0
SMALL
GASTEIGER

@<TRIPOS>ATOM
      1  N         14.5970   16.7060  -26.3300 N.3    12  GLU12      -0.1245
      2  CA        13.3450   16.9160  -27.0490 C.3    12  GLU12       0.1567
      3  C         12.1390   16.5570  -26.1890 C.2    12  GLU12       0.2260
      4  O         12.2510   15.8090  -25.2200 O.2    12  GLU12      -0.2867
      5  CB        13.3180   16.1000  -28.3530 C.3    12  GLU12       0.0388
      6  CG        13.0670   14.5960  -28.2000 C.3    12  GLU12       0.1160
      7  CD        14.3400   13.8130  -27.9420 C.2    12  GLU12       0.3649
      8  OE1       15.4040   14.4450  -27.7490 O.co2  12  GLU12      -0.2457
      9  OE2       14.2760   12.5640  -27.9340 O.co2  12  GLU12      -0.2457
     10  N          8.9160   14.4240  -25.6160 N.3    14  ILE14      -0.1231
     11  CA         8.3420   13.1580  -26.0620 C.3    14  ILE14       0.1692
     12  C          6.8170   13.1520  -25.9090 C.2    14  ILE14       0.2593
     13  O          6.1720   12.1020  -25.9780 O.2    14  ILE14      -0.2718
     14  CB         8.9800   11.9400  -25.3620 C.3    14  ILE14       0.0266
     15  CG1        9.3990   12.2740  -23.9360 C.3    14  ILE14       0.0019
     16  CG2       10.2030   11.4790  -26.1330 C.3    14  ILE14       0.0020
     17  CD1        9.9950   11.0990  -23.2010 C.3    14  ILE14       0.0001
     18  N          6.2560   14.3420  -25.7030 N.am   15  GLY15      -0.1942
     19  CA         4.8420   14.5900  -25.9450 C.3    15  GLY15       0.2014
     20  C          3.8970   14.4370  -24.7660 C.2    15  GLY15       0.2639
     21  O          4.3250   14.3180  -23.6110 O.2    15  GLY15      -0.2714
     22  N          2.5990   14.4750  -25.0760 N.am   16  VAL16      -0.1963
     23  CA         1.5430   14.1500  -24.1210 C.3    16  VAL16       0.1727
     24  C          1.6570   14.9070  -22.7930 C.2    16  VAL16       0.2617
     25  O          2.1420   14.3570  -21.8070 O.2    16  VAL16      -0.2715
     26  CB         1.5250   12.6270  -23.8200 C.3    16  VAL16       0.0290
     27  CG1        0.4370   12.2600  -22.8170 C.3    16  VAL16       0.0023
     28  CG2        1.2480   11.8750  -25.1240 C.3    16  VAL16       0.0023
     29  N          1.1950   16.1560  -22.7650 N.am   17  GLY17      -0.1940
     30  CA         1.1520   16.9230  -21.5290 C.3    17  GLY17       0.2014
     31  C         -0.2360   17.4430  -21.1870 C.2    17  GLY17       0.2639
     32  O         -1.0980   17.5310  -22.0610 O.2    17  GLY17      -0.2714
     33  N         -0.4540   17.7810  -19.9150 N.am   18  SER18      -0.1949
     34  CA        -1.7170   18.3920  -19.4820 C.3    18  SER18       0.1924
     35  C         -1.4320   19.6930  -18.7250 C.2    18  SER18       0.2314
     36  O         -1.5190   20.7840  -19.2960 O.2    18  SER18      -0.2863
     37  CB        -2.5580   17.4250  -18.6250 C.3    18  SER18       0.2116
     38  OG        -1.9470   17.1120  -17.3820 O.3    18  SER18      -0.2180
     39  N          1.4350   19.5090  -17.5120 N.3    20  SER20      -0.1217
     40  CA         2.7900   18.9550  -17.4680 C.3    20  SER20       0.1889
     41  C          3.3010   18.4940  -18.8500 C.2    20  SER20       0.2288
     42  O          2.5250   18.2690  -19.7780 O.2    20  SER20      -0.2866
     43  CB         2.8410   17.7890  -16.4720 C.3    20  SER20       0.2089
     44  OG         1.6410   17.0210  -16.4920 O.3    20  SER20      -0.2183
     45  N          6.4750   15.9950  -20.9640 N.3    22  CYS22      -0.1235
     46  CA         7.4630   14.9240  -20.8740 C.3    22  CYS22       0.1677
     47  C          8.5950   15.1850  -21.8650 C.2    22  CYS22       0.2270
     48  O          8.3500   15.4200  -23.0430 O.2    22  CYS22      -0.2867
     49  CB         6.8110   13.5700  -21.1590 C.3    22  CYS22       0.0956
     50  SG         5.5820   13.0660  -19.9200 S.3    22  CYS22      -0.0801
     51  N         12.6910   13.9250  -23.1200 N.3    24  ARG24      -0.1245
     52  CA        13.8080   13.0050  -22.9980 C.3    24  ARG24       0.1563
     53  C         14.8830   13.7130  -22.1900 C.2    24  ARG24       0.2260
     54  O         15.0240   14.9270  -22.2560 O.2    24  ARG24      -0.2867
     55  CB        14.3510   12.5800  -24.3670 C.3    24  ARG24       0.0307
     56  CG        15.3980   11.4680  -24.2780 C.3    24  ARG24       0.0489
     57  CD        15.9030   10.9900  -25.6430 C.3    24  ARG24       0.2205
     58  NE        16.5770   12.0510  -26.3940 N.pl3  24  ARG24      -0.0865
     59  CZ        17.8770   12.3240  -26.3360 C.cat  24  ARG24       0.5346
     60  NH1       18.6890   11.6090  -25.5660 N.pl3  24  ARG24       0.1354
     61  NH2       18.3680   13.3220  -27.0540 N.pl3  24  ARG24       0.1354
     62  N         13.1500    9.3410  -19.2280 N.3    35  ALA35      -0.1245
     63  CA        12.1420   10.3660  -19.4690 C.3    35  ALA35       0.1562
     64  C         12.0560   11.2680  -18.2440 C.2    35  ALA35       0.2260
     65  O         12.5200   10.9020  -17.1730 O.2    35  ALA35      -0.2867
     66  CB        10.7890    9.7280  -19.7570 C.3    35  ALA35       0.0290
     67  N          8.9560   13.8170  -16.4600 N.3    37  LYS37      -0.1245
     68  CA         7.6860   14.5220  -16.4630 C.3    37  LYS37       0.1561
     69  C          7.8020   15.7330  -15.5580 C.2    37  LYS37       0.2260
     70  O          8.0270   15.6100  -14.3580 O.2    37  LYS37      -0.2867
     71  CB         6.5570   13.6110  -15.9910 C.3    37  LYS37       0.0271
     72  CG         5.1900   14.2550  -16.0240 C.3    37  LYS37       0.0035
     73  CD         4.0880   13.2230  -15.9150 C.3    37  LYS37       0.0206
     74  CE         2.7180   13.8750  -15.9890 C.3    37  LYS37       0.1093
     75  NZ         1.6060   12.8860  -15.9690 N.3    37  LYS37      -0.1314
     76  N          5.5450    1.4130  -15.6430 N.3    63  ILE63      -0.1245
     77  CA         6.7180    2.2500  -15.8630 C.3    63  ILE63       0.1561
     78  C          7.4940    2.4830  -14.5590 C.2    63  ILE63       0.2260
     79  O          6.9260    2.6810  -13.4790 O.2    63  ILE63      -0.2867
     80  CB         6.3360    3.5880  -16.5320 C.3    63  ILE63       0.0252
     81  CG1        7.5740    4.4510  -16.7940 C.3    63  ILE63       0.0019
     82  CG2        5.3420    4.3510  -15.6880 C.3    63  ILE63       0.0019
     83  CD1        7.3830    5.4600  -17.9420 C.3    63  ILE63       0.0001
     84  N         11.7810    8.8990  -15.2460 N.3    79  MET79      -0.1230
     85  CA        11.2840    7.5290  -15.4060 C.3    79  MET79       0.1702
     86  C         12.0090    6.8160  -16.5320 C.2    79  MET79       0.2592
     87  O         12.7660    7.4270  -17.2680 O.2    79  MET79      -0.2718
     88  CB         9.7810    7.5270  -15.7350 C.3    79  MET79       0.0401
     89  CG         8.8660    7.9930  -14.6070 C.3    79  MET79       0.0596
     90  SD         7.1780    8.3780  -15.1640 S.3    79  MET79      -0.1393
     91  CE         7.3510   10.0860  -15.6860 C.3    79  MET79       0.0692
     92  N         11.7580    5.5160  -16.6440 N.am   80  GLU80      -0.1966
     93  CA        12.1360    4.7130  -17.8010 C.3    80  GLU80       0.1733
     94  C         11.7930    5.4400  -19.1070 C.2    80  GLU80       0.2616
     95  O         10.7990    6.1530  -19.1750 O.2    80  GLU80      -0.2715
     96  CB        11.3360    3.4090  -17.7690 C.3    80  GLU80       0.0429
     97  CG        12.1490    2.1400  -17.6260 C.3    80  GLU80       0.1163
     98  CD        11.2600    0.9060  -17.4640 C.2    80  GLU80       0.3649
     99  OE1       10.1430    1.0330  -16.9060 O.co2  80  GLU80      -0.2457
    100  OE2       11.6790   -0.1940  -17.9000 O.co2  80  GLU80      -0.2457
    101  N         12.6050    5.2570  -20.1440 N.am   81  LEU81      -0.1963
    102  CA        12.2760    5.7890  -21.4600 C.3    81  LEU81       0.1728
    103  C         11.8410    4.6560  -22.3820 C.2    81  LEU81       0.2616
    104  O         12.5640    3.6700  -22.5550 O.2    81  LEU81      -0.2715
    105  CB        13.4680    6.5180  -22.0760 C.3    81  LEU81       0.0311
    106  CG        13.1500    7.2820  -23.3580 C.3    81  LEU81       0.0022
    107  CD1       12.4240    8.5670  -23.0500 C.3    81  LEU81       0.0001
    108  CD2       14.4170    7.5810  -24.1220 C.3    81  LEU81       0.0001
    109  N         10.6600    4.8050  -22.9750 N.am   82  MET82      -0.1963
    110  CA        10.1370    3.8140  -23.9090 C.3    82  MET82       0.1736
    111  C         10.8490    3.9430  -25.2400 C.2    82  MET82       0.2616
    112  O         10.9610    5.0340  -25.7860 O.2    82  MET82      -0.2715
    113  CB         8.6390    4.0230  -24.1150 C.3    82  MET82       0.0427
    114  CG         7.8320    4.0430  -22.8180 C.3    82  MET82       0.0599
    115  SD         7.7990    2.4460  -21.9900 S.3    82  MET82      -0.1393
    116  CE         9.0190    2.6510  -20.6980 C.3    82  MET82       0.0692
    117  N         11.3240    2.8220  -25.7610 N.am   83  LYS83      -0.1977
    118  CA        12.0160    2.8090  -27.0460 C.3    83  LYS83       0.1596
    119  C         11.2940    1.9370  -28.0920 C.2    83  LYS83       0.2287
    120  O         11.7310    1.8220  -29.2400 O.2    83  LYS83      -0.2864
    121  CB        13.4570    2.3130  -26.8530 C.3    83  LYS83       0.0298
    122  CG        14.2660    3.1330  -25.8750 C.3    83  LYS83       0.0038
    123  CD        14.4960    4.5480  -26.3690 C.3    83  LYS83       0.0206
    124  CE        15.5630    4.6000  -27.4620 C.3    83  LYS83       0.1093
    125  NZ        16.8450    3.9590  -27.0350 N.3    83  LYS83      -0.1314
    126  N          8.0110    2.3170  -28.8110 N.3    85  GLY85      -0.1210
    127  CA         6.8590    3.0300  -29.3230 C.3    85  GLY85       0.1956
    128  C          5.5450    2.6830  -28.6280 C.2    85  GLY85       0.2611
    129  O          5.4450    1.7880  -27.7900 O.2    85  GLY85      -0.2717
    130  N          4.5150    3.4190  -29.0000 N.am   86  GLU86      -0.1979
    131  CA         3.1830    3.2110  -28.4690 C.3    86  GLU86       0.1602
    132  C          2.6210    1.8490  -28.9230 C.2    86  GLU86       0.2287
    133  O          2.6030    1.5300  -30.1060 O.2    86  GLU86      -0.2864
    134  CB         2.3260    4.3950  -28.9020 C.3    86  GLU86       0.0415
    135  CG         0.8710    4.2180  -28.7110 C.3    86  GLU86       0.1163
    136  CD         0.0780    5.4250  -29.2040 C.2    86  GLU86       0.3649
    137  OE1       -1.0580    5.2130  -29.7010 O.co2  86  GLU86      -0.2457
    138  OE2        0.6000    6.5710  -29.0950 O.co2  86  GLU86      -0.2457
    139  N         -2.4430    5.5590  -25.7980 N.3   129  SER129     -0.1202
    140  CA        -1.2250    6.3410  -25.9620 C.3   129  SER129      0.2020
    141  C         -0.4030    6.3690  -24.6890 C.2   129  SER129      0.2618
    142  O          0.7050    6.9090  -24.6690 O.2   129  SER129     -0.2717
    143  CB        -1.5600    7.7600  -26.3980 C.3   129  SER129      0.2103
    144  OG        -2.6890    8.2450  -25.7130 O.3   129  SER129     -0.2182
    145  N         -0.9550    5.7800  -23.6290 N.am  130  ASN130     -0.1974
    146  CA        -0.2580    5.6200  -22.3530 C.3   130  ASN130      0.1688
    147  C          0.2920    4.2060  -22.1460 C.2   130  ASN130      0.2292
    148  O          0.9280    3.9250  -21.1350 O.2   130  ASN130     -0.2864
    149  CB        -1.2000    5.9490  -21.2020 C.3   130  ASN130      0.1181
    150  CG        -1.5210    7.4320  -21.1100 C.2   130  ASN130      0.2629
    151  OD1       -0.7050    8.2840  -21.4500 O.2   130  ASN130     -0.2716
    152  ND2       -2.7180    7.7400  -20.6460 N.am  130  ASN130     -0.0877
    153  N          2.8440    1.3930  -23.7920 N.3   132  LEU132     -0.1245
    154  CA         3.9690    1.4140  -24.6890 C.3   132  LEU132      0.1561
    155  C          4.7890    0.1540  -24.5510 C.2   132  LEU132      0.2260
    156  O          4.6700   -0.5750  -23.5680 O.2   132  LEU132     -0.2867
    157  CB         4.8360    2.6420  -24.4010 C.3   132  LEU132      0.0270
    158  CG         4.2560    3.9370  -24.9890 C.3   132  LEU132      0.0019
    159  CD1        3.3700    4.6710  -24.0040 C.3   132  LEU132      0.0001
    160  CD2        5.3680    4.8510  -25.4780 C.3   132  LEU132      0.0001
    161  N          2.1900    3.7120  -18.6470 N.3   146  CYS146     -0.1221
    162  CA         3.2360    4.7220  -18.5030 C.3   146  CYS146      0.1808
    163  C          2.8960    6.0890  -17.9010 C.2   146  CYS146      0.2601
    164  O          3.8050    6.8990  -17.7360 O.2   146  CYS146     -0.2717
    165  CB         3.9470    4.9210  -19.8520 C.3   146  CYS146      0.0970
    166  SG         5.0180    3.5100  -20.3090 S.3   146  CYS146     -0.0800
    167  N          1.6430    6.3800  -17.5670 N.am  147  ASP147     -0.1973
    168  CA         1.3650    7.7130  -17.0100 C.3   147  ASP147      0.1709
    169  C          0.9720    7.7980  -15.5130 C.2   147  ASP147      0.2293
    170  O          1.8430    8.0790  -14.6550 O.2   147  ASP147     -0.2864
    171  CB         0.3630    8.5030  -17.8490 C.3   147  ASP147      0.1436
    172  CG         0.4300    9.9770  -17.5370 C.2   147  ASP147      0.3671
    173  OD1       -0.6140   10.6700  -17.4830 O.co2 147  ASP147     -0.2456
    174  OD2        1.5680   10.4290  -17.3030 O.co2 147  ASP147     -0.2456
@<TRIPOS>BOND
     1   133   132    2
     2   137   136   ar
     3   127   126    1
     4   127   128    1
     5   120   119    2
     6   136   138   ar
     7   136   135    1
     8   130   128   am
     9   130   131    1
    10   132   131    1
    11   134   135    1
    12   134   131    1
    13   128   129    2
    14     5     6    1
    15     5     2    1
    16     6     7    1
    17   119   118    1
    18     7     9   ar
    19     7     8   ar
    20   124   125    1
    21   124   123    1
    22    61    59    1
    23     2     1    1
    24     2     3    1
    25   118   121    1
    26   118   117    1
    27   121   122    1
    28   143   140    1
    29   143   144    1
    30    58    59    2
    31    58    57    1
    32   123   122    1
    33    59    60    1
    34     3     4    2
    35    16    14    1
    36    11    12    1
    37    11    10    1
    38    11    14    1
    39    13    12    2
    40   140   139    1
    41   140   141    1
    42    19    18    1
    43    19    20    1
    44    12    18   am
    45   112   111    2
    46   117   111   am
    47    57    56    1
    48   160   158    1
    49    14    15    1
    50   111   110    1
    51    28    26    1
    52    22    20   am
    53    22    23    1
    54   158   157    1
    55   158   159    1
    56    20    21    2
    57   141   142    2
    58   141   145   am
    59   154   155    1
    60   154   157    1
    61   154   153    1
    62   155   156    2
    63    55    56    1
    64    55    52    1
    65   108   106    1
    66    23    26    1
    67    23    24    1
    68   113   110    1
    69   113   114    1
    70    15    17    1
    71   110   109    1
    72    26    27    1
    73   145   146    1
    74   106   107    1
    75   106   105    1
    76    51    52    1
    77    48    47    2
    78    52    53    1
    79   109   103   am
    80   114   115    1
    81    24    29   am
    82    24    25    2
    83    29    30    1
    84   104   103    2
    85   103   102    1
    86   146   147    1
    87   146   149    1
    88    54    53    2
    89   147   148    2
    90   105   102    1
    91    32    31    2
    92   115   116    1
    93    47    46    1
    94    30    31    1
    95   102   101    1
    96   151   150    2
    97   149   150    1
    98    31    33   am
    99    49    46    1
   100    49    50    1
   101   150   152   am
   102    45    46    1
   103   166   165    1
   104   101    94   am
   105    33    34    1
   106   165   162    1
   107    42    41    2
   108    66    63    1
   109    34    35    1
   110    34    37    1
   111    63    62    1
   112    63    64    1
   113    36    35    2
   114    95    94    2
   115    94    93    1
   116    41    40    1
   117   161   162    1
   118    37    38    1
   119   162   163    1
   120    64    65    2
   121    83    81    1
   122   163   164    2
   123   163   167   am
   124   100    98   ar
   125   171   172    1
   126   171   168    1
   127    93    96    1
   128    93    92    1
   129    96    97    1
   130    97    98    1
   131   167   168    1
   132   172   173   ar
   133   172   174   ar
   134    39    40    1
   135    40    43    1
   136    98    99   ar
   137    87    86    2
   138   168   169    1
   139    81    80    1
   140    92    86   am
   141    86    85    1
   142    80    77    1
   143    80    82    1
   144    44    43    1
   145    68    67    1
   146    68    71    1
   147    68    69    1
   148    72    71    1
   149    72    73    1
   150    74    75    1
   151    74    73    1
   152    77    76    1
   153    77    78    1
   154    88    85    1
   155    88    89    1
   156    91    90    1
   157    69    70    2
   158   169   170    2
   159    85    84    1
   160    90    89    1
   161    78    79    2
