@<TRIPOS>MOLECULE
tmp/4mavA01.pdb
 122 122 0 0 0
SMALL
GASTEIGER

@<TRIPOS>ATOM
      1  N         15.3150   -3.7140   -6.5640 N.3     6  TYR6       -0.1241
      2  CA        15.3200   -2.2910   -6.9760 C.3     6  TYR6        0.1605
      3  C         14.3640   -1.9730   -8.1420 C.2     6  TYR6        0.2264
      4  O         14.3660   -2.6680   -9.1670 O.2     6  TYR6       -0.2867
      5  CB        16.7440   -1.8960   -7.3900 C.3     6  TYR6        0.0534
      6  CG        17.6590   -1.4800   -6.2440 C.ar    6  TYR6       -0.0201
      7  CD1       18.3760   -2.4210   -5.5090 C.ar    6  TYR6       -0.0009
      8  CD2       17.8120   -0.1270   -5.9110 C.ar    6  TYR6       -0.0009
      9  CE1       19.2120   -2.0240   -4.4800 C.ar    6  TYR6        0.0417
     10  CE2       18.6520    0.2840   -4.8920 C.ar    6  TYR6        0.0417
     11  CZ        19.3550   -0.6600   -4.1690 C.ar    6  TYR6        0.1957
     12  OH        20.1750   -0.2440   -3.1220 O.3     6  TYR6       -0.2866
     13  N         15.4380    6.8550   -7.9590 N.3    37  PHE37      -0.1241
     14  CA        16.1580    7.3960   -6.8120 C.3    37  PHE37       0.1605
     15  C         15.4970    8.6660   -6.3180 C.2    37  PHE37       0.2264
     16  O         14.8030    9.3060   -7.0400 O.2    37  PHE37      -0.2867
     17  CB        17.5640    7.8110   -7.1830 C.3    37  PHE37       0.0534
     18  CG        18.4950    6.6960   -7.4250 C.ar   37  PHE37      -0.0203
     19  CD1       18.9770    5.9420   -6.3920 C.ar   37  PHE37      -0.0042
     20  CD2       18.9120    6.4140   -8.6950 C.ar   37  PHE37      -0.0042
     21  CE1       19.8330    4.9100   -6.6300 C.ar   37  PHE37      -0.0003
     22  CE2       19.7730    5.3850   -8.9320 C.ar   37  PHE37      -0.0003
     23  CZ        20.2400    4.6330   -7.9020 C.ar   37  PHE37      -0.0000
     24  N         23.8490    7.4130   -9.4280 N.3    78  TRP78      -0.1241
     25  CA        24.9670    7.9660  -10.2280 C.3    78  TRP78       0.1605
     26  C         24.6340    9.3360  -10.8460 C.2    78  TRP78       0.2264
     27  O         25.5150   10.1810  -11.0500 O.2    78  TRP78      -0.2867
     28  CB        25.3870    6.9760  -11.3340 C.3    78  TRP78       0.0550
     29  CG        24.2950    6.7120  -12.3010 C.ar   78  TRP78       0.0003
     30  CD1       23.9830    7.4410  -13.4180 C.ar   78  TRP78       0.0946
     31  CD2       23.3340    5.6670  -12.2270 C.ar   78  TRP78       0.0152
     32  NE1       22.8870    6.9030  -14.0460 N.ar   78  TRP78      -0.2442
     33  CE2       22.4710    5.8120  -13.3340 C.ar   78  TRP78       0.0810
     34  CE3       23.1210    4.6170  -11.3410 C.ar   78  TRP78       0.0012
     35  CZ2       21.4190    4.9460  -13.5760 C.ar   78  TRP78       0.0191
     36  CZ3       22.0680    3.7620  -11.5820 C.ar   78  TRP78       0.0001
     37  CH2       21.2340    3.9310  -12.6910 C.ar   78  TRP78       0.0015
     38  N         22.3290    5.5640   -1.3910 N.3   117  ALA117     -0.1245
     39  CA        23.0950    5.2000   -2.6580 C.3   117  ALA117      0.1562
     40  C         23.9200    6.4470   -2.7980 C.2   117  ALA117      0.2260
     41  O         23.5570    7.3340   -3.5600 O.2   117  ALA117     -0.2867
     42  CB        22.1140    4.8880   -3.7300 C.3   117  ALA117      0.0290
     43  N         27.2660    7.1680   -4.4480 N.3   119  LEU119     -0.1231
     44  CA        28.0780    6.4890   -5.4250 C.3   119  LEU119      0.1693
     45  C         29.0900    7.4370   -6.0250 C.2   119  LEU119      0.2592
     46  O         28.8060    8.0660   -7.0100 O.2   119  LEU119     -0.2718
     47  CB        27.2000    5.9230   -6.5320 C.3   119  LEU119      0.0284
     48  CG        26.0730    4.9800   -6.2120 C.3   119  LEU119      0.0019
     49  CD1       25.5690    4.4980   -7.5250 C.3   119  LEU119      0.0001
     50  CD2       26.3900    3.8240   -5.3010 C.3   119  LEU119      0.0001
     51  N         30.2730    7.5370   -5.4460 N.am  120  TRP120     -0.1976
     52  CA        30.6660    6.8030   -4.2750 C.3   120  TRP120      0.1640
     53  C         31.4900    7.7760   -3.5650 C.2   120  TRP120      0.2290
     54  O         31.8170    8.7690   -4.1200 O.2   120  TRP120     -0.2864
     55  CB        31.5020    5.5820   -4.6200 C.3   120  TRP120      0.0576
     56  CG        31.2850    5.0670   -5.9450 C.ar  120  TRP120      0.0006
     57  CD1       31.7430    5.6040   -7.0750 C.ar  120  TRP120      0.0946
     58  CD2       30.5010    3.9510   -6.3160 C.ar  120  TRP120      0.0152
     59  NE1       31.3210    4.8810   -8.1460 N.ar  120  TRP120     -0.2442
     60  CE2       30.5490    3.8560   -7.6980 C.ar  120  TRP120      0.0810
     61  CE3       29.7900    3.0180   -5.6190 C.ar  120  TRP120      0.0012
     62  CZ2       29.9270    2.8750   -8.3870 C.ar  120  TRP120      0.0191
     63  CZ3       29.1740    2.0560   -6.3060 C.ar  120  TRP120      0.0001
     64  CH2       29.2420    1.9830   -7.6810 C.ar  120  TRP120      0.0015
     65  N         23.8870    0.9710   -0.2610 N.3   156  ALA156     -0.1245
     66  CA        24.3470    0.3220   -1.4800 C.3   156  ALA156      0.1562
     67  C         25.8510    0.4800   -1.4540 C.2   156  ALA156      0.2260
     68  O         26.3400    1.5670   -1.2790 O.2   156  ALA156     -0.2867
     69  CB        23.7280    0.9570   -2.7370 C.3   156  ALA156      0.0290
     70  N         27.3650   -4.4500   -4.4240 N.3   183  LEU183     -0.1245
     71  CA        27.0730   -4.2770   -5.8700 C.3   183  LEU183      0.1561
     72  C         28.0080   -5.1400   -6.7010 C.2   183  LEU183      0.2260
     73  O         28.9070   -4.6120   -7.3910 O.2   183  LEU183     -0.2867
     74  CB        27.2800   -2.8260   -6.2520 C.3   183  LEU183      0.0270
     75  CG        26.3840   -1.8550   -5.4850 C.3   183  LEU183      0.0019
     76  CD1       26.6170   -0.4460   -5.9780 C.3   183  LEU183      0.0001
     77  CD2       24.9150   -2.2050   -5.6020 C.3   183  LEU183      0.0001
     78  N         28.2170   -6.5770   -9.5750 N.3   185  TYR185     -0.1227
     79  CA        27.9730   -6.6620  -11.0190 C.3   185  TYR185      0.1736
     80  C         28.8360   -5.7400  -11.9090 C.2   185  TYR185      0.2595
     81  O         28.5880   -5.6370  -13.1100 O.2   185  TYR185     -0.2718
     82  CB        26.4900   -6.4280  -11.3190 C.3   185  TYR185      0.0548
     83  CG        25.8040   -5.5060  -10.3370 C.ar  185  TYR185     -0.0200
     84  CD1       25.8640   -4.1270  -10.4900 C.ar  185  TYR185     -0.0009
     85  CD2       25.0970   -6.0140   -9.2550 C.ar  185  TYR185     -0.0009
     86  CE1       25.2380   -3.2810   -9.5950 C.ar  185  TYR185      0.0417
     87  CE2       24.4680   -5.1750   -8.3540 C.ar  185  TYR185      0.0417
     88  CZ        24.5420   -3.8100   -8.5290 C.ar  185  TYR185      0.1957
     89  OH        23.9180   -2.9710   -7.6340 O.3   185  TYR185     -0.2866
     90  N         29.8260   -5.0650  -11.3280 N.am  186  ASP186     -0.1974
     91  CA        30.5730   -4.0050  -12.0280 C.3   186  ASP186      0.1709
     92  C         32.0320   -4.3280  -12.3710 C.2   186  ASP186      0.2293
     93  O         32.8350   -3.4290  -12.6220 O.2   186  ASP186     -0.2864
     94  CB        30.5070   -2.6990  -11.2310 C.3   186  ASP186      0.1436
     95  CG        30.7250   -1.4750  -12.0990 C.2   186  ASP186      0.3671
     96  OD1       30.2340   -1.4640  -13.2470 O.co2 186  ASP186     -0.2456
     97  OD2       31.3870   -0.5240  -11.6330 O.co2 186  ASP186     -0.2456
     98  N         20.5680   -7.3740  -15.8510 N.3   239  PHE239     -0.1241
     99  CA        20.8840   -6.8340  -17.1500 C.3   239  PHE239      0.1605
    100  C         22.1290   -7.5310  -17.6350 C.2   239  PHE239      0.2264
    101  O         22.7390   -8.3100  -16.9010 O.2   239  PHE239     -0.2867
    102  CB        21.1500   -5.3280  -17.0680 C.3   239  PHE239      0.0534
    103  CG        22.2010   -4.9800  -16.0970 C.ar  239  PHE239     -0.0203
    104  CD1       21.8830   -4.7690  -14.7460 C.ar  239  PHE239     -0.0042
    105  CD2       23.5220   -4.9080  -16.4970 C.ar  239  PHE239     -0.0042
    106  CE1       22.8640   -4.4570  -13.8280 C.ar  239  PHE239     -0.0003
    107  CE2       24.5270   -4.5920  -15.5790 C.ar  239  PHE239     -0.0003
    108  CZ        24.1960   -4.3680  -14.2410 C.ar  239  PHE239     -0.0000
    109  N         19.3090   -5.9720   -9.1790 N.3   330  TRP330     -0.1241
    110  CA        19.2680   -4.8130  -10.0500 C.3   330  TRP330      0.1605
    111  C         19.0940   -5.3160  -11.4640 C.2   330  TRP330      0.2264
    112  O         20.0810   -5.8340  -12.0430 O.2   330  TRP330     -0.2867
    113  CB        20.5720   -3.9930   -9.9850 C.3   330  TRP330      0.0550
    114  CG        20.4160   -2.7200  -10.7120 C.ar  330  TRP330      0.0003
    115  CD1       20.4470   -2.5330  -12.0740 C.ar  330  TRP330      0.0946
    116  CD2       20.0880   -1.4550  -10.1450 C.ar  330  TRP330      0.0152
    117  NE1       20.1750   -1.2100  -12.3810 N.ar  330  TRP330     -0.2442
    118  CE2       19.9560   -0.5320  -11.2130 C.ar  330  TRP330      0.0810
    119  CE3       19.9120   -1.0040   -8.8440 C.ar  330  TRP330      0.0012
    120  CZ2       19.6580    0.7900  -11.0070 C.ar  330  TRP330      0.0191
    121  CZ3       19.6150    0.3180   -8.6350 C.ar  330  TRP330      0.0001
    122  CH2       19.4840    1.2020   -9.7080 C.ar  330  TRP330      0.0015
@<TRIPOS>BOND
     1   100    99    1
     2   100   101    2
     3    99   102    1
     4    99    98    1
     5   102   103    1
     6   105   103   ar
     7   105   107   ar
     8   103   104   ar
     9   107   108   ar
    10   104   106   ar
    11   108   106   ar
    12    32    30   ar
    13    32    33   ar
    14    35    33   ar
    15    35    37   ar
    16    30    29   ar
    17    33    31   ar
    18    96    95   ar
    19    81    80    2
    20    37    36   ar
    21    93    92    2
    22   117   115   ar
    23   117   118   ar
    24    92    91    1
    25    29    31   ar
    26    29    28    1
    27    31    34   ar
    28    95    97   ar
    29    95    94    1
    30   115   114   ar
    31   112   111    2
    32    91    90    1
    33    91    94    1
    34    80    90   am
    35    80    79    1
    36    36    34   ar
    37   111   110    1
    38    28    25    1
    39    82    79    1
    40    82    83    1
    41   118   120   ar
    42   118   116   ar
    43    27    26    2
    44    79    78    1
    45   120   122   ar
    46    26    25    1
    47   114   116   ar
    48   114   113    1
    49    84    83   ar
    50    84    86   ar
    51    83    85   ar
    52    25    24    1
    53   116   119   ar
    54   110   113    1
    55   110   109    1
    56   122   121   ar
    57    86    88   ar
    58    85    87   ar
    59     4     3    2
    60    22    20   ar
    61    22    23   ar
    62   119   121   ar
    63    20    18   ar
    64    88    87   ar
    65    88    89    1
    66    62    60   ar
    67    62    64   ar
    68    59    60   ar
    69    59    57   ar
    70     3     2    1
    71    13    14    1
    72    23    21   ar
    73    60    58   ar
    74    64    63   ar
    75    49    48    1
    76    18    17    1
    77    18    19   ar
    78    73    72    2
    79     5     2    1
    80     5     6    1
    81    17    14    1
    82    57    56   ar
    83    16    15    2
    84    46    45    2
    85     2     1    1
    86    14    15    1
    87    72    71    1
    88    21    19   ar
    89    47    48    1
    90    47    44    1
    91    58    56   ar
    92    58    61   ar
    93    63    61   ar
    94    74    71    1
    95    74    75    1
    96     6     8   ar
    97     6     7   ar
    98    48    50    1
    99    45    51   am
   100    45    44    1
   101    76    75    1
   102    56    55    1
   103     8    10   ar
   104    71    70    1
   105    77    75    1
   106     7     9   ar
   107    51    52    1
   108    44    43    1
   109    10    11   ar
   110    55    52    1
   111     9    11   ar
   112    52    53    1
   113    11    12    1
   114    54    53    2
   115    42    39    1
   116    41    40    2
   117    40    39    1
   118    69    66    1
   119    39    38    1
   120    66    67    1
   121    66    65    1
   122    67    68    2
