@<TRIPOS>MOLECULE
tmp/4mazA00.pdb
 146 139 0 0 0
SMALL
GASTEIGER

@<TRIPOS>ATOM
      1  N         -4.9050   -7.9350   33.2470 N.3    57  ASP57      -0.1239
      2  CA        -4.1300   -7.3370   32.1130 C.3    57  ASP57       0.1674
      3  C         -4.9780   -7.4380   30.8380 C.2    57  ASP57       0.2266
      4  O         -4.4920   -7.8220   29.7470 O.2    57  ASP57      -0.2867
      5  CB        -2.7540   -8.0650   31.9750 C.3    57  ASP57       0.1410
      6  CG        -1.7730   -7.3630   31.0850 C.2    57  ASP57       0.3668
      7  OD1       -1.9370   -6.1350   30.7260 O.co2  57  ASP57      -0.2456
      8  OD2       -0.8250   -8.1130   30.6260 O.co2  57  ASP57      -0.2456
      9  N         -4.8900  -10.6620   28.7270 N.3    60  TYR60      -0.1241
     10  CA        -3.5780  -11.3170   28.6220 C.3    60  TYR60       0.1605
     11  C         -3.3120  -12.1700   29.8700 C.2    60  TYR60       0.2264
     12  O         -2.2350  -12.7720   30.0010 O.2    60  TYR60      -0.2867
     13  CB        -2.4830  -10.3480   28.3520 C.3    60  TYR60       0.0534
     14  CG        -2.4850   -9.8990   26.9460 C.ar   60  TYR60      -0.0201
     15  CD1       -2.0560  -10.7070   25.9540 C.ar   60  TYR60      -0.0009
     16  CD2       -3.1090   -8.7000   26.5710 C.ar   60  TYR60      -0.0009
     17  CE1       -2.0410  -10.2980   24.6390 C.ar   60  TYR60       0.0417
     18  CE2       -3.1610   -8.3330   25.2270 C.ar   60  TYR60       0.0417
     19  CZ        -2.6420   -9.1400   24.2620 C.ar   60  TYR60       0.1957
     20  OH        -2.7450   -8.8150   22.9440 O.3    60  TYR60      -0.2866
     21  N          2.1960  -17.6780   30.3730 N.3   100  HIS100     -0.1241
     22  CA         1.5940  -17.5170   31.6700 C.3   100  HIS100      0.1621
     23  C          0.0870  -17.6980   31.5180 C.2   100  HIS100      0.2264
     24  O         -0.4840  -17.5280   30.4120 O.2   100  HIS100     -0.2867
     25  CB         1.9010  -16.1520   32.3020 C.3   100  HIS100      0.0745
     26  CG         1.6530  -15.0130   31.3840 C.ar  100  HIS100      0.0817
     27  ND1        2.6330  -14.4750   30.5720 N.ar  100  HIS100     -0.2268
     28  CD2        0.5110  -14.3390   31.1010 C.ar  100  HIS100      0.1154
     29  CE1        2.0930  -13.5370   29.7940 C.ar  100  HIS100      0.1986
     30  NE2        0.8330  -13.3650   30.1700 N.ar  100  HIS100     -0.2212
     31  N          5.8190   -5.4600   35.2450 N.3   142  PHE142     -0.1241
     32  CA         4.8700   -4.5150   35.8010 C.3   142  PHE142      0.1605
     33  C          5.2340   -4.1300   37.2330 C.2   142  PHE142      0.2264
     34  O          4.3320   -3.9410   38.0710 O.2   142  PHE142     -0.2867
     35  CB         3.4700   -5.1140   35.7210 C.3   142  PHE142      0.0534
     36  CG         2.9650   -5.3960   34.3400 C.ar  142  PHE142     -0.0203
     37  CD1        3.2440   -4.5510   33.2960 C.ar  142  PHE142     -0.0042
     38  CD2        2.0910   -6.4750   34.1010 C.ar  142  PHE142     -0.0042
     39  CE1        2.7090   -4.7870   32.0310 C.ar  142  PHE142     -0.0003
     40  CE2        1.5910   -6.7220   32.8290 C.ar  142  PHE142     -0.0003
     41  CZ         1.8780   -5.8500   31.7990 C.ar  142  PHE142     -0.0000
     42  N          5.0440  -11.1110   34.5390 N.3   161  PHE161     -0.1241
     43  CA         4.0480  -10.0300   34.4480 C.3   161  PHE161      0.1605
     44  C          3.3830   -9.8090   35.8040 C.2   161  PHE161      0.2264
     45  O          4.1530   -9.7850   36.8020 O.2   161  PHE161     -0.2867
     46  CB         3.1980  -10.2260   33.1880 C.3   161  PHE161      0.0534
     47  CG         4.0670  -10.2140   31.9660 C.ar  161  PHE161     -0.0203
     48  CD1        4.4430   -9.0150   31.3970 C.ar  161  PHE161     -0.0042
     49  CD2        4.5280  -11.3720   31.3670 C.ar  161  PHE161     -0.0042
     50  CE1        5.3110   -8.9770   30.3560 C.ar  161  PHE161     -0.0003
     51  CE2        5.3770  -11.3180   30.2530 C.ar  161  PHE161     -0.0003
     52  CZ         5.7850  -10.1010   29.7510 C.ar  161  PHE161     -0.0000
     53  N         -0.5680  -13.2640   36.9310 N.3   165  GLN165     -0.1245
     54  CA        -0.1270  -13.8970   35.7020 C.3   165  GLN165      0.1566
     55  C          1.0060  -14.9090   35.9430 C.2   165  GLN165      0.2260
     56  O          2.0990  -14.7490   35.4670 O.2   165  GLN165     -0.2867
     57  CB         0.3350  -12.8520   34.6640 C.3   165  GLN165      0.0367
     58  CG        -0.8680  -12.0750   34.0570 C.3   165  GLN165      0.0905
     59  CD        -0.4860  -10.8130   33.3040 C.2   165  GLN165      0.2608
     60  OE1        0.0920   -9.8810   33.8640 O.2   165  GLN165     -0.2717
     61  NE2       -0.8050  -10.7710   32.0250 N.am  165  GLN165     -0.0878
     62  N         -0.7310  -14.9560   16.8640 N.3   195  ARG195     -0.1245
     63  CA         0.1970  -13.9720   17.3920 C.3   195  ARG195      0.1563
     64  C          0.5760  -14.4870   18.7560 C.2   195  ARG195      0.2260
     65  O         -0.3150  -14.6950   19.6330 O.2   195  ARG195     -0.2867
     66  CB        -0.4890  -12.5930   17.4140 C.3   195  ARG195      0.0307
     67  CG         0.4190  -11.4990   17.9650 C.3   195  ARG195      0.0489
     68  CD         0.2460  -11.3680   19.4670 C.3   195  ARG195      0.2205
     69  NE         0.9240  -10.1690   19.9880 N.pl3 195  ARG195     -0.0865
     70  CZ         1.0020   -9.8490   21.2640 C.cat 195  ARG195      0.5346
     71  NH1        0.5430  -10.6620   22.2040 N.pl3 195  ARG195      0.1354
     72  NH2        1.5680   -8.7240   21.6640 N.pl3 195  ARG195      0.1354
     73  N          2.1200  -14.2600   22.1810 N.3   197  ASP197     -0.1225
     74  CA         2.4280  -13.2380   23.2010 C.3   197  ASP197      0.1805
     75  C          3.6960  -13.6160   23.9640 C.2   197  ASP197      0.2598
     76  O          3.8890  -14.7890   24.3070 O.2   197  ASP197     -0.2718
     77  CB         1.2530  -13.2650   24.2020 C.3   197  ASP197      0.1424
     78  CG         1.4500  -12.2450   25.2780 C.2   197  ASP197      0.3668
     79  OD1        1.1700  -11.0390   25.0100 O.co2 197  ASP197     -0.2456
     80  OD2        1.8050  -12.6430   26.4030 O.co2 197  ASP197     -0.2456
     81  N          4.5440  -12.6030   24.2400 N.am  198  SER198     -0.1952
     82  CA         5.7440  -12.7990   25.0420 C.3   198  SER198      0.1924
     83  C          6.4460  -14.1510   24.7140 C.2   198  SER198      0.2314
     84  O          6.8830  -14.8860   25.6200 O.2   198  SER198     -0.2863
     85  CB         5.4540  -12.6870   26.5200 C.3   198  SER198      0.2116
     86  OG         6.6010  -12.1370   27.1900 O.3   198  SER198     -0.2180
     87  N          5.4620  -12.2290   19.3480 N.3   253  GLU253     -0.1245
     88  CA         5.8610  -10.9870   20.0740 C.3   253  GLU253      0.1567
     89  C          7.1810  -11.3320   20.7620 C.2   253  GLU253      0.2260
     90  O          7.1960  -11.9100   21.8730 O.2   253  GLU253     -0.2867
     91  CB         4.8090  -10.5790   21.1170 C.3   253  GLU253      0.0388
     92  CG         5.1540   -9.2990   21.8780 C.3   253  GLU253      0.1160
     93  CD         4.3620   -9.0240   23.1210 C.2   253  GLU253      0.3649
     94  OE1        4.0760   -9.9330   23.8690 O.co2 253  GLU253     -0.2457
     95  OE2        4.2410   -7.8270   23.4090 O.co2 253  GLU253     -0.2457
     96  N         10.9600   -5.1350   19.5310 N.3   279  PHE279     -0.1241
     97  CA        10.7760   -3.8520   20.2330 C.3   279  PHE279      0.1605
     98  C         11.9020   -2.8590   19.9160 C.2   279  PHE279      0.2264
     99  O         11.8480   -1.7050   20.3790 O.2   279  PHE279     -0.2867
    100  CB        10.6780   -4.0470   21.7520 C.3   279  PHE279      0.0534
    101  CG         9.5090   -4.8790   22.1400 C.ar  279  PHE279     -0.0203
    102  CD1        9.5480   -6.2160   21.9400 C.ar  279  PHE279     -0.0042
    103  CD2        8.3650   -4.2850   22.6560 C.ar  279  PHE279     -0.0042
    104  CE1        8.4520   -6.9870   22.3450 C.ar  279  PHE279     -0.0003
    105  CE2        7.2690   -4.9940   23.0190 C.ar  279  PHE279     -0.0003
    106  CZ         7.3180   -6.3720   22.9100 C.ar  279  PHE279     -0.0000
    107  N         -1.6740   -2.3050   20.7150 N.3   329  HIS329     -0.1226
    108  CA        -2.4370   -2.0290   21.9780 C.3   329  HIS329      0.1752
    109  C         -1.5080   -1.6950   23.1880 C.2   329  HIS329      0.2596
    110  O         -1.9790   -1.3420   24.2770 O.2   329  HIS329     -0.2718
    111  CB        -3.2860   -3.2110   22.3300 C.3   329  HIS329      0.0759
    112  CG        -2.4860   -4.4050   22.6290 C.ar  329  HIS329      0.0818
    113  ND1       -1.6660   -4.9950   21.6850 N.ar  329  HIS329     -0.2268
    114  CD2       -2.2990   -5.0810   23.7850 C.ar  329  HIS329      0.1154
    115  CE1       -1.0180   -6.0010   22.2720 C.ar  329  HIS329      0.1986
    116  NE2       -1.3980   -6.0590   23.5390 N.ar  329  HIS329     -0.2212
    117  N         -0.1770   -1.7600   22.9830 N.am  330  ASP330     -0.1974
    118  CA         0.8730   -1.4330   23.9660 C.3   330  ASP330      0.1709
    119  C          1.6230   -0.1960   23.6630 C.2   330  ASP330      0.2293
    120  O          2.6220    0.0870   24.4150 O.2   330  ASP330     -0.2864
    121  CB         1.9230   -2.6000   23.9950 C.3   330  ASP330      0.1436
    122  CG         1.3520   -3.9130   24.4930 C.2   330  ASP330      0.3671
    123  OD1        0.4270   -3.9070   25.3120 O.co2 330  ASP330     -0.2456
    124  OD2        1.7820   -5.0150   24.0590 O.co2 330  ASP330     -0.2456
    125  N         -0.0790    2.9870   27.6360 N.3   416  ARG416     -0.1245
    126  CA        -0.7280    2.0500   26.7300 C.3   416  ARG416      0.1563
    127  C         -2.1440    2.4230   26.4460 C.2   416  ARG416      0.2260
    128  O         -2.6920    2.1040   25.3900 O.2   416  ARG416     -0.2867
    129  CB        -0.6070    0.5700   27.2100 C.3   416  ARG416      0.0307
    130  CG         0.8210    0.1380   27.4880 C.3   416  ARG416      0.0489
    131  CD         0.9370   -1.3670   27.6680 C.3   416  ARG416      0.2205
    132  NE         0.2950   -1.8570   28.9180 N.pl3 416  ARG416     -0.0865
    133  CZ         0.1580   -3.1260   29.2190 C.cat 416  ARG416      0.5346
    134  NH1       -0.3830   -3.4780   30.3520 N.pl3 416  ARG416      0.1354
    135  NH2        0.7360   -4.0420   28.4310 N.pl3 416  ARG416      0.1354
    136  N         -6.0540    2.4820   23.6900 N.3   420  ARG420     -0.1245
    137  CA        -7.1550    1.6520   24.1890 C.3   420  ARG420      0.1563
    138  C         -8.4410    2.4480   24.3590 C.2   420  ARG420      0.2260
    139  O         -9.4400    1.8190   24.5920 O.2   420  ARG420     -0.2867
    140  CB        -6.7880    0.9760   25.4620 C.3   420  ARG420      0.0307
    141  CG        -5.4840    0.1380   25.3210 C.3   420  ARG420      0.0489
    142  CD        -5.1060   -0.4780   26.6380 C.3   420  ARG420      0.2205
    143  NE        -3.9070   -1.2890   26.4380 N.pl3 420  ARG420     -0.0865
    144  CZ        -3.4630   -2.1730   27.2900 C.cat 420  ARG420      0.5346
    145  NH1       -4.0580   -2.3810   28.4430 N.pl3 420  ARG420      0.1354
    146  NH2       -2.3960   -2.9290   26.9040 N.pl3 420  ARG420      0.1354
@<TRIPOS>BOND
     1    62    63    1
     2    63    66    1
     3    63    64    1
     4    66    67    1
     5    67    68    1
     6    64    65    2
     7    87    88    1
     8    68    69    1
     9    96    97    1
    10    98    97    1
    11    98    99    2
    12    69    70    2
    13    88    89    1
    14    88    91    1
    15    97   100    1
    16   107   108    1
    17    89    90    2
    18    91    92    1
    19    70    72    1
    20    70    71    1
    21   113   115   ar
    22   113   112   ar
    23   100   101    1
    24    92    93    1
    25   102   101   ar
    26   102   104   ar
    27   108   111    1
    28   108   109    1
    29   101   103   ar
    30    73    74    1
    31   115   116   ar
    32   111   112    1
    33   104   106   ar
    34   112   114   ar
    35   103   105   ar
    36   106   105   ar
    37    20    19    1
    38   117   109   am
    39   117   118    1
    40    93    95   ar
    41    93    94   ar
    42   109   110    2
    43    74    75    1
    44    74    77    1
    45   116   114   ar
    46   119   118    1
    47   119   120    2
    48   136   137    1
    49    75    81   am
    50    75    76    2
    51   118   121    1
    52   121   122    1
    53   124   122   ar
    54   137   138    1
    55   137   140    1
    56    77    78    1
    57    81    82    1
    58    19    17   ar
    59    19    18   ar
    60   138   139    2
    61   122   123   ar
    62    17    15   ar
    63    83    82    1
    64    83    84    2
    65    79    78   ar
    66    82    85    1
    67    18    16   ar
    68    78    80   ar
    69   141   140    1
    70   141   142    1
    71   128   127    2
    72    15    14   ar
    73   143   142    1
    74   143   144    2
    75   127   126    1
    76    85    86    1
    77    16    14   ar
    78   126   129    1
    79   126   125    1
    80   146   144    1
    81    14    13    1
    82   129   130    1
    83   144   145    1
    84   130   131    1
    85   131   132    1
    86    13    10    1
    87   135   133    1
    88    10     9    1
    89    10    11    1
    90   132   133    2
    91   133   134    1
    92     4     3    2
    93    52    51   ar
    94    52    50   ar
    95    29    30   ar
    96    29    27   ar
    97    11    12    2
    98    30    28   ar
    99    51    49   ar
   100    50    48   ar
   101    21    22    1
   102    24    23    2
   103    27    26   ar
   104     8     6   ar
   105     7     6   ar
   106     3     2    1
   107     6     5    1
   108    28    26   ar
   109    49    47   ar
   110    26    25    1
   111    48    47   ar
   112    23    22    1
   113    22    25    1
   114    41    39   ar
   115    41    40   ar
   116    47    46    1
   117     5     2    1
   118    61    59   am
   119    39    37   ar
   120     2     1    1
   121    40    38   ar
   122    46    43    1
   123    37    36   ar
   124    59    60    2
   125    59    58    1
   126    58    57    1
   127    38    36   ar
   128    36    35    1
   129    43    42    1
   130    43    44    1
   131    57    54    1
   132    31    32    1
   133    56    55    2
   134    54    55    1
   135    54    53    1
   136    35    32    1
   137    32    33    1
   138    44    45    2
   139    33    34    2
