@<TRIPOS>MOLECULE
tmp/4mb2C00.pdb
 161 153 0 0 0
SMALL
GASTEIGER

@<TRIPOS>ATOM
      1  N         41.6930   20.0460   22.0540 N.3    24  ALA24      -0.1245
      2  CA        42.7000   19.7920   23.0660 C.3    24  ALA24       0.1562
      3  C         43.6060   21.0090   23.3250 C.2    24  ALA24       0.2260
      4  O         44.0100   21.2770   24.4630 O.2    24  ALA24      -0.2867
      5  CB        43.5290   18.5800   22.6590 C.3    24  ALA24       0.0290
      6  N         42.1360   23.1930   25.9130 N.3    27  ILE27      -0.1231
      7  CA        42.2900   22.5790   27.2270 C.3    27  ILE27       0.1692
      8  C         43.7040   22.8370   27.7420 C.2    27  ILE27       0.2592
      9  O         43.8830   23.4270   28.8200 O.2    27  ILE27      -0.2718
     10  CB        41.9870   21.0610   27.1800 C.3    27  ILE27       0.0266
     11  CG1       40.4740   20.8450   27.0790 C.3    27  ILE27       0.0019
     12  CG2       42.5520   20.3380   28.4040 C.3    27  ILE27       0.0020
     13  CD1       40.0890   19.5770   26.3450 C.3    27  ILE27       0.0001
     14  N         44.6920   22.5120   26.9110 N.am   28  ALA28      -0.1966
     15  CA        46.0830   22.8200   27.2260 C.3    28  ALA28       0.1728
     16  C         46.2450   24.2890   27.5920 C.2    28  ALA28       0.2616
     17  O         47.0420   24.6180   28.4760 O.2    28  ALA28      -0.2715
     18  CB        47.0010   22.4540   26.0660 C.3    28  ALA28       0.0334
     19  N         45.5340   25.1730   26.8960 N.am   29  HIS29      -0.1973
     20  CA        45.6530   26.6000   27.1680 C.3    29  HIS29       0.1656
     21  C         45.1950   26.8640   28.5890 C.2    29  HIS29       0.2291
     22  O         45.8320   27.6150   29.3280 O.2    29  HIS29      -0.2864
     23  CB        44.8380   27.4650   26.1770 C.3    29  HIS29       0.0771
     24  CG        45.0070   28.9450   26.3860 C.ar   29  HIS29       0.0820
     25  ND1       46.0410   29.6680   25.8220 N.ar   29  HIS29      -0.2267
     26  CD2       44.2790   29.8370   27.1000 C.ar   29  HIS29       0.1154
     27  CE1       45.9410   30.9370   26.1830 C.ar   29  HIS29       0.1986
     28  NE2       44.9040   31.0580   26.9910 N.ar   29  HIS29      -0.2212
     29  N         45.1340   24.5430   31.1650 N.3    31  ARG31      -0.1231
     30  CA        46.2240   24.0060   31.9790 C.3    31  ARG31       0.1694
     31  C         47.3010   25.0840   32.1810 C.2    31  ARG31       0.2592
     32  O         47.7330   25.3460   33.2990 O.2    31  ARG31      -0.2718
     33  CB        46.8530   22.7850   31.3030 C.3    31  ARG31       0.0321
     34  CG        45.9940   21.5300   31.2600 C.3    31  ARG31       0.0489
     35  CD        46.8450   20.2630   31.1140 C.3    31  ARG31       0.2205
     36  NE        47.8630   20.1300   32.1680 N.pl3  31  ARG31      -0.0865
     37  CZ        47.8450   19.2220   33.1500 C.cat  31  ARG31       0.5346
     38  NH1       46.8790   18.3150   33.2200 N.pl3  31  ARG31       0.1354
     39  NH2       48.8070   19.2120   34.0690 N.pl3  31  ARG31       0.1354
     40  N         47.7410   25.6870   31.0820 N.am   32  GLY32      -0.1957
     41  CA        48.7430   26.7280   31.1290 C.3    32  GLY32       0.1869
     42  C         48.3670   27.8590   32.0620 C.2    32  GLY32       0.2309
     43  O         49.2000   28.3780   32.8020 O.2    32  GLY32      -0.2863
     44  N         48.8780   27.0950   35.9270 N.3    35  PHE35      -0.1241
     45  CA        50.2570   27.2300   36.3330 C.3    35  PHE35       0.1605
     46  C         50.6960   28.6870   36.3410 C.2    35  PHE35       0.2264
     47  O         51.4600   29.0960   37.2050 O.2    35  PHE35      -0.2867
     48  CB        51.1470   26.3890   35.4220 C.3    35  PHE35       0.0534
     49  CG        51.2030   24.9420   35.8120 C.ar   35  PHE35      -0.0203
     50  CD1       51.9850   24.5290   36.8900 C.ar   35  PHE35      -0.0042
     51  CD2       50.4240   23.9990   35.1520 C.ar   35  PHE35      -0.0042
     52  CE1       51.9720   23.1990   37.3060 C.ar   35  PHE35      -0.0003
     53  CE2       50.3920   22.6770   35.5820 C.ar   35  PHE35      -0.0003
     54  CZ        51.1880   22.2700   36.6440 C.ar   35  PHE35      -0.0000
     55  N         48.7790   26.1310   18.9730 N.3    71  ASN71      -0.1240
     56  CA        48.6300   27.0820   20.0730 C.3    71  ASN71       0.1653
     57  C         49.5320   28.3020   19.8830 C.2    71  ASN71       0.2266
     58  O         49.0720   29.4450   19.9840 O.2    71  ASN71      -0.2867
     59  CB        48.9150   26.4160   21.4190 C.3    71  ASN71       0.1155
     60  CG        47.7590   25.5780   21.9000 C.2    71  ASN71       0.2627
     61  OD1       47.2300   24.7610   21.1540 O.2    71  ASN71      -0.2716
     62  ND2       47.2970   25.8370   23.1200 N.am   71  ASN71      -0.0877
     63  N         48.4330   32.4040   19.2040 N.3    75  LEU75      -0.1245
     64  CA        48.7480   33.3410   20.2720 C.3    75  LEU75       0.1561
     65  C         49.7630   34.3820   19.8180 C.2    75  LEU75       0.2260
     66  O         49.6090   35.5780   20.0990 O.2    75  LEU75      -0.2867
     67  CB        49.2930   32.5900   21.4870 C.3    75  LEU75       0.0270
     68  CG        48.2830   31.6810   22.1810 C.3    75  LEU75       0.0019
     69  CD1       49.0080   30.8670   23.2280 C.3    75  LEU75       0.0001
     70  CD2       47.1640   32.4920   22.8200 C.3    75  LEU75       0.0001
     71  N         55.6090   24.5500   24.4070 N.3   148  LEU148     -0.1231
     72  CA        54.3770   23.7990   24.6570 C.3   148  LEU148      0.1693
     73  C         54.4370   22.4480   23.9920 C.2   148  LEU148      0.2592
     74  O         53.5380   22.0880   23.2450 O.2   148  LEU148     -0.2718
     75  CB        53.1540   24.5510   24.1210 C.3   148  LEU148      0.0284
     76  CG        52.8440   25.8550   24.8480 C.3   148  LEU148      0.0019
     77  CD1       54.0590   26.7640   24.8680 C.3   148  LEU148      0.0001
     78  CD2       51.6650   26.5550   24.2030 C.3   148  LEU148      0.0001
     79  N         55.5210   21.7180   24.2320 N.am  149  GLU149     -0.1966
     80  CA        55.8040   20.5090   23.4810 C.3   149  GLU149      0.1733
     81  C         55.4420   19.2710   24.3050 C.2   149  GLU149      0.2616
     82  O         55.6100   19.2520   25.5200 O.2   149  GLU149     -0.2715
     83  CB        57.2850   20.4740   23.0780 C.3   149  GLU149      0.0429
     84  CG        57.6510   19.3790   22.0810 C.3   149  GLU149      0.1163
     85  CD        56.7270   19.3600   20.8770 C.2   149  GLU149      0.3649
     86  OE1       56.8240   20.2730   20.0260 O.co2 149  GLU149     -0.2457
     87  OE2       55.8640   18.4620   20.8100 O.co2 149  GLU149     -0.2457
     88  N         54.9000   18.2640   23.6290 N.am  150  ASP150     -0.1957
     89  CA        54.7780   16.9130   24.1740 C.3   150  ASP150      0.1840
     90  C         56.1250   16.3990   24.6650 C.2   150  ASP150      0.2622
     91  O         57.1110   16.3720   23.9200 O.2   150  ASP150     -0.2715
     92  CB        54.2190   15.9540   23.1040 C.3   150  ASP150      0.1450
     93  CG        54.2420   14.4940   23.5450 C.2   150  ASP150      0.3671
     94  OD1       53.2920   14.0800   24.2410 O.co2 150  ASP150     -0.2456
     95  OD2       55.1810   13.7490   23.1680 O.co2 150  ASP150     -0.2456
     96  N         56.1200   15.8730   25.8810 N.am  151  GLY151     -0.1954
     97  CA        57.3470   15.5720   26.5930 C.3   151  GLY151      0.1869
     98  C         58.0800   14.4200   25.9490 C.2   151  GLY151      0.2309
     99  O         59.2730   14.2210   26.1830 O.2   151  GLY151     -0.2863
    100  N         59.6350   26.2780   26.1870 N.3   167  ILE167     -0.1231
    101  CA        58.8800   27.1890   27.0010 C.3   167  ILE167      0.1692
    102  C         57.6730   26.4350   27.5360 C.2   167  ILE167      0.2592
    103  O         56.9390   25.8230   26.7740 O.2   167  ILE167     -0.2718
    104  CB        58.3570   28.3630   26.1640 C.3   167  ILE167      0.0266
    105  CG1       59.4850   29.3030   25.7690 C.3   167  ILE167      0.0019
    106  CG2       57.3420   29.1440   26.9730 C.3   167  ILE167      0.0020
    107  CD1       60.1320   29.0010   24.4520 C.3   167  ILE167      0.0001
    108  N         57.4700   26.4640   28.8470 N.am  168  ASP168     -0.1960
    109  CA        56.4100   25.6700   29.4480 C.3   168  ASP168      0.1840
    110  C         56.0360   26.1810   30.8110 C.2   168  ASP168      0.2622
    111  O         56.8800   26.2850   31.6950 O.2   168  ASP168     -0.2715
    112  CB        56.8040   24.1940   29.5370 C.3   168  ASP168      0.1450
    113  CG        55.5970   23.2840   29.7090 C.2   168  ASP168      0.3671
    114  OD1       54.5050   23.8010   30.0160 O.co2 168  ASP168     -0.2456
    115  OD2       55.7360   22.0630   29.5410 O.co2 168  ASP168     -0.2456
    116  N         54.7570   26.4890   30.9980 N.am  169  LEU169     -0.1963
    117  CA        54.3370   27.0780   32.2440 C.3   169  LEU169      0.1728
    118  C         54.3020   26.0770   33.3710 C.2   169  LEU169      0.2616
    119  O         54.2340   26.4770   34.5180 O.2   169  LEU169     -0.2715
    120  CB        52.9810   27.7450   32.1140 C.3   169  LEU169      0.0311
    121  CG        53.1160   29.2020   31.7460 C.3   169  LEU169      0.0022
    122  CD1       51.7910   29.7410   31.2500 C.3   169  LEU169      0.0001
    123  CD2       53.6410   30.0040   32.9130 C.3   169  LEU169      0.0001
    124  N         54.4290   24.7920   33.0530 N.am  170  ASN170     -0.1972
    125  CA        54.4500   23.7480   34.0690 C.3   170  ASN170      0.1688
    126  C         55.8510   23.2040   34.2620 C.2   170  ASN170      0.2292
    127  O         56.3730   22.5030   33.3990 O.2   170  ASN170     -0.2864
    128  CB        53.4720   22.6170   33.7050 C.3   170  ASN170      0.1181
    129  CG        53.6330   21.3720   34.5820 C.2   170  ASN170      0.2629
    130  OD1       54.2720   21.3900   35.6430 O.2   170  ASN170     -0.2716
    131  ND2       53.1470   20.2540   34.0660 N.am  170  ASN170     -0.0877
    132  N         56.3230   19.1720   34.1420 N.3   173  SER173     -0.1217
    133  CA        56.0120   18.4010   32.9430 C.3   173  SER173      0.1889
    134  C         57.2330   17.6940   32.3920 C.2   173  SER173      0.2288
    135  O         58.3620   18.0150   32.7400 O.2   173  SER173     -0.2866
    136  CB        55.3910   19.2920   31.8700 C.3   173  SER173      0.2089
    137  OG        56.3720   20.1260   31.2870 O.3   173  SER173     -0.2183
    138  N         57.6720   30.3790   31.6330 N.3   185  ASP185     -0.1225
    139  CA        56.9440   31.6200   31.4850 C.3   185  ASP185      0.1805
    140  C         55.8150   31.3620   30.4790 C.2   185  ASP185      0.2598
    141  O         55.8090   30.3470   29.7770 O.2   185  ASP185     -0.2718
    142  CB        57.8870   32.6640   30.9160 C.3   185  ASP185      0.1424
    143  CG        57.4460   34.0690   31.2040 C.2   185  ASP185      0.3668
    144  OD1       56.3840   34.2350   31.8250 O.co2 185  ASP185     -0.2456
    145  OD2       58.1600   35.0100   30.7820 O.co2 185  ASP185     -0.2456
    146  N         54.8580   32.2660   30.4190 N.am  186  ASN186     -0.1960
    147  CA        53.8250   32.1880   29.4170 C.3   186  ASN186      0.1819
    148  C         54.4210   32.5610   28.0760 C.2   186  ASN186      0.2621
    149  O         55.2230   33.4780   28.0100 O.2   186  ASN186     -0.2715
    150  CB        52.7200   33.1810   29.7470 C.3   186  ASN186      0.1195
    151  CG        51.4290   32.8680   29.0260 C.2   186  ASN186      0.2630
    152  OD1       51.4060   32.5970   27.8180 O.2   186  ASN186     -0.2716
    153  ND2       50.3460   32.9150   29.7620 N.am  186  ASN186     -0.0877
    154  N         54.0350   31.8530   27.0160 N.am  187  ILE187     -0.1977
    155  CA        54.6400   32.0550   25.7090 C.3   187  ILE187      0.1596
    156  C         54.4410   33.4890   25.2500 C.2   187  ILE187      0.2287
    157  O         55.3530   34.0910   24.7080 O.2   187  ILE187     -0.2864
    158  CB        54.0660   31.0880   24.6530 C.3   187  ILE187      0.0276
    159  CG1       54.8600   31.1780   23.3490 C.3   187  ILE187      0.0022
    160  CG2       52.6120   31.4000   24.3650 C.3   187  ILE187      0.0022
    161  CD1       56.0830   30.2890   23.3030 C.3   187  ILE187      0.0001
@<TRIPOS>BOND
     1    55    56    1
     2    63    64    1
     3    65    66    2
     4    65    64    1
     5    57    58    2
     6    57    56    1
     7    86    85   ar
     8    56    59    1
     9    64    67    1
    10    87    85   ar
    11    85    84    1
    12    61    60    2
    13    59    60    1
    14    67    68    1
    15    60    62   am
    16     1     2    1
    17    84    83    1
    18    68    70    1
    19    68    69    1
    20     5     2    1
    21     2     3    1
    22    83    80    1
    23    92    93    1
    24    92    89    1
    25    95    93   ar
    26    74    73    2
    27   161   159    1
    28     3     4    2
    29   159   158    1
    30    80    79    1
    31    80    81    1
    32    93    94   ar
    33    88    89    1
    34    88    81   am
    35    91    90    2
    36    73    79   am
    37    73    72    1
    38    75    72    1
    39    75    76    1
    40    89    90    1
    41    78    76    1
    42    81    82    2
    43   160   158    1
    44    71    72    1
    45   107   105    1
    46   158   155    1
    47    90    96   am
    48   157   156    2
    49    76    77    1
    50   156   155    1
    51   155   154    1
    52   105   104    1
    53    25    27   ar
    54    25    24   ar
    55    96    97    1
    56     6     7    1
    57    98    99    2
    58    98    97    1
    59    18    15    1
    60   104   106    1
    61   104   101    1
    62    23    24    1
    63    23    20    1
    64    27    28   ar
    65   100   101    1
    66    13    11    1
    67    24    26   ar
    68   103   102    2
    69    19    20    1
    70    19    16   am
    71    14    15    1
    72    14     8   am
    73    28    26   ar
    74   101   102    1
    75   154   148   am
    76    11    10    1
    77    20    21    1
    78    10     7    1
    79    10    12    1
    80    15    16    1
    81     7     8    1
    82   102   108   am
    83    16    17    2
    84     8     9    2
    85   152   151    2
    86   149   148    2
    87   148   147    1
    88    21    22    2
    89   108   109    1
    90   151   150    1
    91   151   153   am
    92   147   150    1
    93   147   146    1
    94   109   112    1
    95   109   110    1
    96   112   113    1
    97   115   113   ar
    98   113   114   ar
    99   141   140    2
   100   146   140   am
   101   140   139    1
   102   145   143   ar
   103   110   116   am
   104   110   111    2
   105   142   143    1
   106   142   139    1
   107   116   117    1
   108    40    41    1
   109    40    31   am
   110    35    34    1
   111    35    36    1
   112    41    42    1
   113    29    30    1
   114   143   144   ar
   115   122   121    1
   116    34    33    1
   117   137   136    1
   118    33    30    1
   119   139   138    1
   120   121   120    1
   121   121   123    1
   122   136   133    1
   123    30    31    1
   124    42    43    2
   125   120   117    1
   126    36    37    2
   127    31    32    2
   128   117   118    1
   129   134   135    2
   130   134   133    1
   131   133   132    1
   132   124   118   am
   133   124   125    1
   134    37    38    1
   135    37    39    1
   136   118   119    2
   137   127   126    2
   138   128   125    1
   139   128   129    1
   140   131   129   am
   141   125   126    1
   142   129   130    2
   143    51    53   ar
   144    51    49   ar
   145    48    49    1
   146    48    45    1
   147    53    54   ar
   148    49    50   ar
   149    44    45    1
   150    45    46    1
   151    46    47    2
   152    54    52   ar
   153    50    52   ar
