@<TRIPOS>MOLECULE
tmp/4mb4A00.pdb
 232 225 0 0 0
SMALL
GASTEIGER

@<TRIPOS>ATOM
      1  N          5.3380   31.1270   19.4490 N.3    14  TYR14      -0.1241
      2  CA         4.1050   31.9020   19.3990 C.3    14  TYR14       0.1605
      3  C          4.3540   33.2300   18.6730 C.2    14  TYR14       0.2264
      4  O          5.4300   33.8030   18.7390 O.2    14  TYR14      -0.2867
      5  CB         3.5980   32.2010   20.8490 C.3    14  TYR14       0.0534
      6  CG         3.0010   30.9570   21.5020 C.ar   14  TYR14      -0.0201
      7  CD1        1.6520   30.7070   21.5080 C.ar   14  TYR14      -0.0009
      8  CD2        3.8190   30.0060   22.0520 C.ar   14  TYR14      -0.0009
      9  CE1        1.1230   29.5450   22.1210 C.ar   14  TYR14       0.0417
     10  CE2        3.3410   28.8540   22.6530 C.ar   14  TYR14       0.0417
     11  CZ         1.9910   28.6070   22.6520 C.ar   14  TYR14       0.1957
     12  OH         1.4810   27.4550   23.2010 O.3    14  TYR14      -0.2866
     13  N          2.6780   37.0830   18.2310 N.3    16  HIS16      -0.1241
     14  CA         1.7930   38.0420   18.8580 C.3    16  HIS16       0.1621
     15  C          0.8520   38.7190   17.8200 C.2    16  HIS16       0.2264
     16  O          1.3110   39.3730   16.8980 O.2    16  HIS16      -0.2867
     17  CB         2.5650   39.1890   19.4800 C.3    16  HIS16       0.0745
     18  CG         3.5580   38.8490   20.5250 C.ar   16  HIS16       0.0817
     19  ND1        4.3200   39.8200   21.1380 N.ar   16  HIS16      -0.2268
     20  CD2        3.9570   37.6670   21.0540 C.ar   16  HIS16       0.1154
     21  CE1        5.0970   39.2510   22.0560 C.ar   16  HIS16       0.1986
     22  NE2        4.9320   37.9400   21.9810 N.ar   16  HIS16      -0.2212
     23  N         -0.3560   41.4870   18.0740 N.3    18  TRP18      -0.1241
     24  CA        -0.3080   42.8820   18.5420 C.3    18  TRP18       0.1605
     25  C          1.1180   43.4130   18.3880 C.2    18  TRP18       0.2264
     26  O          2.0430   42.5890   18.1550 O.2    18  TRP18      -0.2867
     27  CB        -0.7760   42.9870   20.0120 C.3    18  TRP18       0.0550
     28  CG         0.0830   42.2140   20.9940 C.ar   18  TRP18       0.0003
     29  CD1        1.2650   42.6440   21.5820 C.ar   18  TRP18       0.0946
     30  CD2       -0.1310   40.8850   21.4620 C.ar   18  TRP18       0.0152
     31  NE1        1.7590   41.6660   22.4060 N.ar   18  TRP18      -0.2442
     32  CE2        0.9220   40.5690   22.3360 C.ar   18  TRP18       0.0810
     33  CE3       -1.1480   39.9840   21.2750 C.ar   18  TRP18       0.0012
     34  CZ2        0.9860   39.3400   22.9760 C.ar   18  TRP18       0.0191
     35  CZ3       -1.0730   38.7450   21.8510 C.ar   18  TRP18       0.0001
     36  CH2       -0.0150   38.4320   22.7020 C.ar   18  TRP18       0.0015
     37  N          4.7960   44.9660   22.4590 N.3    21  GLY21      -0.1210
     38  CA         4.5320   44.4390   23.7760 C.3    21  GLY21       0.1956
     39  C          5.6570   44.7610   24.7340 C.2    21  GLY21       0.2611
     40  O          6.8330   44.7690   24.3500 O.2    21  GLY21      -0.2717
     41  N          5.3070   45.1400   25.9690 N.am   22  ARG22      -0.1979
     42  CA         6.3400   45.4580   26.9520 C.3    22  ARG22       0.1597
     43  C          6.9250   44.2150   27.6380 C.2    22  ARG22       0.2287
     44  O          6.2060   43.3150   28.0000 O.2    22  ARG22      -0.2864
     45  CB         5.7390   46.3670   28.0400 C.3    22  ARG22       0.0334
     46  CG         6.7600   46.9980   28.9610 C.3    22  ARG22       0.0492
     47  CD         6.2540   48.3080   29.5420 C.3    22  ARG22       0.2205
     48  NE         7.3520   49.2180   29.8590 N.pl3  22  ARG22      -0.0865
     49  CZ         8.0470   49.1950   30.9920 C.cat  22  ARG22       0.5346
     50  NH1        7.7660   48.3050   31.9350 N.pl3  22  ARG22       0.1354
     51  NH2        9.0290   50.0660   31.1820 N.pl3  22  ARG22       0.1354
     52  N          9.2830   41.9810   30.5010 N.3    24  TYR24      -0.1241
     53  CA         9.4360   41.9420   31.9460 C.3    24  TYR24       0.1605
     54  C         10.6710   42.6970   32.4390 C.2    24  TYR24       0.2264
     55  O         10.7550   42.9650   33.6570 O.2    24  TYR24      -0.2867
     56  CB         9.5270   40.4790   32.4040 C.3    24  TYR24       0.0534
     57  CG         8.1790   39.7880   32.4410 C.ar   24  TYR24      -0.0201
     58  CD1        7.3950   39.8250   33.5790 C.ar   24  TYR24      -0.0009
     59  CD2        7.6830   39.1160   31.3230 C.ar   24  TYR24      -0.0009
     60  CE1        6.1990   39.1930   33.6570 C.ar   24  TYR24       0.0417
     61  CE2        6.4900   38.5010   31.3820 C.ar   24  TYR24       0.0417
     62  CZ         5.7170   38.5620   32.5500 C.ar   24  TYR24       0.1957
     63  OH         4.4910   37.9380   32.5750 O.3    24  TYR24      -0.2866
     64  N         -4.0220   35.6290   20.0130 N.3    48  PHE48      -0.1241
     65  CA        -4.8200   34.5260   20.5070 C.3    48  PHE48       0.1605
     66  C         -6.2540   34.6190   20.0130 C.2    48  PHE48       0.2264
     67  O         -6.7660   35.6820   19.7520 O.2    48  PHE48      -0.2867
     68  CB        -4.9190   34.5460   22.0560 C.3    48  PHE48       0.0534
     69  CG        -3.6170   34.2900   22.7320 C.ar   48  PHE48      -0.0203
     70  CD1       -3.1660   33.0030   22.8950 C.ar   48  PHE48      -0.0042
     71  CD2       -2.9060   35.3270   23.2640 C.ar   48  PHE48      -0.0042
     72  CE1       -1.9690   32.7630   23.5210 C.ar   48  PHE48      -0.0003
     73  CE2       -1.6940   35.1030   23.9660 C.ar   48  PHE48      -0.0003
     74  CZ        -1.2510   33.7850   24.0920 C.ar   48  PHE48      -0.0000
     75  N         -9.9580   34.2610   21.4300 N.3    50  LYS50      -0.1245
     76  CA       -10.4400   34.6230   22.7630 C.3    50  LYS50       0.1561
     77  C        -11.8000   35.3220   22.5730 C.2    50  LYS50       0.2260
     78  O        -12.2630   35.5060   21.4370 O.2    50  LYS50      -0.2867
     79  CB        -9.4270   35.5360   23.4440 C.3    50  LYS50       0.0271
     80  CG        -9.3170   36.9050   22.8240 C.3    50  LYS50       0.0035
     81  CD        -8.3510   37.7720   23.6270 C.3    50  LYS50       0.0206
     82  CE        -8.2710   39.1770   23.0150 C.3    50  LYS50       0.1093
     83  NZ        -7.5060   40.0850   23.8920 N.3    50  LYS50      -0.1314
     84  N         -6.9500   31.2330   24.1240 N.3    94  GLY94      -0.1210
     85  CA        -6.7690   31.7530   25.4900 C.3    94  GLY94       0.1956
     86  C         -5.7030   32.8390   25.6080 C.2    94  GLY94       0.2612
     87  O         -5.8380   33.9380   25.0820 O.2    94  GLY94      -0.2717
     88  N         -4.5930   32.4960   26.2860 N.am   95  GLY95      -0.1942
     89  CA        -3.5340   33.4260   26.6050 C.3    95  GLY95       0.2014
     90  C         -3.7820   34.0420   27.9810 C.2    95  GLY95       0.2639
     91  O         -4.8380   33.8870   28.5760 O.2    95  GLY95      -0.2714
     92  N         -2.8020   34.8050   28.4400 N.am   96  ALA96      -0.1963
     93  CA        -2.9480   35.5180   29.7060 C.3    96  ALA96       0.1728
     94  C         -4.1090   36.4880   29.6720 C.2    96  ALA96       0.2616
     95  O         -4.2450   37.2700   28.7600 O.2    96  ALA96      -0.2715
     96  CB        -1.6950   36.2620   30.0310 C.3    96  ALA96       0.0334
     97  N         -4.8730   36.5110   30.7550 N.am   97  ASP97      -0.1971
     98  CA        -5.9460   37.4900   30.9460 C.3    97  ASP97       0.1709
     99  C         -7.0790   37.3890   29.9700 C.2    97  ASP97       0.2293
    100  O         -7.9480   38.2110   29.9280 O.2    97  ASP97      -0.2864
    101  CB        -5.3680   38.8800   31.2250 C.3    97  ASP97       0.1436
    102  CG        -4.5560   38.8480   32.5280 C.2    97  ASP97       0.3671
    103  OD1       -5.1630   38.6390   33.6220 O.co2  97  ASP97      -0.2456
    104  OD2       -3.3020   38.8960   32.4730 O.co2  97  ASP97      -0.2456
    105  N         -4.3610   27.1220   25.2820 N.3   129  ASP129     -0.1239
    106  CA        -3.5550   27.9140   26.1980 C.3   129  ASP129      0.1674
    107  C         -4.4790   28.6680   27.1870 C.2   129  ASP129      0.2266
    108  O         -4.4260   29.8730   27.3740 O.2   129  ASP129     -0.2867
    109  CB        -2.6530   28.9270   25.4810 C.3   129  ASP129      0.1410
    110  CG        -1.8410   29.7510   26.4740 C.2   129  ASP129      0.3668
    111  OD1       -1.5840   29.1990   27.6140 O.co2 129  ASP129     -0.2456
    112  OD2       -1.3920   30.8780   26.1130 O.co2 129  ASP129     -0.2456
    113  N         -5.5930   29.8210   30.7840 N.3   131  GLN131     -0.1245
    114  CA        -4.8550   30.1680   31.9990 C.3   131  GLN131      0.1566
    115  C         -5.8510   30.7140   33.0200 C.2   131  GLN131      0.2260
    116  O         -6.9680   31.0930   32.7110 O.2   131  GLN131     -0.2867
    117  CB        -3.7590   31.2010   31.6880 C.3   131  GLN131      0.0367
    118  CG        -2.8250   30.7200   30.5860 C.3   131  GLN131      0.0905
    119  CD        -1.5890   31.5040   30.2800 C.2   131  GLN131      0.2608
    120  OE1       -0.8210   31.1120   29.3910 O.2   131  GLN131     -0.2717
    121  NE2       -1.3750   32.6310   30.9610 N.am  131  GLN131     -0.0878
    122  N         -0.7410   24.2230   26.0280 N.3   167  ALA167     -0.1245
    123  CA         0.3760   24.9170   26.6750 C.3   167  ALA167      0.1562
    124  C          0.0520   25.1290   28.1900 C.2   167  ALA167      0.2260
    125  O          0.1130   26.2400   28.7190 O.2   167  ALA167     -0.2867
    126  CB         0.5750   26.2380   26.0320 C.3   167  ALA167      0.0290
    127  N          0.5610   25.6180   32.0380 N.3   169  GLU169     -0.1245
    128  CA         1.6090   25.8770   32.9780 C.3   169  GLU169      0.1567
    129  C          1.8840   24.5960   33.7550 C.2   169  GLU169      0.2260
    130  O          0.9420   23.9060   34.1540 O.2   169  GLU169     -0.2867
    131  CB         1.2380   27.0400   33.8970 C.3   169  GLU169      0.0388
    132  CG         1.0780   28.3130   33.1320 C.3   169  GLU169      0.1160
    133  CD         0.2440   29.3310   33.8750 C.2   169  GLU169      0.3649
    134  OE1        0.8150   29.9610   34.7990 O.co2 169  GLU169     -0.2457
    135  OE2       -0.9600   29.4750   33.5440 O.co2 169  GLU169     -0.2457
    136  N          4.3440   25.1510   29.7740 N.3   196  GLN196     -0.1245
    137  CA         5.1470   26.3390   30.0600 C.3   196  GLN196      0.1566
    138  C          5.9890   26.0530   31.3010 C.2   196  GLN196      0.2260
    139  O          5.4310   25.8650   32.4200 O.2   196  GLN196     -0.2867
    140  CB         4.2270   27.5580   30.2950 C.3   196  GLN196      0.0367
    141  CG         3.3270   27.8190   29.1190 C.3   196  GLN196      0.0905
    142  CD         2.4770   29.0260   29.3410 C.2   196  GLN196      0.2608
    143  OE1        2.9770   30.0790   29.7820 O.2   196  GLN196     -0.2717
    144  NE2        1.1730   28.8600   29.1530 N.am  196  GLN196     -0.0878
    145  N          7.9160   28.2540   32.7540 N.3   198  TYR198     -0.1227
    146  CA         8.2820   29.6540   33.0360 C.3   198  TYR198      0.1736
    147  C          7.1510   30.3850   33.7330 C.2   198  TYR198      0.2595
    148  O          6.0500   29.8690   33.7480 O.2   198  TYR198     -0.2718
    149  CB         8.7200   30.3510   31.7310 C.3   198  TYR198      0.0548
    150  CG         7.7530   30.3000   30.5350 C.ar  198  TYR198     -0.0200
    151  CD1        6.7880   31.3120   30.3190 C.ar  198  TYR198     -0.0009
    152  CD2        7.8360   29.2370   29.6110 C.ar  198  TYR198     -0.0009
    153  CE1        5.9560   31.2820   29.2440 C.ar  198  TYR198      0.0417
    154  CE2        6.9860   29.2370   28.4920 C.ar  198  TYR198      0.0417
    155  CZ         6.0530   30.2210   28.3280 C.ar  198  TYR198      0.1957
    156  OH         5.1930   30.1340   27.2240 O.3   198  TYR198     -0.2866
    157  N          7.5040   31.5110   34.3850 N.am  199  ASN199     -0.1960
    158  CA         6.5460   32.3460   35.1550 C.3   199  ASN199      0.1819
    159  C          5.9950   31.6620   36.4280 C.2   199  ASN199      0.2621
    160  O          5.0150   32.1320   36.9810 O.2   199  ASN199     -0.2715
    161  CB         5.3990   32.8670   34.2770 C.3   199  ASN199      0.1195
    162  CG         5.8380   33.9630   33.3690 C.2   199  ASN199      0.2630
    163  OD1        6.6270   34.8560   33.7680 O.2   199  ASN199     -0.2716
    164  ND2        5.3230   33.9300   32.1210 N.am  199  ASN199     -0.0877
    165  N          6.6870   30.5950   36.9060 N.am  200  GLN200     -0.1977
    166  CA         6.2290   29.9420   38.1150 C.3   200  GLN200      0.1601
    167  C          7.1890   30.1040   39.2710 C.2   200  GLN200      0.2287
    168  O          7.0030   29.4980   40.3370 O.2   200  GLN200     -0.2864
    169  CB         6.0650   28.4640   37.8710 C.3   200  GLN200      0.0394
    170  CG         5.3160   28.1720   36.5820 C.3   200  GLN200      0.0908
    171  CD         3.9380   28.8300   36.5310 C.2   200  GLN200      0.2608
    172  OE1        3.1860   28.7990   37.4910 O.2   200  GLN200     -0.2717
    173  NE2        3.5580   29.3800   35.3270 N.am  200  GLN200     -0.0878
    174  N         13.1670   39.1580   28.8190 N.3   256  ASP256     -0.1225
    175  CA        12.0480   40.0460   28.6510 C.3   256  ASP256      0.1805
    176  C         10.7810   39.2880   28.4370 C.2   256  ASP256      0.2598
    177  O          9.6900   39.8120   28.6680 O.2   256  ASP256     -0.2718
    178  CB        12.2740   41.0350   27.5000 C.3   256  ASP256      0.1424
    179  CG        12.9250   42.3400   27.9750 C.2   256  ASP256      0.3668
    180  OD1       12.2660   42.9660   28.8440 O.co2 256  ASP256     -0.2456
    181  OD2       14.0830   42.6910   27.5140 O.co2 256  ASP256     -0.2456
    182  N         10.8830   38.0740   27.8890 N.am  257  ALA257     -0.1966
    183  CA         9.6800   37.3380   27.4840 C.3   257  ALA257      0.1728
    184  C          8.8650   36.7440   28.6370 C.2   257  ALA257      0.2616
    185  O          7.6770   36.4960   28.4800 O.2   257  ALA257     -0.2715
    186  CB        10.0650   36.2230   26.5000 C.3   257  ALA257      0.0334
    187  N          9.5110   36.5030   29.7740 N.am  258  ALA258     -0.1963
    188  CA         8.8200   35.9260   30.9570 C.3   258  ALA258      0.1728
    189  C          9.5920   36.4180   32.1880 C.2   258  ALA258      0.2616
    190  O         10.7620   36.7860   32.1020 O.2   258  ALA258     -0.2715
    191  CB         8.8090   34.3910   30.9600 C.3   258  ALA258      0.0334
    192  N          8.9250   36.4390   33.3250 N.am  259  ALA259     -0.1977
    193  CA         9.5680   36.8840   34.5630 C.3   259  ALA259      0.1597
    194  C         10.6990   35.9760   34.9500 C.2   259  ALA259      0.2287
    195  O         11.7460   36.4570   35.4350 O.2   259  ALA259     -0.2864
    196  CB         8.5720   36.9720   35.6700 C.3   259  ALA259      0.0319
    197  N          9.4070   24.6880   22.7410 N.3   287  MET287     -0.1245
    198  CA         8.4790   25.7280   22.4090 C.3   287  MET287      0.1570
    199  C          8.9570   27.0390   23.0700 C.2   287  MET287      0.2261
    200  O          9.6590   27.0110   24.0770 O.2   287  MET287     -0.2867
    201  CB         7.1030   25.3630   22.9400 C.3   287  MET287      0.0387
    202  CG         6.0810   26.4550   22.9410 C.3   287  MET287      0.0595
    203  SD         6.2210   27.6430   24.3640 S.3   287  MET287     -0.1393
    204  CE         4.9880   26.9420   25.4990 C.3   287  MET287      0.0692
    205  N          7.7240   31.2470   24.0650 N.3   289  TRP289     -0.1241
    206  CA         7.1300   32.5780   24.0470 C.3   289  TRP289      0.1605
    207  C          8.3660   33.4550   23.9090 C.2   289  TRP289      0.2264
    208  O          9.1320   33.6180   24.8670 O.2   289  TRP289     -0.2867
    209  CB         6.3680   32.8850   25.3590 C.3   289  TRP289      0.0550
    210  CG         5.6140   34.1400   25.2630 C.ar  289  TRP289      0.0003
    211  CD1        5.9770   35.3520   25.6920 C.ar  289  TRP289      0.0946
    212  CD2        4.3710   34.2860   24.6300 C.ar  289  TRP289      0.0152
    213  NE1        5.0460   36.2910   25.3380 N.ar  289  TRP289     -0.2442
    214  CE2        4.0300   35.6560   24.6740 C.ar  289  TRP289      0.0810
    215  CE3        3.5030   33.4010   24.0130 C.ar  289  TRP289      0.0012
    216  CZ2        2.8590   36.1300   24.1350 C.ar  289  TRP289      0.0191
    217  CZ3        2.3410   33.8950   23.4570 C.ar  289  TRP289      0.0001
    218  CH2        2.0390   35.2560   23.5090 C.ar  289  TRP289      0.0015
    219  N          9.5090   38.0540   20.7510 N.3   293  TRP293     -0.1241
    220  CA        10.5610   38.3390   21.7220 C.3   293  TRP293      0.1605
    221  C         11.9370   37.9400   21.1560 C.2   293  TRP293      0.2264
    222  O         12.9090   38.6540   21.3740 O.2   293  TRP293     -0.2867
    223  CB        10.2890   37.6700   23.0790 C.3   293  TRP293      0.0550
    224  CG         9.3480   38.5140   23.8820 C.ar  293  TRP293      0.0003
    225  CD1        8.1020   38.2220   24.2830 C.ar  293  TRP293      0.0946
    226  CD2        9.6220   39.8480   24.2800 C.ar  293  TRP293      0.0152
    227  NE1        7.5340   39.3410   24.9080 N.ar  293  TRP293     -0.2442
    228  CE2        8.4640   40.3470   24.8930 C.ar  293  TRP293      0.0810
    229  CE3       10.7290   40.6920   24.0940 C.ar  293  TRP293      0.0012
    230  CZ2        8.3860   41.6470   25.3770 C.ar  293  TRP293      0.0191
    231  CZ3       10.6340   42.0190   24.5530 C.ar  293  TRP293      0.0001
    232  CH2        9.4590   42.4540   25.2130 C.ar  293  TRP293      0.0015
@<TRIPOS>BOND
     1    16    15    2
     2    15    14    1
     3    23    24    1
     4    26    25    2
     5    13    14    1
     6    25    24    1
     7    24    27    1
     8     3     4    2
     9     3     2    1
    10    14    17    1
    11     2     1    1
    12     2     5    1
    13    17    18    1
    14    67    66    2
    15    27    28    1
    16    66    65    1
    17    64    65    1
    18    65    68    1
    19    18    20   ar
    20    18    19   ar
    21   219   220    1
    22     5     6    1
    23    28    30   ar
    24    28    29   ar
    25    20    22   ar
    26    19    21   ar
    27   221   222    2
    28   221   220    1
    29    33    30   ar
    30    33    35   ar
    31    75    76    1
    32    78    77    2
    33    30    32   ar
    34     6     7   ar
    35     6     8   ar
    36     7     9   ar
    37    29    31   ar
    38   220   223    1
    39    35    36   ar
    40    22    21   ar
    41     8    10   ar
    42    68    69    1
    43     9    11   ar
    44    32    31   ar
    45    32    34   ar
    46   198   197    1
    47   198   201    1
    48   198   199    1
    49    37    38    1
    50    77    76    1
    51    11    10   ar
    52    11    12    1
    53    36    34   ar
    54    69    70   ar
    55    69    71   ar
    56    76    79    1
    57    80    79    1
    58    80    81    1
    59    70    72   ar
    60   201   202    1
    61   202   203    1
    62    82    81    1
    63    82    83    1
    64   199   200    2
    65   223   224    1
    66    71    73   ar
    67   217   218   ar
    68   217   215   ar
    69   218   216   ar
    70    72    74   ar
    71    38    39    1
    72   224   226   ar
    73   224   225   ar
    74   207   206    1
    75   207   208    2
    76    73    74   ar
    77   215   212   ar
    78   206   205    1
    79   206   209    1
    80   229   226   ar
    81   229   231   ar
    82    84    85    1
    83   216   214   ar
    84   226   228   ar
    85   225   227   ar
    86    40    39    2
    87   203   204    1
    88   231   232   ar
    89   212   214   ar
    90   212   210   ar
    91   214   213   ar
    92    39    41   am
    93   228   227   ar
    94   228   230   ar
    95    87    86    2
    96   232   230   ar
    97   210   209    1
    98   210   211   ar
    99   105   106    1
   100   213   211   ar
   101   109   106    1
   102   109   110    1
   103    85    86    1
   104    86    88   am
   105    41    42    1
   106   122   123    1
   107   126   123    1
   108   112   110   ar
   109   106   107    1
   110    88    89    1
   111   110   111   ar
   112   186   183    1
   113    89    90    1
   114   123   124    1
   115    42    43    1
   116    42    45    1
   117   107   108    2
   118   156   155    1
   119   183   182    1
   120   183   184    1
   121   178   179    1
   122   178   175    1
   123   181   179   ar
   124    43    44    2
   125   182   176   am
   126   179   180   ar
   127    90    92   am
   128    90    91    2
   129    45    46    1
   130   124   125    2
   131   155   154   ar
   132   155   153   ar
   133   176   175    1
   134   176   177    2
   135    92    93    1
   136   185   184    2
   137   154   152   ar
   138   184   187   am
   139   175   174    1
   140    95    94    2
   141    46    47    1
   142   141   142    1
   143   141   140    1
   144   144   142   am
   145   153   151   ar
   146   142   143    2
   147   120   119    2
   148    47    48    1
   149   152   150   ar
   150    94    93    1
   151    94    97   am
   152    93    96    1
   153   187   188    1
   154   136   137    1
   155    48    49    2
   156   100    99    2
   157    99    98    1
   158   137   140    1
   159   137   138    1
   160   119   118    1
   161   119   121   am
   162   151   150   ar
   163    52    53    1
   164   150   149    1
   165   118   117    1
   166    97    98    1
   167   113   114    1
   168    98   101    1
   169   188   191    1
   170   188   189    1
   171    49    51    1
   172    49    50    1
   173   101   102    1
   174   138   139    2
   175    59    61   ar
   176    59    57   ar
   177    61    62   ar
   178   117   114    1
   179   149   146    1
   180    53    56    1
   181    53    54    1
   182   114   115    1
   183   127   128    1
   184   190   189    2
   185   164   162   am
   186   189   192   am
   187    56    57    1
   188    54    55    2
   189    57    58   ar
   190   104   102   ar
   191   102   103   ar
   192    62    63    1
   193    62    60   ar
   194   116   115    2
   195   145   146    1
   196   128   129    1
   197   128   131    1
   198   146   147    1
   199   132   133    1
   200   132   131    1
   201   192   193    1
   202   162   163    2
   203   162   161    1
   204   135   133   ar
   205    58    60   ar
   206   147   148    2
   207   147   157   am
   208   129   130    2
   209   133   134   ar
   210   161   158    1
   211   157   158    1
   212   193   194    1
   213   193   196    1
   214   194   195    2
   215   158   159    1
   216   173   171   am
   217   159   165   am
   218   159   160    2
   219   171   170    1
   220   171   172    2
   221   170   169    1
   222   165   166    1
   223   169   166    1
   224   166   167    1
   225   167   168    2
