@<TRIPOS>MOLECULE
tmp/4mb5A02.pdb
 91 90 0 0 0
SMALL
GASTEIGER

@<TRIPOS>ATOM
      1  N         -0.4890   38.5000   17.9980 N.3    17  ASN17      -0.1225
      2  CA        -1.4630   39.2870   17.3000 C.3    17  ASN17       0.1785
      3  C         -1.5570   40.6990   17.8610 C.2    17  ASN17       0.2597
      4  O         -2.6490   41.2100   18.0740 O.2    17  ASN17      -0.2718
      5  CB        -2.8160   38.5890   17.2980 C.3    17  ASN17       0.1169
      6  CG        -3.8620   39.2580   16.3990 C.2    17  ASN17       0.2627
      7  OD1       -3.5630   39.7160   15.2820 O.2    17  ASN17      -0.2716
      8  ND2       -5.0900   39.2540   16.8410 N.am   17  ASN17      -0.0877
      9  N         -0.4200   41.3610   17.9890 N.am   18  TRP18      -0.1962
     10  CA        -0.3630   42.7580   18.4230 C.3    18  TRP18       0.1771
     11  C          1.0620   43.2480   18.3290 C.2    18  TRP18       0.2620
     12  O          1.9750   42.4430   18.1020 O.2    18  TRP18      -0.2715
     13  CB        -0.8530   42.8830   19.8970 C.3    18  TRP18       0.0590
     14  CG         0.0470   42.1410   20.8930 C.ar   18  TRP18       0.0006
     15  CD1        1.1750   42.6200   21.4820 C.ar   18  TRP18       0.0946
     16  CD2       -0.1330   40.8070   21.3980 C.ar   18  TRP18       0.0152
     17  NE1        1.7240   41.6690   22.3030 N.ar   18  TRP18      -0.2442
     18  CE2        0.9230   40.5540   22.2920 C.ar   18  TRP18       0.0810
     19  CE3       -1.1180   39.8510   21.2240 C.ar   18  TRP18       0.0012
     20  CZ2        1.0580   39.3400   22.9460 C.ar   18  TRP18       0.0191
     21  CZ3       -0.9840   38.6440   21.8470 C.ar   18  TRP18       0.0001
     22  CH2        0.0870   38.3990   22.6950 C.ar   18  TRP18       0.0015
     23  N          1.2380   44.5650   18.4760 N.am   19  CYS19      -0.1954
     24  CA         2.4900   45.2380   18.2800 C.3    19  CYS19       0.1843
     25  C          3.0520   45.8280   19.5710 C.2    19  CYS19       0.2625
     26  O          2.3010   46.2720   20.3840 O.2    19  CYS19      -0.2714
     27  CB         2.2670   46.3850   17.3310 C.3    19  CYS19       0.0997
     28  SG         1.7140   45.8740   15.6290 S.3    19  CYS19      -0.0797
     29  N          4.3650   45.8800   19.6720 N.am   20  ASP20      -0.1957
     30  CA         5.0960   46.5700   20.7240 C.3    20  ASP20       0.1840
     31  C          4.6750   46.1900   22.1190 C.2    20  ASP20       0.2623
     32  O          4.3600   47.0490   22.9570 O.2    20  ASP20      -0.2715
     33  CB         5.0670   48.0850   20.5150 C.3    20  ASP20       0.1450
     34  CG         5.7430   48.4960   19.1770 C.2    20  ASP20       0.3671
     35  OD1        6.7130   47.8240   18.7250 O.co2  20  ASP20      -0.2456
     36  OD2        5.2330   49.4350   18.5330 O.co2  20  ASP20      -0.2456
     37  N          4.7350   44.8870   22.3890 N.am   21  GLY21      -0.1940
     38  CA         4.4820   44.4390   23.7590 C.3    21  GLY21       0.2014
     39  C          5.6440   44.7070   24.6420 C.2    21  GLY21       0.2638
     40  O          6.8120   44.6020   24.2370 O.2    21  GLY21      -0.2714
     41  N          5.3130   45.0500   25.8930 N.am   22  ARG22      -0.1977
     42  CA         6.3310   45.4120   26.8700 C.3    22  ARG22       0.1597
     43  C          6.9160   44.1670   27.5210 C.2    22  ARG22       0.2287
     44  O          6.1880   43.2700   27.8880 O.2    22  ARG22      -0.2864
     45  CB         5.7820   46.2980   27.9670 C.3    22  ARG22       0.0334
     46  CG         6.9080   46.9100   28.8350 C.3    22  ARG22       0.0492
     47  CD         6.4300   47.9780   29.8140 C.3    22  ARG22       0.2205
     48  NE         7.5530   48.8430   30.1670 N.pl3  22  ARG22      -0.0865
     49  CZ         7.7990   50.0340   29.6260 C.cat  22  ARG22       0.5346
     50  NH1        8.8670   50.7170   30.0130 N.pl3  22  ARG22       0.1354
     51  NH2        6.9860   50.5620   28.7130 N.pl3  22  ARG22       0.1354
     52  N         -4.0890   35.5630   19.9480 N.3    48  PHE48      -0.1241
     53  CA        -4.8530   34.4420   20.4330 C.3    48  PHE48       0.1605
     54  C         -6.3100   34.4860   19.9670 C.2    48  PHE48       0.2264
     55  O         -6.8770   35.5480   19.7480 O.2    48  PHE48      -0.2867
     56  CB        -4.9580   34.5050   21.9920 C.3    48  PHE48       0.0534
     57  CG        -3.6790   34.2190   22.6970 C.ar   48  PHE48      -0.0203
     58  CD1       -3.2090   32.8910   22.8660 C.ar   48  PHE48      -0.0042
     59  CD2       -2.9580   35.2560   23.2570 C.ar   48  PHE48      -0.0042
     60  CE1       -2.0080   32.6660   23.4990 C.ar   48  PHE48      -0.0003
     61  CE2       -1.8090   35.0240   23.9450 C.ar   48  PHE48      -0.0003
     62  CZ        -1.3350   33.7410   24.0680 C.ar   48  PHE48      -0.0000
     63  N        -10.0140   34.1580   21.4090 N.3    50  LYS50      -0.1245
     64  CA       -10.5320   34.5160   22.7280 C.3    50  LYS50       0.1561
     65  C        -11.8400   35.2310   22.5270 C.2    50  LYS50       0.2260
     66  O        -12.2820   35.4410   21.3710 O.2    50  LYS50      -0.2867
     67  CB        -9.5460   35.4460   23.4130 C.3    50  LYS50       0.0271
     68  CG        -9.3590   36.7850   22.7420 C.3    50  LYS50       0.0035
     69  CD        -8.4780   37.6760   23.5950 C.3    50  LYS50       0.0206
     70  CE        -8.4270   39.1050   22.9730 C.3    50  LYS50       0.1093
     71  NZ        -7.6200   40.0340   23.8390 N.3    50  LYS50      -0.1314
     72  N        -13.5260   38.5220   22.2330 N.3    52  TYR52      -0.1241
     73  CA       -13.1230   39.9070   21.9440 C.3    52  TYR52       0.1605
     74  C        -14.1430   40.9330   22.4240 C.2    52  TYR52       0.2264
     75  O        -13.8130   42.1080   22.5590 O.2    52  TYR52      -0.2867
     76  CB       -12.9080   40.1110   20.4510 C.3    52  TYR52       0.0534
     77  CG       -11.6310   39.5650   19.9540 C.ar   52  TYR52      -0.0201
     78  CD1      -11.5000   38.2180   19.7000 C.ar   52  TYR52      -0.0009
     79  CD2      -10.5270   40.3890   19.7100 C.ar   52  TYR52      -0.0009
     80  CE1      -10.3110   37.7020   19.2900 C.ar   52  TYR52       0.0417
     81  CE2       -9.3380   39.8800   19.2670 C.ar   52  TYR52       0.0417
     82  CZ        -9.2370   38.5330   19.0210 C.ar   52  TYR52       0.1957
     83  OH        -8.0280   38.0090   18.6240 O.3    52  TYR52      -0.2866
     84  N         -5.2430   41.7560   14.2610 N.3    65  ASP65      -0.1239
     85  CA        -4.9480   43.1620   14.5850 C.3    65  ASP65       0.1674
     86  C         -4.4780   43.9230   13.3540 C.2    65  ASP65       0.2266
     87  O         -3.3860   43.7020   12.8340 O.2    65  ASP65      -0.2867
     88  CB        -3.9170   43.2080   15.7160 C.3    65  ASP65       0.1410
     89  CG        -3.5870   44.6360   16.1970 C.2    65  ASP65       0.3668
     90  OD1       -3.7120   45.5910   15.4560 O.co2  65  ASP65      -0.2456
     91  OD2       -3.1260   44.7360   17.3740 O.co2  65  ASP65      -0.2456
@<TRIPOS>BOND
     1    87    86    2
     2    86    85    1
     3    84    85    1
     4    85    88    1
     5     7     6    2
     6    90    89   ar
     7    28    27    1
     8    88    89    1
     9    89    91   ar
    10     6     8   am
    11     6     5    1
    12     5     2    1
    13     2     3    1
    14     2     1    1
    15    27    24    1
    16     3     9   am
    17     3     4    2
    18     9    10    1
    19    12    11    2
    20    24    23    1
    21    24    25    1
    22    11    10    1
    23    11    23   am
    24    10    13    1
    25    36    34   ar
    26    83    82    1
    27    35    34   ar
    28    82    81   ar
    29    82    80   ar
    30    34    33    1
    31    81    79   ar
    32    80    78   ar
    33    25    29   am
    34    25    26    2
    35    29    30    1
    36    78    77   ar
    37    79    77   ar
    38    55    54    2
    39    13    14    1
    40    52    53    1
    41    77    76    1
    42    54    53    1
    43    53    56    1
    44    76    73    1
    45    33    30    1
    46    30    31    1
    47    14    16   ar
    48    14    15   ar
    49    19    16   ar
    50    19    21   ar
    51    66    65    2
    52    16    18   ar
    53    63    64    1
    54    15    17   ar
    55    21    22   ar
    56    73    72    1
    57    73    74    1
    58    56    57    1
    59    31    37   am
    60    31    32    2
    61    18    17   ar
    62    18    20   ar
    63    37    38    1
    64    74    75    2
    65    65    64    1
    66    22    20   ar
    67    57    58   ar
    68    57    59   ar
    69    64    67    1
    70    68    67    1
    71    68    69    1
    72    58    60   ar
    73    70    69    1
    74    70    71    1
    75    59    61   ar
    76    60    62   ar
    77    38    39    1
    78    61    62   ar
    79    40    39    2
    80    39    41   am
    81    41    42    1
    82    42    43    1
    83    42    45    1
    84    43    44    2
    85    45    46    1
    86    51    49    1
    87    46    47    1
    88    49    50    1
    89    49    48    2
    90    47    48    1
