@<TRIPOS>MOLECULE
tmp/4mb9A00.pdb
 156 146 0 0 0
SMALL
GASTEIGER

@<TRIPOS>ATOM
      1  N         22.2300   28.6850   -2.3330 N.3    32  ILE32      -0.1245
      2  CA        21.7430   29.7870   -1.5280 C.3    32  ILE32       0.1561
      3  C         20.4860   30.4360   -2.1380 C.2    32  ILE32       0.2260
      4  O         19.5040   30.6880   -1.4190 O.2    32  ILE32      -0.2867
      5  CB        22.8370   30.8780   -1.2830 C.3    32  ILE32       0.0252
      6  CG1       24.1020   30.2810   -0.5990 C.3    32  ILE32       0.0019
      7  CG2       22.2570   32.0150   -0.4340 C.3    32  ILE32       0.0019
      8  CD1       23.8560   29.3020    0.5990 C.3    32  ILE32       0.0001
      9  N         17.3940   28.3150   -1.5150 N.3    35  ASN35      -0.1225
     10  CA        16.8470   28.4340   -0.1490 C.3    35  ASN35       0.1785
     11  C         15.9180   29.6670   -0.0180 C.2    35  ASN35       0.2597
     12  O         14.8550   29.5660    0.5700 O.2    35  ASN35      -0.2718
     13  CB        17.9490   28.4390    0.9170 C.3    35  ASN35       0.1169
     14  CG        18.6680   27.1020    1.0120 C.2    35  ASN35       0.2627
     15  OD1       18.1100   26.0700    0.6470 O.2    35  ASN35      -0.2716
     16  ND2       19.8960   27.1080    1.5280 N.am   35  ASN35      -0.0877
     17  N         16.3140   30.7980   -0.6110 N.am   36  ALA36      -0.1979
     18  CA        15.4730   31.9870   -0.6660 C.3    36  ALA36       0.1597
     19  C         14.1980   31.7310   -1.4690 C.2    36  ALA36       0.2287
     20  O         13.1170   32.1980   -1.0920 O.2    36  ALA36      -0.2864
     21  CB        16.2400   33.1750   -1.2790 C.3    36  ALA36       0.0319
     22  N         11.6890   29.5610    0.4780 N.3    39  GLU39      -0.1245
     23  CA        11.0220   30.4100    1.4410 C.3    39  GLU39       0.1567
     24  C          9.8680   31.2680    0.8070 C.2    39  GLU39       0.2260
     25  O          8.7550   31.3400    1.3640 O.2    39  GLU39      -0.2867
     26  CB        12.1210   31.2640    2.1260 C.3    39  GLU39       0.0388
     27  CG        11.6690   32.1390    3.2480 C.3    39  GLU39       0.1160
     28  CD        11.1550   31.3820    4.4590 C.2    39  GLU39       0.3649
     29  OE1       11.1000   30.1230    4.4560 O.co2  39  GLU39      -0.2457
     30  OE2       10.7670   32.0570    5.4310 O.co2  39  GLU39      -0.2457
     31  N         23.1230   37.0520   -1.2800 N.3    60  VAL60      -0.1231
     32  CA        21.7180   36.7620   -1.6060 C.3    60  VAL60       0.1692
     33  C         20.9270   37.2110   -0.3900 C.2    60  VAL60       0.2592
     34  O         21.2380   36.7960    0.7370 O.2    60  VAL60      -0.2718
     35  CB        21.4530   35.2380   -1.8570 C.3    60  VAL60       0.0266
     36  CG1       19.9730   34.9880   -2.2820 C.3    60  VAL60       0.0020
     37  CG2       22.4580   34.6170   -2.8830 C.3    60  VAL60       0.0020
     38  N         19.9090   38.0280   -0.6050 N.am   61  GLN61      -0.1966
     39  CA        19.0420   38.4900    0.4770 C.3    61  GLN61       0.1733
     40  C         17.5810   38.1810    0.1970 C.2    61  GLN61       0.2616
     41  O         17.0640   38.4690   -0.8810 O.2    61  GLN61      -0.2715
     42  CB        19.2120   39.9980    0.6680 C.3    61  GLN61       0.0408
     43  CG        18.4060   40.5390    1.8610 C.3    61  GLN61       0.0908
     44  CD        18.8780   41.9210    2.2910 C.2    61  GLN61       0.2608
     45  OE1       19.4010   42.6940    1.4790 O.2    61  GLN61      -0.2717
     46  NE2       18.7120   42.2290    3.5850 N.am   61  GLN61      -0.0878
     47  N         16.8970   37.6300    1.1930 N.am   62  ASP62      -0.1971
     48  CA        15.4740   37.4200    1.0770 C.3    62  ASP62       0.1709
     49  C         14.7450   38.2210    2.1740 C.2    62  ASP62       0.2293
     50  O         15.3830   38.7520    3.1170 O.2    62  ASP62      -0.2864
     51  CB        15.1140   35.9070    0.9880 C.3    62  ASP62       0.1436
     52  CG        15.1380   35.1660    2.3110 C.2    62  ASP62       0.3671
     53  OD1       14.6310   35.6930    3.3340 O.co2  62  ASP62      -0.2456
     54  OD2       15.5850   33.9810    2.2940 O.co2  62  ASP62      -0.2456
     55  N         10.9830   34.6730    6.5060 N.3    65  ARG65      -0.1231
     56  CA        10.7690   34.7070    7.9630 C.3    65  ARG65       0.1694
     57  C         12.0550   35.0050    8.7820 C.2    65  ARG65       0.2593
     58  O         11.9680   35.4660    9.9210 O.2    65  ARG65      -0.2718
     59  CB        10.1650   33.3920    8.4470 C.3    65  ARG65       0.0321
     60  CG         8.7210   33.1390    7.9890 C.3    65  ARG65       0.0489
     61  CD         8.3180   31.7170    8.2580 C.3    65  ARG65       0.2205
     62  NE         8.9710   30.7690    7.3350 N.pl3  65  ARG65      -0.0865
     63  CZ         8.7130   29.4630    7.2760 C.cat  65  ARG65       0.5346
     64  NH1        7.8050   28.9200    8.0950 N.pl3  65  ARG65       0.1354
     65  NH2        9.3610   28.6860    6.3940 N.pl3  65  ARG65       0.1354
     66  N         13.2210   34.7390    8.1900 N.am   66  GLY66      -0.1942
     67  CA        14.4870   34.7120    8.9040 C.3    66  GLY66       0.2014
     68  C         14.7180   33.3090    9.4260 C.2    66  GLY66       0.2639
     69  O         13.8170   32.7030   10.0380 O.2    66  GLY66      -0.2714
     70  N         15.9170   32.7690    9.2010 N.am   67  MET67      -0.1963
     71  CA        16.2670   31.4850    9.8350 C.3    67  MET67       0.1722
     72  C         16.0410   31.5760   11.3540 C.2    67  MET67       0.2458
     73  O         16.1830   32.6600   11.9530 O.2    67  MET67      -0.2730
     74  CB        17.7190   31.0480    9.5830 C.3    67  MET67       0.0427
     75  CG        18.1420   30.8410    8.1550 C.3    67  MET67       0.0599
     76  SD        19.8570   30.2070    8.1410 S.3    67  MET67      -0.1393
     77  CE        19.9390   29.5780    6.4470 C.3    67  MET67       0.0692
     78  N         15.6440   30.4470   11.9790 N.am   68  PRO68      -0.2727
     79  CA        15.4590   30.4840   13.4430 C.3    68  PRO68       0.1402
     80  C         16.7080   30.9770   14.1920 C.2    68  PRO68       0.2269
     81  O         17.8350   30.6000   13.8760 O.2    68  PRO68      -0.2865
     82  CB        15.1190   29.0320   13.8210 C.3    68  PRO68       0.0296
     83  CG        14.5730   28.4170   12.5100 C.3    68  PRO68       0.0237
     84  CD        15.3090   29.1330   11.3890 C.3    68  PRO68       0.0939
     85  N         20.9290   27.3010   16.2310 N.3    78  THR78      -0.1218
     86  CA        20.3300   26.5350   15.1310 C.3    78  THR78       0.1862
     87  C         20.9820   26.9000   13.8070 C.2    78  THR78       0.2287
     88  O         21.2310   26.0230   12.9660 O.2    78  THR78      -0.2866
     89  CB        18.7980   26.7890   15.0530 C.3    78  THR78       0.1770
     90  OG1       18.2220   26.3850   16.2890 O.3    78  THR78      -0.2211
     91  CG2       18.1480   26.0150   13.8900 C.3    78  THR78       0.0375
     92  N         22.8870   24.4970   11.0110 N.3    82  ILE82      -0.1245
     93  CA        22.5210   24.5460    9.5680 C.3    82  ILE82       0.1561
     94  C         23.7830   24.7190    8.6860 C.2    82  ILE82       0.2260
     95  O         23.9620   24.0140    7.6800 O.2    82  ILE82      -0.2867
     96  CB        21.4810   25.7290    9.2870 C.3    82  ILE82       0.0252
     97  CG1       20.0970   25.4380    9.9420 C.3    82  ILE82       0.0019
     98  CG2       21.2510   25.9880    7.7670 C.3    82  ILE82       0.0019
     99  CD1       19.2010   26.7130   10.1440 C.3    82  ILE82       0.0001
    100  N         11.1010   27.2090    4.1680 N.3    89  GLY89      -0.1210
    101  CA        12.2860   27.9240    3.7200 C.3    89  GLY89       0.1956
    102  C         13.5260   27.0750    3.5750 C.2    89  GLY89       0.2612
    103  O         14.3810   27.3800    2.7260 O.2    89  GLY89      -0.2717
    104  N         13.6190   26.0240    4.4050 N.am   90  GLY90      -0.1942
    105  CA        14.8130   25.1500    4.5180 C.3    90  GLY90       0.2014
    106  C         15.7460   25.1400    3.3020 C.2    90  GLY90       0.2639
    107  O         15.2710   24.8590    2.1680 O.2    90  GLY90      -0.2714
    108  N         17.0560   25.4090    3.4680 N.am   91  LEU91      -0.1963
    109  CA        17.8300   25.5030    4.7270 C.3    91  LEU91       0.1728
    110  C         19.1200   24.6970    4.5200 C.2    91  LEU91       0.2616
    111  O         20.2270   25.2450    4.4060 O.2    91  LEU91      -0.2715
    112  CB        17.0910   24.9080    5.9350 C.3    91  LEU91       0.0311
    113  CG        17.3310   25.4180    7.3470 C.3    91  LEU91       0.0022
    114  CD1       17.1840   26.9250    7.4170 C.3    91  LEU91       0.0001
    115  CD2       16.3160   24.7360    8.2460 C.3    91  LEU91       0.0001
    116  N         18.9230   23.3790    4.4330 N.am   92  HIS92      -0.1973
    117  CA        19.9840   22.3710    4.5450 C.3    92  HIS92       0.1656
    118  C         19.6080   21.1060    3.7250 C.2    92  HIS92       0.2291
    119  O         18.8340   21.2020    2.7550 O.2    92  HIS92      -0.2864
    120  CB        20.2320   22.0260    6.0340 C.3    92  HIS92       0.0771
    121  CG        19.1150   21.2870    6.7040 C.ar   92  HIS92       0.0820
    122  ND1       17.8850   21.8800    6.9300 N.ar   92  HIS92      -0.2267
    123  CD2       19.1220   20.0320    7.2490 C.ar   92  HIS92       0.1154
    124  CE1       17.1730   20.9940    7.6160 C.ar   92  HIS92       0.1986
    125  NE2       17.8900   19.8840    7.8170 N.ar   92  HIS92      -0.2212
    126  N         23.3040   25.0260    2.6820 N.3    96  SER96      -0.1217
    127  CA        24.0060   26.0980    3.3940 C.3    96  SER96       0.1889
    128  C         25.4060   25.6630    3.8630 C.2    96  SER96       0.2288
    129  O         26.3770   26.4140    3.7230 O.2    96  SER96      -0.2866
    130  CB        23.1550   26.5750    4.5790 C.3    96  SER96       0.2089
    131  OG        21.9920   27.2410    4.0960 O.3    96  SER96      -0.2183
    132  N         14.5830   39.3360   12.3870 N.3   112  ARG112     -0.1245
    133  CA        13.2200   38.9910   12.7990 C.3   112  ARG112      0.1563
    134  C         12.9870   39.4000   14.2270 C.2   112  ARG112      0.2260
    135  O         13.9370   39.5160   15.0000 O.2   112  ARG112     -0.2867
    136  CB        12.9280   37.5030   12.6250 C.3   112  ARG112      0.0307
    137  CG        14.0160   36.5790   13.1700 C.3   112  ARG112      0.0489
    138  CD        13.6870   35.1050   12.9070 C.3   112  ARG112      0.2205
    139  NE        12.5030   34.6640   13.6240 N.pl3 112  ARG112     -0.0865
    140  CZ        11.7740   33.5940   13.3080 C.cat 112  ARG112      0.5346
    141  NH1       12.0930   32.8150   12.2710 N.pl3 112  ARG112      0.1354
    142  NH2       10.7090   33.2890   14.0510 N.pl3 112  ARG112      0.1354
    143  N         16.5610   36.7310    5.6180 N.3   144  THR144     -0.1218
    144  CA        17.8730   36.0690    5.6790 C.3   144  THR144      0.1862
    145  C         18.7390   36.6410    4.5670 C.2   144  THR144      0.2287
    146  O         18.2930   36.7650    3.4000 O.2   144  THR144     -0.2866
    147  CB        17.7380   34.5150    5.5260 C.3   144  THR144      0.1770
    148  OG1       16.8580   34.0310    6.5320 O.3   144  THR144     -0.2211
    149  CG2       19.1100   33.7880    5.6160 C.3   144  THR144      0.0375
    150  N         22.8070   36.1250    3.0960 N.3   146  VAL146     -0.1245
    151  CA        24.0060   35.2640    3.0960 C.3   146  VAL146      0.1561
    152  C         24.9960   35.8460    2.0930 C.2   146  VAL146      0.2260
    153  O         24.6530   36.1210    0.9360 O.2   146  VAL146     -0.2867
    154  CB        23.6940   33.7480    2.7820 C.3   146  VAL146      0.0252
    155  CG1       24.9720   32.9030    2.6790 C.3   146  VAL146      0.0019
    156  CG2       22.7430   33.1150    3.8260 C.3   146  VAL146      0.0019
@<TRIPOS>BOND
     1    37    35    1
     2     1     2    1
     3    36    35    1
     4     3     2    1
     5     3     4    2
     6    35    32    1
     7    32    31    1
     8    32    33    1
     9     2     5    1
    10     9    10    1
    11    19    20    2
    12    19    18    1
    13     5     6    1
    14     5     7    1
    15    21    18    1
    16    41    40    2
    17    18    17    1
    18    17    11   am
    19    38    33   am
    20    38    39    1
    21     6     8    1
    22    33    34    2
    23    10    11    1
    24    10    13    1
    25    11    12    2
    26    40    39    1
    27    40    47   am
    28    39    42    1
    29    22    23    1
    30    15    14    2
    31    42    43    1
    32    24    25    2
    33    24    23    1
    34    13    14    1
    35   153   152    2
    36    51    48    1
    37    51    52    1
    38    14    16   am
    39    48    47    1
    40    48    49    1
    41    23    26    1
    42    45    44    2
    43    43    44    1
    44   152   151    1
    45    26    27    1
    46   107   106    2
    47    49    50    2
    48    44    46   am
    49    54    52   ar
    50    52    53   ar
    51   155   154    1
    52   126   127    1
    53   103   102    2
    54   119   118    2
    55   154   151    1
    56   154   156    1
    57   151   150    1
    58    27    28    1
    59   106   108   am
    60   106   105    1
    61   127   128    1
    62   127   130    1
    63   146   145    2
    64   108   109    1
    65   102   101    1
    66   102   104   am
    67   101   100    1
    68   129   128    2
    69   118   117    1
    70   131   130    1
    71   104   105    1
    72   111   110    2
    73   116   110   am
    74   116   117    1
    75    29    28   ar
    76    28    30   ar
    77   110   109    1
    78   117   120    1
    79   145   144    1
    80   109   112    1
    81   147   149    1
    82   147   144    1
    83   147   148    1
    84   143   144    1
    85   112   113    1
    86   120   121    1
    87    65    63    1
    88    77    76    1
    89    55    56    1
    90   121   122   ar
    91   121   123   ar
    92   122   124   ar
    93   123   125   ar
    94    63    62    2
    95    63    64    1
    96    62    61    1
    97   113   114    1
    98   113   115    1
    99   124   125   ar
   100    95    94    2
   101    98    96    1
   102    56    59    1
   103    56    57    1
   104    60    61    1
   105    60    59    1
   106    76    75    1
   107    75    74    1
   108    66    57   am
   109    66    67    1
   110    94    93    1
   111    57    58    2
   112    67    68    1
   113    70    68   am
   114    70    71    1
   115    96    93    1
   116    96    97    1
   117    68    69    2
   118    93    92    1
   119    74    71    1
   120    71    72    1
   121    97    99    1
   122    72    73    2
   123    72    78   am
   124    84    78    1
   125    84    83    1
   126    78    79    1
   127   141   140    1
   128   132   133    1
   129    83    82    1
   130   136   133    1
   131   136   137    1
   132   133   134    1
   133   138   137    1
   134   138   139    1
   135    88    87    2
   136   140   139    2
   137   140   142    1
   138    79    82    1
   139    79    80    1
   140    87    86    1
   141    81    80    2
   142    91    89    1
   143   134   135    2
   144    89    86    1
   145    89    90    1
   146    86    85    1
