@<TRIPOS>MOLECULE
tmp/4mbaA00.pdb
 205 198 0 0 0
SMALL
GASTEIGER

@<TRIPOS>ATOM
      1  N        -47.0780  -42.0430  -27.6120 N.3    28  PHE28      -0.1227
      2  CA       -48.1350  -42.7850  -28.2400 C.3    28  PHE28       0.1736
      3  C        -48.3780  -42.1820  -29.6030 C.2    28  PHE28       0.2595
      4  O        -48.4670  -42.8680  -30.5950 O.2    28  PHE28      -0.2718
      5  CB       -49.4150  -42.8740  -27.3640 C.3    28  PHE28       0.0547
      6  CG       -50.5910  -43.3530  -28.1830 C.ar   28  PHE28      -0.0202
      7  CD1      -50.7350  -44.7110  -28.4970 C.ar   28  PHE28      -0.0042
      8  CD2      -51.4970  -42.4520  -28.7070 C.ar   28  PHE28      -0.0042
      9  CE1      -51.7930  -45.1600  -29.3070 C.ar   28  PHE28      -0.0003
     10  CE2      -52.5440  -42.8690  -29.5230 C.ar   28  PHE28      -0.0003
     11  CZ       -52.7090  -44.2270  -29.8080 C.ar   28  PHE28      -0.0000
     12  N        -48.5070  -40.8800  -29.6620 N.am   29  LEU29      -0.1980
     13  CA       -48.7510  -40.1820  -30.9160 C.3    29  LEU29       0.1596
     14  C        -47.6460  -40.4030  -31.9770 C.2    29  LEU29       0.2287
     15  O        -47.8950  -40.6630  -33.1480 O.2    29  LEU29      -0.2864
     16  CB       -49.1640  -38.7190  -30.7100 C.3    29  LEU29       0.0297
     17  CG       -49.7970  -38.1580  -31.9670 C.3    29  LEU29       0.0022
     18  CD1      -51.0150  -38.9860  -32.3370 C.3    29  LEU29       0.0001
     19  CD2      -50.1690  -36.6960  -31.8120 C.3    29  LEU29       0.0001
     20  N        -47.6630  -43.9640  -33.3430 N.3    32  LEU32      -0.1245
     21  CA       -48.7380  -44.1620  -34.2800 C.3    32  LEU32       0.1561
     22  C        -48.2970  -43.7560  -35.6650 C.2    32  LEU32       0.2260
     23  O        -48.4070  -44.4770  -36.6470 O.2    32  LEU32      -0.2867
     24  CB       -50.0240  -43.4470  -33.7900 C.3    32  LEU32       0.0270
     25  CG       -51.1890  -43.5560  -34.7710 C.3    32  LEU32       0.0019
     26  CD1      -51.7760  -44.9620  -34.7800 C.3    32  LEU32       0.0001
     27  CD2      -52.2030  -42.4540  -34.5060 C.3    32  LEU32       0.0001
     28  N        -51.5310  -41.8140  -41.1730 N.3    39  SER39      -0.1217
     29  CA       -52.2560  -41.0400  -40.1920 C.3    39  SER39       0.1889
     30  C        -51.8220  -39.6230  -39.9320 C.2    39  SER39       0.2288
     31  O        -52.5710  -38.8060  -39.3780 O.2    39  SER39      -0.2866
     32  CB       -52.7580  -41.8080  -39.0000 C.3    39  SER39       0.2089
     33  OG       -51.6710  -42.2530  -38.2650 O.3    39  SER39      -0.2183
     34  N        -54.0000  -36.5740  -41.6580 N.3    42  PHE42      -0.1227
     35  CA       -55.2510  -36.0270  -41.0820 C.3    42  PHE42       0.1736
     36  C        -54.9820  -34.7870  -40.2620 C.2    42  PHE42       0.2595
     37  O        -55.8860  -34.0920  -39.8290 O.2    42  PHE42      -0.2718
     38  CB       -56.0090  -37.0720  -40.2900 C.3    42  PHE42       0.0547
     39  CG       -56.3930  -38.3050  -41.0450 C.ar   42  PHE42      -0.0202
     40  CD1      -57.6110  -38.3040  -41.7680 C.ar   42  PHE42      -0.0042
     41  CD2      -55.6580  -39.4750  -41.0100 C.ar   42  PHE42      -0.0042
     42  CE1      -58.0210  -39.4680  -42.4370 C.ar   42  PHE42      -0.0003
     43  CE2      -56.0380  -40.6160  -41.6740 C.ar   42  PHE42      -0.0003
     44  CZ       -57.2360  -40.6000  -42.4000 C.ar   42  PHE42      -0.0000
     45  N        -53.7010  -34.4580  -40.0640 N.am   43  PHE43      -0.1976
     46  CA       -53.2780  -33.2850  -39.3020 C.3    43  PHE43       0.1639
     47  C        -52.4750  -32.3200  -40.1810 C.2    43  PHE43       0.2290
     48  O        -51.4840  -32.7020  -40.7900 O.2    43  PHE43      -0.2864
     49  CB       -52.3870  -33.7170  -38.1060 C.3    43  PHE43       0.0560
     50  CG       -52.9530  -34.7300  -37.1260 C.ar   43  PHE43      -0.0200
     51  CD1      -53.5540  -34.3120  -35.9290 C.ar   43  PHE43      -0.0042
     52  CD2      -52.8710  -36.0880  -37.3940 C.ar   43  PHE43      -0.0042
     53  CE1      -54.0760  -35.2800  -35.0610 C.ar   43  PHE43      -0.0003
     54  CE2      -53.3750  -37.0500  -36.5440 C.ar   43  PHE43      -0.0003
     55  CZ       -53.9820  -36.6300  -35.3630 C.ar   43  PHE43      -0.0000
     56  N        -51.6860  -31.6790  -28.9610 N.3    63  VAL63      -0.1245
     57  CA       -52.3540  -32.7140  -29.6810 C.3    63  VAL63       0.1561
     58  C        -52.3800  -34.0270  -28.9310 C.2    63  VAL63       0.2260
     59  O        -53.3690  -34.7210  -28.8080 O.2    63  VAL63      -0.2867
     60  CB       -51.6200  -32.8610  -31.0120 C.3    63  VAL63       0.0252
     61  CG1      -52.1420  -34.0100  -31.8200 C.3    63  VAL63       0.0019
     62  CG2      -51.8320  -31.6350  -31.8820 C.3    63  VAL63       0.0019
     63  N        -54.7490  -34.0820  -25.5100 N.3    66  ARG66      -0.1231
     64  CA       -56.1690  -34.1750  -25.6510 C.3    66  ARG66       0.1694
     65  C        -56.5370  -35.6280  -25.8660 C.2    66  ARG66       0.2591
     66  O        -57.4960  -36.1740  -25.3550 O.2    66  ARG66      -0.2718
     67  CB       -56.7330  -33.1430  -26.6270 C.3    66  ARG66       0.0321
     68  CG       -56.6490  -31.7110  -26.0680 C.3    66  ARG66       0.0489
     69  CD       -57.0690  -30.6360  -27.0870 C.3    66  ARG66       0.2205
     70  NE       -57.2840  -29.2890  -26.5400 N.pl3  66  ARG66      -0.0865
     71  CZ       -57.6020  -28.2090  -27.2650 C.cat  66  ARG66       0.5346
     72  NH1      -57.7540  -28.2560  -28.5870 N.pl3  66  ARG66       0.1354
     73  NH2      -57.7730  -27.0400  -26.6500 N.pl3  66  ARG66       0.1354
     74  N        -55.6950  -36.3080  -26.6040 N.am   67  ILE67      -0.1980
     75  CA       -55.9480  -37.6650  -26.7920 C.3    67  ILE67       0.1595
     76  C        -55.9110  -38.3980  -25.4630 C.2    67  ILE67       0.2287
     77  O        -56.8060  -39.1610  -25.1640 O.2    67  ILE67      -0.2864
     78  CB       -54.9240  -38.3050  -27.6980 C.3    67  ILE67       0.0276
     79  CG1      -55.0890  -37.9780  -29.1580 C.3    67  ILE67       0.0022
     80  CG2      -54.9360  -39.8340  -27.5450 C.3    67  ILE67       0.0022
     81  CD1      -53.9870  -38.6870  -29.9360 C.3    67  ILE67       0.0001
     82  N        -58.8850  -37.7930  -23.0830 N.3    70  ARG70      -0.1231
     83  CA       -60.1530  -38.4070  -23.4510 C.3    70  ARG70       0.1694
     84  C        -60.1480  -39.9070  -23.2080 C.2    70  ARG70       0.2591
     85  O        -61.1310  -40.5150  -22.7820 O.2    70  ARG70      -0.2718
     86  CB       -60.5700  -38.0220  -24.8810 C.3    70  ARG70       0.0321
     87  CG       -61.8220  -38.6560  -25.4260 C.3    70  ARG70       0.0489
     88  CD       -63.0780  -37.9440  -24.8900 C.3    70  ARG70       0.2205
     89  NE       -63.1130  -36.5010  -25.1440 N.pl3  70  ARG70      -0.0865
     90  CZ       -63.7470  -35.9530  -26.1860 C.cat  70  ARG70       0.5346
     91  NH1      -64.4230  -36.6570  -27.1140 N.pl3  70  ARG70       0.1354
     92  NH2      -63.6840  -34.6430  -26.3340 N.pl3  70  ARG70       0.1354
     93  N        -59.0240  -40.5370  -23.4570 N.am   71  LEU71      -0.1980
     94  CA       -58.8910  -41.9750  -23.2960 C.3    71  LEU71       0.1596
     95  C        -59.0860  -42.3780  -21.8540 C.2    71  LEU71       0.2287
     96  O        -59.6260  -43.4450  -21.5370 O.2    71  LEU71      -0.2864
     97  CB       -57.4990  -42.4290  -23.7500 C.3    71  LEU71       0.0297
     98  CG       -57.4150  -43.5260  -24.7720 C.3    71  LEU71       0.0022
     99  CD1      -56.0460  -44.1760  -24.6200 C.3    71  LEU71       0.0001
    100  CD2      -58.4920  -44.5650  -24.5680 C.3    71  LEU71       0.0001
    101  N        -62.5200  -42.4280  -21.2590 N.3    74  PHE74      -0.1241
    102  CA       -63.1640  -43.6390  -21.7410 C.3    74  PHE74       0.1605
    103  C        -62.9450  -44.8130  -20.8290 C.2    74  PHE74       0.2264
    104  O        -63.8610  -45.6340  -20.6980 O.2    74  PHE74      -0.2867
    105  CB       -62.7540  -44.1380  -23.1320 C.3    74  PHE74       0.0534
    106  CG       -63.4670  -43.4830  -24.2880 C.ar   74  PHE74      -0.0203
    107  CD1      -62.8360  -42.5120  -25.0840 C.ar   74  PHE74      -0.0042
    108  CD2      -64.7530  -43.9030  -24.6430 C.ar   74  PHE74      -0.0042
    109  CE1      -63.5090  -41.9480  -26.1600 C.ar   74  PHE74      -0.0003
    110  CE2      -65.4230  -43.3560  -25.7330 C.ar   74  PHE74      -0.0003
    111  CZ       -64.8010  -42.3560  -26.4780 C.ar   74  PHE74      -0.0000
    112  N        -67.6260  -38.8670  -29.7520 N.3    91  PHE91      -0.1241
    113  CA       -66.3010  -39.1200  -30.2510 C.3    91  PHE91       0.1605
    114  C        -66.3060  -39.3970  -31.7580 C.2    91  PHE91       0.2264
    115  O        -65.5160  -38.8250  -32.5000 O.2    91  PHE91      -0.2867
    116  CB       -65.7290  -40.3020  -29.4790 C.3    91  PHE91       0.0534
    117  CG       -64.3420  -40.6350  -29.8690 C.ar   91  PHE91      -0.0203
    118  CD1      -63.3130  -39.9030  -29.2460 C.ar   91  PHE91      -0.0042
    119  CD2      -64.0220  -41.5910  -30.8130 C.ar   91  PHE91      -0.0042
    120  CE1      -61.9850  -40.1730  -29.5710 C.ar   91  PHE91      -0.0003
    121  CE2      -62.6850  -41.8820  -31.1450 C.ar   91  PHE91      -0.0003
    122  CZ       -61.6880  -41.1670  -30.5230 C.ar   91  PHE91      -0.0000
    123  N        -67.2300  -36.2880  -33.8580 N.3    94  GLU94      -0.1231
    124  CA       -66.0840  -35.4280  -33.9870 C.3    94  GLU94       0.1699
    125  C        -65.0400  -35.9010  -34.9970 C.2    94  GLU94       0.2592
    126  O        -64.5730  -35.1240  -35.8130 O.2    94  GLU94      -0.2718
    127  CB       -65.3470  -35.4200  -32.6770 C.3    94  GLU94       0.0402
    128  CG       -66.0870  -34.6480  -31.6090 C.3    94  GLU94       0.1161
    129  CD       -65.2660  -34.6960  -30.3600 C.2    94  GLU94       0.3649
    130  OE1      -64.3220  -35.4720  -30.1870 O.co2  94  GLU94      -0.2457
    131  OE2      -65.6740  -33.7930  -29.5010 O.co2  94  GLU94      -0.2457
    132  N        -64.6390  -37.1580  -34.9260 N.am   95  HIS95      -0.1976
    133  CA       -63.6350  -37.6830  -35.8530 C.3    95  HIS95       0.1656
    134  C        -64.0380  -37.7370  -37.3130 C.2    95  HIS95       0.2291
    135  O        -63.2530  -37.4350  -38.1680 O.2    95  HIS95      -0.2864
    136  CB       -63.0740  -39.0350  -35.3620 C.3    95  HIS95       0.0771
    137  CG       -62.1100  -38.7190  -34.2420 C.ar   95  HIS95       0.0820
    138  ND1      -62.5620  -38.5020  -32.9560 N.ar   95  HIS95      -0.2267
    139  CD2      -60.7810  -38.4940  -34.2690 C.ar   95  HIS95       0.1154
    140  CE1      -61.5130  -38.1430  -32.2300 C.ar   95  HIS95       0.1986
    141  NE2      -60.4270  -38.1490  -32.9860 N.ar   95  HIS95      -0.2212
    142  N        -63.5210  -34.7660  -39.3450 N.3    98  PHE98      -0.1241
    143  CA       -62.1710  -34.5220  -39.7600 C.3    98  PHE98       0.1605
    144  C        -61.7120  -35.4430  -40.8890 C.2    98  PHE98       0.2264
    145  O        -60.6610  -35.2560  -41.4480 O.2    98  PHE98      -0.2867
    146  CB       -61.2300  -34.5250  -38.5380 C.3    98  PHE98       0.0534
    147  CG       -61.5100  -33.4450  -37.4660 C.ar   98  PHE98      -0.0203
    148  CD1      -61.2420  -32.1130  -37.7300 C.ar   98  PHE98      -0.0042
    149  CD2      -61.9510  -33.7680  -36.1820 C.ar   98  PHE98      -0.0042
    150  CE1      -61.4830  -31.1350  -36.7650 C.ar   98  PHE98      -0.0003
    151  CE2      -62.1950  -32.8180  -35.1800 C.ar   98  PHE98      -0.0003
    152  CZ       -61.9680  -31.4800  -35.4950 C.ar   98  PHE98      -0.0000
    153  N        -61.5420  -38.8200  -40.4280 N.3   100  VAL100     -0.1245
    154  CA       -61.0090  -40.0160  -39.7720 C.3   100  VAL100      0.1561
    155  C        -62.1410  -41.0340  -39.6420 C.2   100  VAL100      0.2260
    156  O        -63.2750  -40.6850  -39.3060 O.2   100  VAL100     -0.2867
    157  CB       -60.4480  -39.6760  -38.3770 C.3   100  VAL100      0.0252
    158  CG1      -59.7750  -40.8240  -37.6740 C.3   100  VAL100      0.0019
    159  CG2      -59.6300  -38.3970  -38.3350 C.3   100  VAL100      0.0019
    160  N        -58.6470  -46.0560  -39.3300 N.3   104  GLN104     -0.1231
    161  CA       -57.6660  -45.4010  -38.5040 C.3   104  GLN104      0.1698
    162  C        -57.6720  -45.9330  -37.0930 C.2   104  GLN104      0.2592
    163  O        -56.6280  -46.0080  -36.4670 O.2   104  GLN104     -0.2718
    164  CB       -57.8510  -43.8670  -38.4820 C.3   104  GLN104      0.0381
    165  CG       -57.1900  -43.1320  -39.6700 C.3   104  GLN104      0.0905
    166  CD       -57.7820  -43.4910  -41.0220 C.2   104  GLN104      0.2608
    167  OE1      -57.1130  -44.0390  -41.8960 O.2   104  GLN104     -0.2717
    168  NE2      -59.0380  -43.1400  -41.2270 N.am  104  GLN104     -0.0878
    169  N        -58.8540  -46.2900  -36.5730 N.am  105  PHE105     -0.1976
    170  CA       -58.9580  -46.8410  -35.2430 C.3   105  PHE105      0.1639
    171  C        -58.5990  -48.3110  -35.2270 C.2   105  PHE105      0.2290
    172  O        -58.2090  -48.8560  -34.1980 O.2   105  PHE105     -0.2864
    173  CB       -60.3280  -46.5640  -34.6470 C.3   105  PHE105      0.0560
    174  CG       -60.2660  -45.1570  -34.1380 C.ar  105  PHE105     -0.0200
    175  CD1      -59.7060  -44.8870  -32.8810 C.ar  105  PHE105     -0.0042
    176  CD2      -60.6520  -44.0760  -34.9400 C.ar  105  PHE105     -0.0042
    177  CE1      -59.6370  -43.5390  -32.4430 C.ar  105  PHE105     -0.0003
    178  CE2      -60.5880  -42.7710  -34.5190 C.ar  105  PHE105     -0.0003
    179  CZ       -60.0900  -42.5010  -33.2340 C.ar  105  PHE105     -0.0000
    180  N        -55.0180  -48.0030  -34.5210 N.3   108  VAL108     -0.1245
    181  CA       -54.8330  -47.7370  -33.0970 C.3   108  VAL108      0.1561
    182  C        -54.9630  -49.0120  -32.2960 C.2   108  VAL108      0.2260
    183  O        -54.1160  -49.3320  -31.4710 O.2   108  VAL108     -0.2867
    184  CB       -55.7730  -46.6770  -32.5350 C.3   108  VAL108      0.0252
    185  CG1      -55.4530  -46.5340  -31.0570 C.3   108  VAL108      0.0019
    186  CG2      -55.5630  -45.3390  -33.2470 C.3   108  VAL108      0.0019
    187  N        -61.6600  -50.6930  -27.9980 N.3   134  PHE134     -0.1241
    188  CA       -61.4120  -50.0750  -29.2850 C.3   134  PHE134      0.1605
    189  C        -62.4770  -50.5070  -30.3020 C.2   134  PHE134      0.2264
    190  O        -62.8550  -49.7630  -31.1980 O.2   134  PHE134     -0.2867
    191  CB       -59.9430  -50.2950  -29.7670 C.3   134  PHE134      0.0534
    192  CG       -59.0390  -49.2990  -29.1230 C.ar  134  PHE134     -0.0203
    193  CD1      -58.0360  -49.7300  -28.2210 C.ar  134  PHE134     -0.0042
    194  CD2      -59.1780  -47.9590  -29.3730 C.ar  134  PHE134     -0.0042
    195  CE1      -57.2080  -48.7880  -27.6020 C.ar  134  PHE134     -0.0003
    196  CE2      -58.3730  -46.9970  -28.7460 C.ar  134  PHE134     -0.0003
    197  CZ       -57.4080  -47.4380  -27.8730 C.ar  134  PHE134     -0.0000
    198  N        -65.3290  -48.4260  -30.2530 N.3   137  ILE137     -0.1245
    199  CA       -64.9620  -47.1870  -30.9330 C.3   137  ILE137      0.1561
    200  C        -65.0710  -47.3080  -32.4530 C.2   137  ILE137      0.2260
    201  O        -65.5740  -46.4150  -33.1400 O.2   137  ILE137     -0.2867
    202  CB       -63.5910  -46.6770  -30.5000 C.3   137  ILE137      0.0252
    203  CG1      -63.7570  -46.0810  -29.0990 C.3   137  ILE137      0.0019
    204  CG2      -63.1710  -45.5820  -31.4700 C.3   137  ILE137      0.0019
    205  CD1      -62.4730  -45.7220  -28.3500 C.3   137  ILE137      0.0001
@<TRIPOS>BOND
     1    42    44   ar
     2    42    40   ar
     3    44    43   ar
     4   167   166    2
     5    40    39   ar
     6    43    41   ar
     7    34    35    1
     8   145   144    2
     9   168   166   am
    10    28    29    1
    11    35    38    1
    12    35    36    1
    13    39    41   ar
    14    39    38    1
    15   166   165    1
    16   144   143    1
    17    48    47    2
    18   153   154    1
    19    36    45   am
    20    36    37    2
    21    29    30    1
    22    29    32    1
    23    47    46    1
    24    45    46    1
    25    30    31    2
    26   154   155    1
    27   154   157    1
    28   143   142    1
    29   143   146    1
    30   165   164    1
    31   155   156    2
    32   160   161    1
    33    46    49    1
    34    32    33    1
    35   146   147    1
    36   161   164    1
    37   161   162    1
    38   157   159    1
    39   157   158    1
    40   135   134    2
    41    49    50    1
    42   148   147   ar
    43   148   150   ar
    44   147   149   ar
    45    52    50   ar
    46    52    54   ar
    47   134   133    1
    48    50    51   ar
    49   162   169   am
    50   162   163    2
    51   150   152   ar
    52    23    22    2
    53   169   170    1
    54    54    55   ar
    55   149   151   ar
    56    51    53   ar
    57   133   136    1
    58   133   132    1
    59   126   125    2
    60    22    21    1
    61   152   151   ar
    62    55    53   ar
    63   136   137    1
    64   170   171    1
    65   170   173    1
    66   171   172    2
    67   125   132   am
    68   125   124    1
    69   176   178   ar
    70   176   174   ar
    71    26    25    1
    72    25    27    1
    73    25    24    1
    74   173   174    1
    75   180   181    1
    76   178   179   ar
    77    21    24    1
    78    21    20    1
    79   139   137   ar
    80   139   141   ar
    81   137   138   ar
    82   174   175   ar
    83   124   123    1
    84   124   127    1
    85   186   184    1
    86   179   177   ar
    87    15    14    2
    88   201   200    2
    89   181   184    1
    90   181   182    1
    91   141   140   ar
    92   138   140   ar
    93   175   177   ar
    94   127   128    1
    95   184   185    1
    96   115   114    2
    97   200   199    1
    98    18    17    1
    99   182   183    2
   100    14    13    1
   101    17    19    1
   102    17    16    1
   103    62    60    1
   104    61    60    1
   105   114   113    1
   106   128   129    1
   107   204   202    1
   108   190   189    2
   109   121   119   ar
   110   121   122   ar
   111    60    57    1
   112   199   202    1
   113   199   198    1
   114    13    16    1
   115    13    12    1
   116   119   117   ar
   117     4     3    2
   118   122   120   ar
   119   202   203    1
   120   129   130   ar
   121   129   131   ar
   122   189   188    1
   123   113   112    1
   124   113   116    1
   125    81    79    1
   126   117   116    1
   127   117   118   ar
   128    11    10   ar
   129    11     9   ar
   130   191   188    1
   131   191   192    1
   132    57    56    1
   133    57    58    1
   134    12     3   am
   135     3     2    1
   136   120   118   ar
   137    10     8   ar
   138   194   192   ar
   139   194   196   ar
   140     9     7   ar
   141   188   187    1
   142    79    78    1
   143   192   193   ar
   144   203   205    1
   145    58    59    2
   146   196   197   ar
   147     8     6   ar
   148    72    71    1
   149     7     6   ar
   150     2     1    1
   151     2     5    1
   152   193   195   ar
   153     6     5    1
   154   197   195   ar
   155    78    80    1
   156    78    75    1
   157    71    73    1
   158    71    70    2
   159    91    90    1
   160    69    70    1
   161    69    68    1
   162    75    74    1
   163    75    76    1
   164    67    68    1
   165    67    64    1
   166    74    65   am
   167   111   109   ar
   168   111   110   ar
   169    92    90    1
   170    90    89    2
   171   109   107   ar
   172    65    64    1
   173    65    66    2
   174   110   108   ar
   175    64    63    1
   176    76    77    2
   177    87    88    1
   178    87    86    1
   179    89    88    1
   180   107   106   ar
   181    86    83    1
   182    98    99    1
   183    98   100    1
   184    98    97    1
   185   108   106   ar
   186   106   105    1
   187    97    94    1
   188    93    94    1
   189    93    84   am
   190    83    84    1
   191    83    82    1
   192    94    95    1
   193    84    85    2
   194   105   102    1
   195    95    96    2
   196   102   101    1
   197   102   103    1
   198   103   104    2
