@<TRIPOS>MOLECULE
tmp/4mbcA00.pdb
 130 120 0 0 0
SMALL
GASTEIGER

@<TRIPOS>ATOM
      1  N         22.1280   28.6520   -2.4230 N.3    32  ILE32      -0.1245
      2  CA        21.6800   29.7600   -1.5930 C.3    32  ILE32       0.1561
      3  C         20.4370   30.4120   -2.1560 C.2    32  ILE32       0.2260
      4  O         19.4420   30.6680   -1.4230 O.2    32  ILE32      -0.2867
      5  CB        22.7890   30.7810   -1.3440 C.3    32  ILE32       0.0252
      6  CG1       24.0370   30.0640   -0.7150 C.3    32  ILE32       0.0019
      7  CG2       22.2610   31.9160   -0.4520 C.3    32  ILE32       0.0019
      8  CD1       23.8270   29.2430    0.5820 C.3    32  ILE32       0.0001
      9  N         17.3790   28.2380   -1.5480 N.3    35  ASN35      -0.1225
     10  CA        16.8410   28.3850   -0.1890 C.3    35  ASN35       0.1785
     11  C         15.9520   29.6460   -0.0670 C.2    35  ASN35       0.2597
     12  O         14.9290   29.5940    0.5930 O.2    35  ASN35      -0.2718
     13  CB        17.9500   28.4100    0.8400 C.3    35  ASN35       0.1169
     14  CG        18.6600   27.0740    0.9510 C.2    35  ASN35       0.2627
     15  OD1       18.1160   26.0310    0.5450 O.2    35  ASN35      -0.2716
     16  ND2       19.9000   27.1050    1.4300 N.am   35  ASN35      -0.0877
     17  N         16.3530   30.7640   -0.7030 N.am   36  ALA36      -0.1979
     18  CA        15.5530   32.0050   -0.6990 C.3    36  ALA36       0.1597
     19  C         14.2490   31.7940   -1.4730 C.2    36  ALA36       0.2287
     20  O         13.1820   32.1840   -1.0370 O.2    36  ALA36      -0.2864
     21  CB        16.3480   33.1680   -1.3060 C.3    36  ALA36       0.0319
     22  N         11.6600   29.6520    0.4460 N.3    39  GLU39      -0.1245
     23  CA        11.0300   30.4780    1.4440 C.3    39  GLU39       0.1567
     24  C          9.9110   31.3640    0.8010 C.2    39  GLU39       0.2260
     25  O          8.8180   31.4490    1.3350 O.2    39  GLU39      -0.2867
     26  CB        12.1050   31.2990    2.1450 C.3    39  GLU39       0.0388
     27  CG        11.5850   32.2380    3.2340 C.3    39  GLU39       0.1160
     28  CD        11.0340   31.5370    4.4990 C.2    39  GLU39       0.3649
     29  OE1       10.9860   30.2700    4.5790 O.co2  39  GLU39      -0.2457
     30  OE2       10.6350   32.2850    5.4450 O.co2  39  GLU39      -0.2457
     31  N         23.1400   37.0340   -1.1740 N.3    60  VAL60      -0.1245
     32  CA        21.7460   36.7860   -1.5090 C.3    60  VAL60       0.1561
     33  C         20.9410   37.2800   -0.3290 C.2    60  VAL60       0.2260
     34  O         21.2670   36.9450    0.8160 O.2    60  VAL60      -0.2867
     35  CB        21.4570   35.2630   -1.7360 C.3    60  VAL60       0.0252
     36  CG1       19.9610   35.0600   -2.1200 C.3    60  VAL60       0.0019
     37  CG2       22.4020   34.6630   -2.7640 C.3    60  VAL60       0.0019
     38  N         16.9580   37.6700    1.2250 N.3    62  ASP62      -0.1239
     39  CA        15.5390   37.4830    1.1320 C.3    62  ASP62       0.1674
     40  C         14.8460   38.2820    2.2520 C.2    62  ASP62       0.2266
     41  O         15.4900   38.7820    3.2070 O.2    62  ASP62      -0.2867
     42  CB        15.1650   35.9760    1.0810 C.3    62  ASP62       0.1410
     43  CG        15.1780   35.2820    2.4250 C.2    62  ASP62       0.3668
     44  OD1       14.6630   35.8190    3.4330 O.co2  62  ASP62      -0.2456
     45  OD2       15.5700   34.0730    2.4180 O.co2  62  ASP62      -0.2456
     46  N         10.8900   34.8360    6.5600 N.3    65  ARG65      -0.1231
     47  CA        10.6260   34.9150    7.9980 C.3    65  ARG65       0.1694
     48  C         11.9240   35.1520    8.8320 C.2    65  ARG65       0.2593
     49  O         11.8340   35.5780    9.9890 O.2    65  ARG65      -0.2718
     50  CB         9.9680   33.6480    8.5020 C.3    65  ARG65       0.0321
     51  CG         8.5720   33.4030    7.9270 C.3    65  ARG65       0.0489
     52  CD         8.1180   32.0020    8.1330 C.3    65  ARG65       0.2205
     53  NE         8.8090   31.0470    7.2500 N.pl3  65  ARG65      -0.0865
     54  CZ         8.4430   29.7830    7.0850 C.cat  65  ARG65       0.5346
     55  NH1        7.4290   29.2850    7.8100 N.pl3  65  ARG65       0.1354
     56  NH2        9.1280   28.9930    6.2400 N.pl3  65  ARG65       0.1354
     57  N         13.0790   34.8800    8.2220 N.am   66  GLY66      -0.1942
     58  CA        14.3810   34.8360    8.9320 C.3    66  GLY66       0.2014
     59  C         14.6290   33.4730    9.5020 C.2    66  GLY66       0.2639
     60  O         13.7170   32.8730   10.1260 O.2    66  GLY66      -0.2714
     61  N         15.8180   32.9130    9.2430 N.am   67  MET67      -0.1963
     62  CA        16.1700   31.6330    9.8800 C.3    67  MET67       0.1722
     63  C         15.9510   31.7210   11.3840 C.2    67  MET67       0.2458
     64  O         16.1360   32.7800   11.9850 O.2    67  MET67      -0.2730
     65  CB        17.6060   31.2280    9.5930 C.3    67  MET67       0.0427
     66  CG        17.9080   31.0540    8.1940 C.3    67  MET67       0.0599
     67  SD        19.6250   30.4750    8.0010 S.3    67  MET67      -0.1393
     68  CE        19.4980   28.8160    8.5650 C.3    67  MET67       0.0692
     69  N         15.5010   30.6110   12.0050 N.am   68  PRO68      -0.2727
     70  CA        15.3280   30.6550   13.4400 C.3    68  PRO68       0.1402
     71  C         16.6070   31.0800   14.1730 C.2    68  PRO68       0.2269
     72  O         17.7190   30.6690   13.8330 O.2    68  PRO68      -0.2865
     73  CB        14.9530   29.2080   13.8240 C.3    68  PRO68       0.0296
     74  CG        14.3600   28.6150   12.5120 C.3    68  PRO68       0.0237
     75  CD        15.1520   29.3000   11.4070 C.3    68  PRO68       0.0939
     76  N         20.8190   27.2430   16.3440 N.3    78  THR78      -0.1218
     77  CA        20.1980   26.5300   15.2130 C.3    78  THR78       0.1862
     78  C         20.8320   26.8770   13.8810 C.2    78  THR78       0.2287
     79  O         21.1260   25.9900   13.0850 O.2    78  THR78      -0.2866
     80  CB        18.6850   26.8560   15.2050 C.3    78  THR78       0.1770
     81  OG1       18.1690   26.4370   16.4760 O.3    78  THR78      -0.2211
     82  CG2       17.9630   26.1200   14.0700 C.3    78  THR78       0.0375
     83  N         22.7480   24.4690   11.1090 N.3    82  ILE82      -0.1245
     84  CA        22.3760   24.4660    9.6800 C.3    82  ILE82       0.1561
     85  C         23.6080   24.6300    8.7900 C.2    82  ILE82       0.2260
     86  O         23.7730   23.9290    7.7520 O.2    82  ILE82      -0.2867
     87  CB        21.3140   25.5670    9.3630 C.3    82  ILE82       0.0252
     88  CG1       19.9620   25.2360   10.0320 C.3    82  ILE82       0.0019
     89  CG2       21.0300   25.7010    7.8390 C.3    82  ILE82       0.0019
     90  CD1       19.0030   26.3810   10.1010 C.3    82  ILE82       0.0001
     91  N         23.2880   25.0320    2.6660 N.3    91  SER91      -0.1217
     92  CA        23.9750   26.0460    3.4360 C.3    91  SER91       0.1889
     93  C         25.3420   25.5380    3.9300 C.2    91  SER91       0.2288
     94  O         26.3240   26.2700    3.8150 O.2    91  SER91      -0.2866
     95  CB        23.0970   26.4820    4.6210 C.3    91  SER91       0.2089
     96  OG        21.8090   26.8860    4.1320 O.3    91  SER91      -0.2183
     97  N         14.6000   39.6470   12.4460 N.3   107  ARG107     -0.1245
     98  CA        13.2570   39.3160   12.9260 C.3   107  ARG107      0.1563
     99  C         13.0790   39.7190   14.3760 C.2   107  ARG107      0.2260
    100  O         14.0770   39.8410   15.1310 O.2   107  ARG107     -0.2867
    101  CB        12.8920   37.8410   12.7440 C.3   107  ARG107      0.0307
    102  CG        14.0000   36.8240   13.1300 C.3   107  ARG107      0.0489
    103  CD        13.5900   35.3910   12.8280 C.3   107  ARG107      0.2205
    104  NE        12.4930   34.9450   13.6780 N.pl3 107  ARG107     -0.0865
    105  CZ        11.8330   33.7990   13.4960 C.cat 107  ARG107      0.5346
    106  NH1       12.1550   32.9730   12.4930 N.pl3 107  ARG107      0.1354
    107  NH2       10.8450   33.4640   14.3360 N.pl3 107  ARG107      0.1354
    108  N         16.4820   36.8970    5.7450 N.3   139  THR139     -0.1203
    109  CA        17.7960   36.2560    5.8080 C.3   139  THR139      0.1994
    110  C         18.6980   36.8540    4.7140 C.2   139  THR139      0.2618
    111  O         18.2750   37.1070    3.5690 O.2   139  THR139     -0.2717
    112  CB        17.6840   34.7170    5.6330 C.3   139  THR139      0.1784
    113  OG1       16.7740   34.2040    6.6260 O.3   139  THR139     -0.2211
    114  CG2       19.0620   34.0080    5.7130 C.3   139  THR139      0.0376
    115  N         19.9520   37.0800    5.0830 N.am  140  LYS140     -0.1965
    116  CA        20.9870   37.5750    4.1510 C.3   140  LYS140      0.1728
    117  C         22.2180   36.6630    4.2990 C.2   140  LYS140      0.2616
    118  O         22.7010   36.4100    5.4090 O.2   140  LYS140     -0.2715
    119  CB        21.3350   39.0190    4.4590 C.3   140  LYS140      0.0311
    120  CG        22.3790   39.5860    3.4640 C.3   140  LYS140      0.0038
    121  CD        22.5270   41.0990    3.5000 C.3   140  LYS140      0.0206
    122  CE        22.8960   41.6470    4.8350 C.3   140  LYS140      0.1093
    123  NZ        23.2000   43.1560    4.7510 N.3   140  LYS140     -0.1314
    124  N         22.7240   36.1600    3.1940 N.am  141  VAL141     -0.1977
    125  CA        23.8920   35.2820    3.2180 C.3   141  VAL141      0.1596
    126  C         24.9010   35.8260    2.2300 C.2   141  VAL141      0.2287
    127  O         24.5760   36.1000    1.0590 O.2   141  VAL141     -0.2864
    128  CB        23.5440   33.8040    2.8480 C.3   141  VAL141      0.0276
    129  CG1       24.8020   32.8980    2.8180 C.3   141  VAL141      0.0022
    130  CG2       22.4640   33.1940    3.7770 C.3   141  VAL141      0.0022
@<TRIPOS>BOND
     1    37    35    1
     2     1     2    1
     3     3     2    1
     4     3     4    2
     5    36    35    1
     6    35    32    1
     7     2     5    1
     8     9    10    1
     9    32    31    1
    10    32    33    1
    11    19    20    2
    12    19    18    1
    13     5     6    1
    14     5     7    1
    15    21    18    1
    16     6     8    1
    17    17    18    1
    18    17    11   am
    19    33    34    2
    20    10    11    1
    21    10    13    1
    22    11    12    2
    23    22    23    1
    24    15    14    2
    25    24    25    2
    26    24    23    1
    27    13    14    1
    28    14    16   am
    29   127   126    2
    30    42    39    1
    31    42    43    1
    32    39    38    1
    33    39    40    1
    34    23    26    1
    35    26    27    1
    36   126   125    1
    37    40    41    2
    38    45    43   ar
    39    43    44   ar
    40    91    92    1
    41   129   128    1
    42   128   125    1
    43   128   130    1
    44   124   125    1
    45   124   117   am
    46    27    28    1
    47    92    93    1
    48    92    95    1
    49   120   121    1
    50   120   119    1
    51   121   122    1
    52   111   110    2
    53    94    93    2
    54    96    95    1
    55   116   117    1
    56   116   119    1
    57   116   115    1
    58   117   118    2
    59    28    29   ar
    60    28    30   ar
    61   110   115   am
    62   110   109    1
    63   123   122    1
    64   112   114    1
    65   112   109    1
    66   112   113    1
    67   108   109    1
    68    56    54    1
    69    46    47    1
    70    54    53    2
    71    54    55    1
    72    53    52    1
    73    86    85    2
    74    89    87    1
    75    51    52    1
    76    51    50    1
    77    47    50    1
    78    47    48    1
    79    67    66    1
    80    67    68    1
    81    66    65    1
    82    57    48   am
    83    57    58    1
    84    85    84    1
    85    48    49    2
    86    58    59    1
    87    61    59   am
    88    61    62    1
    89    87    84    1
    90    87    88    1
    91    59    60    2
    92    65    62    1
    93    84    83    1
    94    62    63    1
    95    88    90    1
    96    63    64    2
    97    63    69   am
    98    75    69    1
    99    75    74    1
   100    69    70    1
   101    97    98    1
   102   106   105    1
   103    74    73    1
   104   101    98    1
   105   101   102    1
   106   103   102    1
   107   103   104    1
   108    98    99    1
   109    79    78    2
   110    70    73    1
   111    70    71    1
   112   105   104    2
   113   105   107    1
   114    72    71    2
   115    78    77    1
   116    82    80    1
   117    99   100    2
   118    80    77    1
   119    80    81    1
   120    77    76    1
