@<TRIPOS>MOLECULE
tmp/4mbeC00.pdb
 82 77 0 0 0
SMALL
GASTEIGER

@<TRIPOS>ATOM
      1  N         -6.4600   -4.1890  -40.1580 N.3     5  ALA5       -0.1245
      2  CA        -6.1520   -5.0400  -39.0160 C.3     5  ALA5        0.1562
      3  C         -5.0210   -4.4400  -38.1770 C.2     5  ALA5        0.2260
      4  O         -5.0630   -4.4780  -36.9450 O.2     5  ALA5       -0.2867
      5  CB        -5.7860   -6.4420  -39.4850 C.3     5  ALA5        0.0290
      6  N         -6.3540   -1.2070  -36.3430 N.3     8  LYS8       -0.1231
      7  CA        -7.2090   -1.5130  -35.2070 C.3     8  LYS8        0.1693
      8  C         -6.4350   -2.1640  -34.0690 C.2     8  LYS8        0.2592
      9  O         -6.7550   -1.9510  -32.8980 O.2     8  LYS8       -0.2718
     10  CB        -8.3360   -2.4490  -35.6420 C.3     8  LYS8        0.0285
     11  CG        -9.3070   -1.8310  -36.6300 C.3     8  LYS8        0.0035
     12  CD       -10.2910   -2.8620  -37.1560 C.3     8  LYS8        0.0206
     13  CE       -11.3870   -3.1580  -36.1510 C.3     8  LYS8        0.1093
     14  NZ       -12.3570   -4.1610  -36.6690 N.3     8  LYS8       -0.1314
     15  N         -5.4100   -2.9430  -34.4020 N.am    9  SER9       -0.1952
     16  CA        -4.5600   -3.5350  -33.3770 C.3     9  SER9        0.1924
     17  C         -3.7530   -2.4570  -32.6740 C.2     9  SER9        0.2314
     18  O         -3.4920   -2.5250  -31.4750 O.2     9  SER9       -0.2863
     19  CB        -3.6140   -4.5600  -33.9970 C.3     9  SER9        0.2116
     20  OG        -2.5130   -4.8080  -33.1410 O.3     9  SER9       -0.2180
     21  N         -4.7060    0.7920  -32.5420 N.3    11  ILE11      -0.1231
     22  CA        -5.6610    1.6100  -31.8070 C.3    11  ILE11       0.1692
     23  C         -5.9450    0.9920  -30.4400 C.2    11  ILE11       0.2591
     24  O         -6.0260    1.7040  -29.4380 O.2    11  ILE11      -0.2718
     25  CB        -6.9950    1.7560  -32.5810 C.3    11  ILE11       0.0266
     26  CG1       -6.8360    2.7500  -33.7300 C.3    11  ILE11       0.0019
     27  CG2       -8.1260    2.2370  -31.6570 C.3    11  ILE11       0.0020
     28  CD1       -8.0150    2.7850  -34.6920 C.3    11  ILE11       0.0001
     29  N         -6.0870   -0.3300  -30.3920 N.am   12  GLN12      -0.1979
     30  CA        -6.3480   -0.9950  -29.1230 C.3    12  GLN12       0.1601
     31  C         -5.1400   -1.0440  -28.1910 C.2    12  GLN12       0.2287
     32  O         -5.2950   -0.9370  -26.9740 O.2    12  GLN12      -0.2864
     33  CB        -6.8940   -2.4090  -29.3360 C.3    12  GLN12       0.0394
     34  CG        -7.2430   -3.1130  -28.0180 C.3    12  GLN12       0.0908
     35  CD        -7.9010   -4.4650  -28.2130 C.2    12  GLN12       0.2608
     36  OE1       -8.6820   -4.6650  -29.1420 O.2    12  GLN12      -0.2717
     37  NE2       -7.5760   -5.4070  -27.3380 N.am   12  GLN12      -0.0878
     38  N         -5.1120    2.3260  -26.7560 N.3    15  LEU15      -0.1231
     39  CA        -6.2700    2.4860  -25.8770 C.3    15  LEU15       0.1693
     40  C         -5.9770    1.9550  -24.4720 C.2    15  LEU15       0.2591
     41  O         -6.3010    2.5980  -23.4740 O.2    15  LEU15      -0.2718
     42  CB        -7.4790    1.7550  -26.4730 C.3    15  LEU15       0.0284
     43  CG        -8.8250    1.8380  -25.7480 C.3    15  LEU15       0.0019
     44  CD1       -9.3760    3.2550  -25.7570 C.3    15  LEU15       0.0001
     45  CD2       -9.8150    0.8780  -26.3880 C.3    15  LEU15       0.0001
     46  N         -5.3460    0.7850  -24.4070 N.am   16  VAL16      -0.1980
     47  CA        -5.0080    0.1520  -23.1350 C.3    16  VAL16       0.1595
     48  C         -3.7830    0.7960  -22.4870 C.2    16  VAL16       0.2287
     49  O         -3.7680    1.0410  -21.2870 O.2    16  VAL16      -0.2864
     50  CB        -4.7340   -1.3580  -23.3240 C.3    16  VAL16       0.0276
     51  CG1       -4.2880   -2.0020  -22.0190 C.3    16  VAL16       0.0022
     52  CG2       -5.9680   -2.0540  -23.8600 C.3    16  VAL16       0.0022
     53  N         -8.6850    2.7590  -21.8620 N.3    21  TYR21      -0.1227
     54  CA        -9.5260    1.5740  -21.8330 C.3    21  TYR21       0.1736
     55  C        -10.2870    1.4880  -20.5130 C.2    21  TYR21       0.2595
     56  O        -11.5040    1.3060  -20.4980 O.2    21  TYR21      -0.2718
     57  CB        -8.7060    0.3000  -22.0240 C.3    21  TYR21       0.0548
     58  CG        -9.5050   -0.9230  -21.6670 C.ar   21  TYR21      -0.0200
     59  CD1      -10.5410   -1.3540  -22.4810 C.ar   21  TYR21      -0.0009
     60  CD2       -9.2540   -1.6210  -20.4970 C.ar   21  TYR21      -0.0009
     61  CE1      -11.2910   -2.4580  -22.1540 C.ar   21  TYR21       0.0417
     62  CE2      -10.0030   -2.7280  -20.1560 C.ar   21  TYR21       0.0417
     63  CZ       -11.0200   -3.1420  -20.9880 C.ar   21  TYR21       0.1957
     64  OH       -11.7710   -4.2430  -20.6590 O.3    21  TYR21      -0.2866
     65  N         -9.5660    1.6200  -19.4050 N.am   22  GLU22      -0.1979
     66  CA       -10.1880    1.5410  -18.0890 C.3    22  GLU22       0.1602
     67  C        -11.0880    2.7420  -17.8070 C.2    22  GLU22       0.2287
     68  O        -12.1730    2.5720  -17.2650 O.2    22  GLU22      -0.2864
     69  CB        -9.1440    1.3430  -16.9850 C.3    22  GLU22       0.0415
     70  CG        -8.4980   -0.0380  -17.0160 C.3    22  GLU22       0.1163
     71  CD        -7.4120   -0.2110  -15.9710 C.2    22  GLU22       0.3649
     72  OE1       -7.2980    0.6540  -15.0760 O.co2  22  GLU22      -0.2457
     73  OE2       -6.6770   -1.2190  -16.0380 O.co2  22  GLU22      -0.2457
     74  N        -28.2890   -8.5620  -26.9960 N.3    65  GLU65      -0.1245
     75  CA       -27.5360   -7.3240  -27.2060 C.3    65  GLU65       0.1567
     76  C        -28.3460   -6.2100  -27.8960 C.2    65  GLU65       0.2260
     77  O        -28.3040   -5.0640  -27.4530 O.2    65  GLU65      -0.2867
     78  CB       -26.2270   -7.6190  -27.9560 C.3    65  GLU65       0.0388
     79  CG       -25.2740   -6.4380  -28.0680 C.3    65  GLU65       0.1160
     80  CD       -24.0090   -6.7820  -28.8480 C.2    65  GLU65       0.3649
     81  OE1      -23.9510   -7.8880  -29.4290 O.co2  65  GLU65      -0.2457
     82  OE2      -23.0650   -5.9590  -28.8630 O.co2  65  GLU65      -0.2457
@<TRIPOS>BOND
     1     1     2    1
     2     5     2    1
     3     2     3    1
     4     3     4    2
     5    12    11    1
     6    12    13    1
     7    14    13    1
     8    11    10    1
     9     6     7    1
    10    10     7    1
    11     7     8    1
    12    28    26    1
    13    15     8   am
    14    15    16    1
    15     8     9    2
    16    19    16    1
    17    19    20    1
    18    26    25    1
    19    16    17    1
    20    17    18    2
    21    25    22    1
    22    25    27    1
    23    21    22    1
    24    22    23    1
    25    23    29   am
    26    23    24    2
    27    29    30    1
    28    81    80   ar
    29    33    30    1
    30    33    34    1
    31    36    35    2
    32    30    31    1
    33    82    80   ar
    34    80    79    1
    35    35    34    1
    36    35    37   am
    37    31    32    2
    38    79    78    1
    39    78    75    1
    40    76    77    2
    41    76    75    1
    42    75    74    1
    43    38    39    1
    44    42    39    1
    45    42    43    1
    46    45    43    1
    47    39    40    1
    48    44    43    1
    49    40    46   am
    50    40    41    2
    51    46    47    1
    52    52    50    1
    53    50    47    1
    54    50    51    1
    55    47    48    1
    56    48    49    2
    57    59    61   ar
    58    59    58   ar
    59    61    63   ar
    60    57    54    1
    61    57    58    1
    62    53    54    1
    63    54    55    1
    64    58    60   ar
    65    63    64    1
    66    63    62   ar
    67    55    56    2
    68    55    65   am
    69    60    62   ar
    70    65    66    1
    71    66    67    1
    72    66    69    1
    73    67    68    2
    74    70    69    1
    75    70    71    1
    76    73    71   ar
    77    71    72   ar
