@<TRIPOS>MOLECULE
tmp/4mbeF00.pdb
 87 83 0 0 0
SMALL
GASTEIGER

@<TRIPOS>ATOM
      1  N          5.0990  -29.3050  -25.7790 N.3     2  LYS2       -0.1231
      2  CA         4.1170  -29.8650  -26.6990 C.3     2  LYS2        0.1693
      3  C          4.3580  -29.2940  -28.0920 C.2     2  LYS2        0.2592
      4  O          3.9740  -29.8900  -29.0990 O.2     2  LYS2       -0.2718
      5  CB         2.6830  -29.6320  -26.2150 C.3     2  LYS2        0.0285
      6  CG         2.2520  -28.1780  -26.1040 C.3     2  LYS2        0.0035
      7  CD         0.8790  -28.0560  -25.4370 C.3     2  LYS2        0.0206
      8  CE        -0.1580  -28.9780  -26.0780 C.3     2  LYS2        0.1093
      9  NZ        -1.5360  -28.7580  -25.5560 N.3     2  LYS2       -0.1314
     10  N          4.9880  -28.1230  -28.1320 N.am    3  SER3       -0.1952
     11  CA         5.3740  -27.4880  -29.3860 C.3     3  SER3        0.1924
     12  C          6.3630  -28.3830  -30.1310 C.2     3  SER3        0.2314
     13  O          6.4320  -28.3600  -31.3600 O.2     3  SER3       -0.2863
     14  CB         6.0050  -26.1200  -29.1170 C.3     3  SER3        0.2116
     15  OG         7.2000  -26.2460  -28.3650 O.3     3  SER3       -0.2180
     16  N          6.3740  -31.7830  -30.0840 N.3     5  ILE5       -0.1231
     17  CA         5.6300  -32.8650  -30.7210 C.3     5  ILE5        0.1692
     18  C          5.0230  -32.3690  -32.0350 C.2     5  ILE5        0.2591
     19  O          5.0150  -33.0930  -33.0300 O.2     5  ILE5       -0.2718
     20  CB         4.5530  -33.4620  -29.7860 C.3     5  ILE5        0.0266
     21  CG1        5.2260  -34.3530  -28.7420 C.3     5  ILE5        0.0019
     22  CG2        3.5310  -34.2840  -30.5750 C.3     5  ILE5        0.0020
     23  CD1        4.3070  -34.8310  -27.6350 C.3     5  ILE5        0.0001
     24  N          4.5280  -31.1340  -32.0370 N.am    6  GLN6       -0.1979
     25  CA         3.9640  -30.5450  -33.2500 C.3     6  GLN6        0.1601
     26  C          5.0920  -30.2590  -34.2360 C.2     6  GLN6        0.2287
     27  O          4.9200  -30.3770  -35.4490 O.2     6  GLN6       -0.2864
     28  CB         3.2000  -29.2530  -32.9410 C.3     6  GLN6        0.0394
     29  CG         2.5050  -28.6590  -34.1670 C.3     6  GLN6        0.0908
     30  CD         1.6680  -27.4360  -33.8510 C.2     6  GLN6        0.2608
     31  OE1        1.0690  -27.3400  -32.7860 O.2     6  GLN6       -0.2717
     32  NE2        1.6130  -26.4980  -34.7880 N.am    6  GLN6       -0.0878
     33  N          5.5860  -33.5170  -35.7720 N.3     9  LEU9       -0.1231
     34  CA         4.4260  -33.8130  -36.6040 C.3     9  LEU9        0.1693
     35  C          4.5980  -33.1720  -37.9800 C.2     9  LEU9        0.2591
     36  O          4.3070  -33.7880  -39.0050 O.2     9  LEU9       -0.2718
     37  CB         3.1550  -33.2930  -35.9300 C.3     9  LEU9        0.0284
     38  CG         1.8150  -33.5640  -36.6210 C.3     9  LEU9        0.0019
     39  CD1        1.4990  -35.0520  -36.6480 C.3     9  LEU9        0.0001
     40  CD2        0.7030  -32.7930  -35.9250 C.3     9  LEU9        0.0001
     41  N          5.0830  -31.9330  -37.9880 N.am   10  VAL10      -0.1980
     42  CA         5.3010  -31.1850  -39.2250 C.3    10  VAL10       0.1595
     43  C          6.5610  -31.6370  -39.9650 C.2    10  VAL10       0.2287
     44  O          6.5470  -31.7780  -41.1870 O.2    10  VAL10      -0.2864
     45  CB         5.3930  -29.6660  -38.9370 C.3    10  VAL10       0.0276
     46  CG1        5.7470  -28.8790  -40.1970 C.3    10  VAL10       0.0022
     47  CG2        4.0860  -29.1620  -38.3470 C.3    10  VAL10       0.0022
     48  N          1.9510  -34.4450  -40.5410 N.3    15  TYR15      -0.1227
     49  CA         0.9490  -33.3910  -40.4980 C.3    15  TYR15       0.1736
     50  C          0.1810  -33.3570  -41.8140 C.2    15  TYR15       0.2595
     51  O         -1.0490  -33.3200  -41.8310 O.2    15  TYR15      -0.2718
     52  CB         1.5820  -32.0230  -40.2430 C.3    15  TYR15       0.0548
     53  CG         0.6170  -30.8970  -40.5060 C.ar   15  TYR15      -0.0200
     54  CD1       -0.4500  -30.6610  -39.6470 C.ar   15  TYR15      -0.0009
     55  CD2        0.7540  -30.0850  -41.6210 C.ar   15  TYR15      -0.0009
     56  CE1       -1.3460  -29.6430  -39.8840 C.ar   15  TYR15       0.0417
     57  CE2       -0.1400  -29.0600  -41.8690 C.ar   15  TYR15       0.0417
     58  CZ        -1.1880  -28.8460  -40.9960 C.ar   15  TYR15       0.1957
     59  OH        -2.0820  -27.8320  -41.2290 O.3    15  TYR15      -0.2866
     60  N          0.9260  -33.3620  -42.9120 N.am   16  GLU16      -0.1979
     61  CA         0.3450  -33.3090  -44.2420 C.3    16  GLU16       0.1602
     62  C         -0.3930  -34.6060  -44.5360 C.2    16  GLU16       0.2287
     63  O         -1.5060  -34.5980  -45.0590 O.2    16  GLU16      -0.2864
     64  CB         1.4570  -33.1470  -45.2760 C.3    16  GLU16       0.0415
     65  CG         2.1940  -31.8250  -45.2200 C.3    16  GLU16       0.1163
     66  CD         3.3480  -31.7760  -46.2040 C.2    16  GLU16       0.3649
     67  OE1        3.4200  -32.6650  -47.0790 O.co2  16  GLU16      -0.2457
     68  OE2        4.1970  -30.8680  -46.0900 O.co2  16  GLU16      -0.2457
     69  N        -14.2930  -15.3740  -35.7430 N.3    51  PHE51      -0.1241
     70  CA       -14.2190  -16.8290  -35.8550 C.3    51  PHE51       0.1605
     71  C        -14.3980  -17.5670  -34.5250 C.2    51  PHE51       0.2264
     72  O        -14.9110  -18.6870  -34.5040 O.2    51  PHE51      -0.2867
     73  CB       -12.8930  -17.2430  -36.4960 C.3    51  PHE51       0.0534
     74  CG       -12.6670  -18.7280  -36.5120 C.ar   51  PHE51      -0.0203
     75  CD1      -13.4340  -19.5510  -37.3190 C.ar   51  PHE51      -0.0042
     76  CD2      -11.6880  -19.3010  -35.7190 C.ar   51  PHE51      -0.0042
     77  CE1      -13.2280  -20.9190  -37.3360 C.ar   51  PHE51      -0.0003
     78  CE2      -11.4770  -20.6670  -35.7310 C.ar   51  PHE51      -0.0003
     79  CZ       -12.2470  -21.4770  -36.5420 C.ar   51  PHE51      -0.0000
     80  N          2.2060  -40.7980  -32.5670 N.3    82  LEU82      -0.1245
     81  CA         2.5600  -40.5040  -31.1820 C.3    82  LEU82       0.1561
     82  C          3.2470  -41.7050  -30.5610 C.2    82  LEU82       0.2260
     83  O          4.1670  -41.5590  -29.7620 O.2    82  LEU82      -0.2867
     84  CB         1.3280  -40.1330  -30.3540 C.3    82  LEU82       0.0270
     85  CG         0.7530  -38.7240  -30.5140 C.3    82  LEU82       0.0019
     86  CD1       -0.5310  -38.6000  -29.7110 C.3    82  LEU82       0.0001
     87  CD2        1.7550  -37.6590  -30.0850 C.3    82  LEU82       0.0001
@<TRIPOS>BOND
     1    67    66   ar
     2    66    68   ar
     3    66    65    1
     4    64    65    1
     5    64    61    1
     6    63    62    2
     7    62    61    1
     8    61    60    1
     9    60    50   am
    10    57    55   ar
    11    57    58   ar
    12    51    50    2
    13    50    49    1
    14    55    53   ar
    15    59    58    1
    16    44    43    2
    17    58    56   ar
    18    48    49    1
    19    53    52    1
    20    53    54   ar
    21    49    52    1
    22    46    45    1
    23    43    42    1
    24    56    54   ar
    25    42    45    1
    26    42    41    1
    27    36    35    2
    28    45    47    1
    29    41    35   am
    30    35    34    1
    31    77    75   ar
    32    77    79   ar
    33    75    74   ar
    34    39    38    1
    35    38    37    1
    36    38    40    1
    37    34    37    1
    38    34    33    1
    39    79    78   ar
    40    74    73    1
    41    74    76   ar
    42    73    70    1
    43    70    69    1
    44    70    71    1
    45    78    76   ar
    46    27    26    2
    47    32    30   am
    48    71    72    2
    49    26    25    1
    50    29    30    1
    51    29    28    1
    52    30    31    2
    53    25    28    1
    54    25    24    1
    55    19    18    2
    56    80    81    1
    57    24    18   am
    58    18    17    1
    59    13    12    2
    60    81    82    1
    61    81    84    1
    62    17    16    1
    63    17    20    1
    64    22    20    1
    65    82    83    2
    66    85    84    1
    67    85    87    1
    68    85    86    1
    69    12    11    1
    70    20    21    1
    71    11    14    1
    72    11    10    1
    73    14    15    1
    74     4     3    2
    75    21    23    1
    76    10     3   am
    77     3     2    1
    78     2     5    1
    79     2     1    1
    80     5     6    1
    81     6     7    1
    82     8     9    1
    83     8     7    1
