@<TRIPOS>MOLECULE
tmp/4mbeC01.pdb
 82 78 0 0 0
SMALL
GASTEIGER

@<TRIPOS>ATOM
      1  N          0.0320    1.4820  -46.6830 N.3     1  THR1       -0.1203
      2  CA         1.0560    0.9860  -45.7710 C.3     1  THR1        0.1994
      3  C          0.4230    0.1520  -44.6610 C.2     1  THR1        0.2617
      4  O          0.6580   -1.0520  -44.5640 O.2     1  THR1       -0.2717
      5  CB         1.8600    2.1470  -45.1430 C.3     1  THR1        0.1784
      6  OG1        2.4680    2.9280  -46.1790 O.3     1  THR1       -0.2211
      7  CG2        2.9480    1.6190  -44.2090 C.3     1  THR1        0.0376
      8  N         -0.3780    0.8020  -43.8240 N.am    2  MET2       -0.1979
      9  CA        -1.0320    0.1410  -42.7010 C.3     2  MET2        0.1605
     10  C         -2.4210   -0.3290  -43.1020 C.2     2  MET2        0.2287
     11  O         -3.2430    0.4790  -43.5400 O.2     2  MET2       -0.2864
     12  CB        -1.1410    1.1090  -41.5250 C.3     2  MET2        0.0413
     13  CG         0.2000    1.5850  -40.9930 C.3     2  MET2        0.0598
     14  SD         1.1100    0.2710  -40.1750 S.3     2  MET2       -0.1393
     15  CE         0.1170    0.0730  -38.7150 C.3     2  MET2        0.0692
     16  N         -4.0730   -1.1700  -38.1120 N.3     7  LEU7       -0.1245
     17  CA        -4.6250    0.0450  -37.5270 C.3     7  LEU7        0.1561
     18  C         -5.4530   -0.2350  -36.2670 C.2     7  LEU7        0.2260
     19  O         -5.2720    0.4170  -35.2370 O.2     7  LEU7       -0.2867
     20  CB        -5.4680    0.7900  -38.5660 C.3     7  LEU7        0.0270
     21  CG        -4.6700    1.4280  -39.7100 C.3     7  LEU7        0.0019
     22  CD1       -5.5830    1.8290  -40.8590 C.3     7  LEU7        0.0001
     23  CD2       -3.8910    2.6360  -39.2090 C.3     7  LEU7        0.0001
     24  N         -3.3730   -1.4470  -33.4410 N.3    10  GLN10      -0.1231
     25  CA        -2.5910   -0.3390  -32.9250 C.3    10  GLN10       0.1698
     26  C         -3.4800    0.5730  -32.0790 C.2    10  GLN10       0.2592
     27  O         -3.0680    1.0590  -31.0280 O.2    10  GLN10      -0.2718
     28  CB        -1.9450    0.4090  -34.0880 C.3    10  GLN10       0.0381
     29  CG        -0.6910    1.1640  -33.7320 C.3    10  GLN10       0.0905
     30  CD        -0.0410    1.7930  -34.9500 C.2    10  GLN10       0.2608
     31  OE1       -0.3620    1.4340  -36.0790 O.2    10  GLN10      -0.2717
     32  NE2        0.8910    2.7160  -34.7260 N.am   10  GLN10      -0.0878
     33  N         -4.7060    0.7920  -32.5420 N.am   11  ILE11      -0.1980
     34  CA        -5.6610    1.6100  -31.8070 C.3    11  ILE11       0.1595
     35  C         -5.9450    0.9920  -30.4400 C.2    11  ILE11       0.2287
     36  O         -6.0260    1.7040  -29.4380 O.2    11  ILE11      -0.2864
     37  CB        -6.9950    1.7560  -32.5810 C.3    11  ILE11       0.0276
     38  CG1       -6.8360    2.7500  -33.7300 C.3    11  ILE11       0.0022
     39  CG2       -8.1260    2.2370  -31.6570 C.3    11  ILE11       0.0022
     40  CD1       -8.0150    2.7850  -34.6920 C.3    11  ILE11       0.0001
     41  N         -2.9130    1.1710  -27.9430 N.3    14  TYR14      -0.1241
     42  CA        -2.7880    2.5250  -27.4270 C.3    14  TYR14       0.1605
     43  C         -3.9200    2.8440  -26.4660 C.2    14  TYR14       0.2264
     44  O         -3.7140    3.5510  -25.4830 O.2    14  TYR14      -0.2867
     45  CB        -2.7830    3.5340  -28.5760 C.3    14  TYR14       0.0534
     46  CG        -1.6110    3.3960  -29.5280 C.ar   14  TYR14      -0.0201
     47  CD1       -0.5370    2.5590  -29.2350 C.ar   14  TYR14      -0.0009
     48  CD2       -1.5830    4.0980  -30.7240 C.ar   14  TYR14      -0.0009
     49  CE1        0.5260    2.4330  -30.1030 C.ar   14  TYR14       0.0417
     50  CE2       -0.5230    3.9780  -31.5980 C.ar   14  TYR14       0.0417
     51  CZ         0.5300    3.1440  -31.2840 C.ar   14  TYR14       0.1957
     52  OH         1.5900    3.0180  -32.1560 O.3    14  TYR14      -0.2866
     53  N         -5.2760   10.6000  -31.5190 N.3    91  ILE91      -0.1231
     54  CA        -4.3510    9.5130  -31.8180 C.3    91  ILE91       0.1692
     55  C         -4.2030    9.3280  -33.3340 C.2    91  ILE91       0.2592
     56  O         -3.1450    8.9190  -33.8160 O.2    91  ILE91      -0.2718
     57  CB        -4.8340    8.1820  -31.1380 C.3    91  ILE91       0.0266
     58  CG1       -3.6560    7.3320  -30.6480 C.3    91  ILE91       0.0019
     59  CG2       -5.7710    7.3730  -32.0460 C.3    91  ILE91       0.0020
     60  CD1       -2.8570    7.9650  -29.5130 C.3    91  ILE91       0.0001
     61  N         -5.2590    9.6390  -34.0790 N.am   92  VAL92      -0.1966
     62  CA        -5.2330    9.5500  -35.5380 C.3    92  VAL92       0.1727
     63  C         -4.5250   10.7670  -36.1450 C.2    92  VAL92       0.2616
     64  O         -4.7890   11.8940  -35.7470 O.2    92  VAL92      -0.2715
     65  CB        -6.6660    9.4500  -36.0990 C.3    92  VAL92       0.0290
     66  CG1       -6.6580    9.4450  -37.6240 C.3    92  VAL92       0.0023
     67  CG2       -7.3450    8.1930  -35.5830 C.3    92  VAL92       0.0023
     68  N         -3.6480   10.5360  -37.1210 N.am   93  ASP93      -0.1957
     69  CA        -2.8270   11.6060  -37.6970 C.3    93  ASP93       0.1840
     70  C         -3.4940   12.3180  -38.8760 C.2    93  ASP93       0.2622
     71  O         -4.6200   12.0010  -39.2520 O.2    93  ASP93      -0.2715
     72  CB        -1.4710   11.0490  -38.1540 C.3    93  ASP93       0.1450
     73  CG        -0.4810   10.8930  -37.0140 C.2    93  ASP93       0.3671
     74  OD1       -0.7230   11.4430  -35.9180 O.co2  93  ASP93      -0.2456
     75  OD2        0.5520   10.2220  -37.2240 O.co2  93  ASP93      -0.2456
     76  N         -2.7720   13.2860  -39.4410 N.am   94  THR94      -0.1951
     77  CA        -3.2040   14.0340  -40.6220 C.3    94  THR94       0.1897
     78  C         -4.4580   14.8470  -40.3260 C.2    94  THR94       0.2313
     79  O         -4.3880   15.8980  -39.6880 O.2    94  THR94      -0.2863
     80  CB        -3.4600   13.1050  -41.8300 C.3    94  THR94       0.1794
     81  OG1       -2.3500   12.2150  -41.9990 O.3    94  THR94      -0.2208
     82  CG2       -3.6520   13.9160  -43.1030 C.3    94  THR94       0.0378
@<TRIPOS>BOND
     1     1     2    1
     2     6     5    1
     3     2     5    1
     4     2     3    1
     5     5     7    1
     6     3     4    2
     7     3     8   am
     8     8     9    1
     9    11    10    2
    10    82    80    1
    11    10     9    1
    12     9    12    1
    13    81    80    1
    14    80    77    1
    15    12    13    1
    16    13    14    1
    17    22    21    1
    18    77    78    1
    19    77    76    1
    20    78    79    2
    21    14    15    1
    22    21    23    1
    23    21    20    1
    24    76    70   am
    25    71    70    2
    26    70    69    1
    27    20    17    1
    28    72    69    1
    29    72    73    1
    30    16    17    1
    31    69    68    1
    32    66    65    1
    33    17    18    1
    34    75    73   ar
    35    68    63   am
    36    73    74   ar
    37    18    19    2
    38    63    64    2
    39    63    62    1
    40    65    67    1
    41    65    62    1
    42    31    30    2
    43    62    61    1
    44    30    32   am
    45    30    29    1
    46    40    38    1
    47    28    29    1
    48    28    25    1
    49    61    55   am
    50    56    55    2
    51    38    37    1
    52    24    25    1
    53    55    54    1
    54    25    26    1
    55    37    34    1
    56    37    39    1
    57    33    26   am
    58    33    34    1
    59    52    51    1
    60    26    27    2
    61    59    57    1
    62    54    53    1
    63    54    57    1
    64    34    35    1
    65    50    51   ar
    66    50    48   ar
    67    51    49   ar
    68    57    58    1
    69    48    46   ar
    70    58    60    1
    71    35    36    2
    72    49    47   ar
    73    46    47   ar
    74    46    45    1
    75    45    42    1
    76    41    42    1
    77    42    43    1
    78    43    44    2
