@<TRIPOS>MOLECULE
tmp/4mbfA01.pdb
 88 81 0 0 0
SMALL
GASTEIGER

@<TRIPOS>ATOM
      1  N         15.6480   28.3090   -0.5640 N.3   192  ALA192     -0.1245
      2  CA        17.0330   28.4260   -0.1250 C.3   192  ALA192      0.1562
      3  C         17.8470   27.1420   -0.3700 C.2   192  ALA192      0.2260
      4  O         19.0790   27.2190   -0.5140 O.2   192  ALA192     -0.2867
      5  CB        17.1070   28.8500    1.3480 C.3   192  ALA192      0.0290
      6  N         20.2890   27.1220   -3.3380 N.3   195  LEU195     -0.1231
      7  CA        21.3240   28.1370   -3.0940 C.3   195  LEU195      0.1693
      8  C         22.3130   27.6480   -2.0410 C.2   195  LEU195      0.2591
      9  O         23.5180   27.7960   -2.1940 O.2   195  LEU195     -0.2718
     10  CB        20.6870   29.4510   -2.6450 C.3   195  LEU195      0.0284
     11  CG        21.6440   30.5760   -2.2250 C.3   195  LEU195      0.0019
     12  CD1       22.5710   30.9830   -3.3980 C.3   195  LEU195      0.0001
     13  CD2       20.8620   31.7660   -1.7020 C.3   195  LEU195      0.0001
     14  N         21.8140   27.0680   -0.9640 N.am  196  ILE196     -0.1980
     15  CA        22.7170   26.5110    0.0420 C.3   196  ILE196      0.1595
     16  C         23.6030   25.3840   -0.5340 C.2   196  ILE196      0.2287
     17  O         24.8310   25.3400   -0.3000 O.2   196  ILE196     -0.2864
     18  CB        21.9150   26.0340    1.2900 C.3   196  ILE196      0.0276
     19  CG1       21.2800   27.2380    2.0140 C.3   196  ILE196      0.0022
     20  CG2       22.8390   25.2920    2.2440 C.3   196  ILE196      0.0022
     21  CD1       20.1850   26.8720    3.0300 C.3   196  ILE196      0.0001
     22  N         26.7780   26.4220   -2.3430 N.3   199  VAL199     -0.1245
     23  CA        27.9240   26.9200   -1.5680 C.3   199  VAL199      0.1561
     24  C         28.4170   25.8860   -0.5560 C.2   199  VAL199      0.2260
     25  O         29.4230   26.0920    0.1400 O.2   199  VAL199     -0.2867
     26  CB        27.6680   28.3110   -0.9080 C.3   199  VAL199      0.0252
     27  CG1       27.5070   29.4000   -1.9920 C.3   199  VAL199      0.0019
     28  CG2       26.4500   28.2980    0.0450 C.3   199  VAL199      0.0019
     29  N         13.4640   28.5430    5.6540 N.3   210  THR210     -0.1218
     30  CA        13.9580   29.8620    6.0270 C.3   210  THR210      0.1862
     31  C         12.8110   30.8080    6.3160 C.2   210  THR210      0.2287
     32  O         11.6600   30.5370    6.0050 O.2   210  THR210     -0.2866
     33  CB        14.8880   30.4770    4.9480 C.3   210  THR210      0.1770
     34  OG1       14.1680   30.6310    3.7210 O.3   210  THR210     -0.2211
     35  CG2       16.1190   29.5970    4.7260 C.3   210  THR210      0.0375
     36  N         15.4770   37.3980   10.5340 N.3   218  ARG218     -0.1231
     37  CA        15.8980   36.4200    9.5430 C.3   218  ARG218      0.1694
     38  C         16.1010   35.1080   10.2590 C.2   218  ARG218      0.2593
     39  O         16.4810   35.0800   11.4320 O.2   218  ARG218     -0.2718
     40  CB        17.2260   36.8790    8.9200 C.3   218  ARG218      0.0321
     41  CG        17.7170   36.0310    7.7470 C.3   218  ARG218      0.0489
     42  CD        16.8490   36.2590    6.5510 C.3   218  ARG218      0.2205
     43  NE        17.3870   35.6690    5.2970 N.pl3 218  ARG218     -0.0865
     44  CZ        16.6970   34.8680    4.4870 C.cat 218  ARG218      0.5346
     45  NH1       17.2330   34.4750    3.3320 N.pl3 218  ARG218      0.1354
     46  NH2       15.4770   34.4650    4.8180 N.pl3 218  ARG218      0.1354
     47  N         15.8580   34.0020    9.5870 N.am  219  GLY219     -0.1942
     48  CA        16.0870   32.7440   10.2850 C.3   219  GLY219      0.2014
     49  C         16.1290   31.5460    9.3790 C.2   219  GLY219      0.2638
     50  O         15.6850   31.5820    8.2240 O.2   219  GLY219     -0.2714
     51  N         16.6540   30.4630    9.9500 N.am  220  ILE220     -0.1977
     52  CA        16.6520   29.1850    9.2470 C.3   220  ILE220      0.1596
     53  C         16.5600   28.0700   10.2620 C.2   220  ILE220      0.2287
     54  O         17.2110   28.1120   11.3080 O.2   220  ILE220     -0.2864
     55  CB        17.9210   29.0250    8.3370 C.3   220  ILE220      0.0276
     56  CG1       17.8880   27.6850    7.5780 C.3   220  ILE220      0.0022
     57  CG2       19.2500   29.1750    9.1200 C.3   220  ILE220      0.0022
     58  CD1       18.9990   27.5790    6.4990 C.3   220  ILE220      0.0001
     59  N         22.1700   37.2290    5.1760 N.3   249  ASN249     -0.1225
     60  CA        22.4790   35.9180    4.5680 C.3   249  ASN249      0.1785
     61  C         23.9330   35.4890    4.7370 C.2   249  ASN249      0.2597
     62  O         24.2330   34.3100    5.0590 O.2   249  ASN249     -0.2718
     63  CB        22.1380   35.9150    3.0890 C.3   249  ASN249      0.1169
     64  CG        20.6700   35.9480    2.8340 C.2   249  ASN249      0.2627
     65  OD1       19.8620   35.6550    3.7350 O.2   249  ASN249     -0.2716
     66  ND2       20.2990   36.3160    1.6060 N.am  249  ASN249     -0.0877
     67  N         24.8360   36.4400    4.5140 N.am  250  GLN250     -0.1979
     68  CA        26.2740   36.1500    4.5700 C.3   250  GLN250      0.1601
     69  C         26.7120   35.8000    5.9840 C.2   250  GLN250      0.2287
     70  O         27.5640   34.9280    6.1570 O.2   250  GLN250     -0.2864
     71  CB        27.0940   37.3180    4.0180 C.3   250  GLN250      0.0394
     72  CG        26.9550   37.4900    2.5200 C.3   250  GLN250      0.0908
     73  CD        27.3610   38.8780    2.0560 C.2   250  GLN250      0.2608
     74  OE1       28.0670   39.6100    2.7700 O.2   250  GLN250     -0.2717
     75  NE2       26.8880   39.2630    0.8710 N.am  250  GLN250     -0.0878
     76  N         24.7890   34.4410    8.3760 N.3   252  ILE252     -0.1231
     77  CA        24.2710   33.1090    8.6760 C.3   252  ILE252      0.1692
     78  C         25.1450   32.0650    7.9800 C.2   252  ILE252      0.2591
     79  O         25.4850   31.0410    8.5910 O.2   252  ILE252     -0.2718
     80  CB        22.7890   32.9750    8.2500 C.3   252  ILE252      0.0266
     81  CG1       21.9360   33.8770    9.1500 C.3   252  ILE252      0.0019
     82  CG2       22.3180   31.5030    8.3830 C.3   252  ILE252      0.0020
     83  CD1       20.4540   33.8740    8.7880 C.3   252  ILE252      0.0001
     84  N         25.5060   32.3310    6.7230 N.am  253  ALA253     -0.1980
     85  CA        26.3910   31.4150    5.9800 C.3   253  ALA253      0.1597
     86  C         27.7300   31.3110    6.6730 C.2   253  ALA253      0.2287
     87  O         28.3040   30.2260    6.7110 O.2   253  ALA253     -0.2864
     88  CB        26.6030   31.8860    4.5070 C.3   253  ALA253      0.0319
@<TRIPOS>BOND
     1    12    11    1
     2     6     7    1
     3     7    10    1
     4     7     8    1
     5    10    11    1
     6    22    23    1
     7    11    13    1
     8     9     8    2
     9     8    14   am
    10    27    26    1
    11    23    26    1
    12    23    24    1
    13    14    15    1
    14    26    28    1
    15     1     2    1
    16    24    25    2
    17    16    17    2
    18    16    15    1
    19     4     3    2
    20     3     2    1
    21     2     5    1
    22    15    18    1
    23    75    73   am
    24    18    19    1
    25    18    20    1
    26    66    64   am
    27    19    21    1
    28    73    72    1
    29    73    74    2
    30    72    71    1
    31    64    63    1
    32    64    65    2
    33    63    60    1
    34    45    44    1
    35    34    33    1
    36    71    68    1
    37    44    46    1
    38    44    43    2
    39    88    85    1
    40    67    68    1
    41    67    61   am
    42    60    61    1
    43    60    59    1
    44    68    69    1
    45    35    33    1
    46    61    62    2
    47    33    30    1
    48    43    42    1
    49    29    30    1
    50    85    86    1
    51    85    84    1
    52    69    70    2
    53    32    31    2
    54    30    31    1
    55    58    56    1
    56    42    41    1
    57    86    87    2
    58    84    78   am
    59    56    55    1
    60    41    40    1
    61    78    79    2
    62    78    77    1
    63    50    49    2
    64    80    82    1
    65    80    77    1
    66    80    81    1
    67    55    57    1
    68    55    52    1
    69    76    77    1
    70    83    81    1
    71    40    37    1
    72    52    51    1
    73    52    53    1
    74    49    51   am
    75    49    48    1
    76    37    38    1
    77    37    36    1
    78    47    38   am
    79    47    48    1
    80    38    39    2
    81    53    54    2
