@<TRIPOS>MOLECULE
tmp/4mbfA02.pdb
 94 87 0 0 0
SMALL
GASTEIGER

@<TRIPOS>ATOM
      1  N          8.8140   33.8600   11.9500 N.3    44  MET44      -0.1230
      2  CA         8.5800   34.1720   10.5470 C.3    44  MET44       0.1702
      3  C          8.1020   32.9080    9.8340 C.2    44  MET44       0.2593
      4  O          7.3580   32.0910   10.4040 O.2    44  MET44      -0.2718
      5  CB         9.8550   34.7640    9.9040 C.3    44  MET44       0.0401
      6  CG        10.4510   35.9190   10.7220 C.3    44  MET44       0.0596
      7  SD        12.2460   36.0090   10.5130 S.3    44  MET44      -0.1393
      8  CE        12.7680   34.4400   11.2400 C.3    44  MET44       0.0692
      9  N          8.5600   32.7080    8.5970 N.am   45  SER45      -0.1952
     10  CA         8.0490   31.5700    7.8340 C.3    45  SER45       0.1924
     11  C          8.5290   30.2270    8.3320 C.2    45  SER45       0.2314
     12  O          8.0520   29.2070    7.8370 O.2    45  SER45      -0.2863
     13  CB         8.4200   31.6610    6.3640 C.3    45  SER45       0.2116
     14  OG         7.7390   32.7470    5.7540 O.3    45  SER45      -0.2180
     15  N          6.0780   27.3820    9.3710 N.3    48  LYS48      -0.1245
     16  CA         5.3660   26.5100    8.3970 C.3    48  LYS48       0.1561
     17  C          5.7240   25.0400    8.5860 C.2    48  LYS48       0.2260
     18  O          4.9130   24.1500    8.2880 O.2    48  LYS48      -0.2867
     19  CB         5.6160   26.9920    6.9720 C.3    48  LYS48       0.0271
     20  CG         4.7810   28.2860    6.6670 C.3    48  LYS48       0.0035
     21  CD         5.3250   29.0500    5.4660 C.3    48  LYS48       0.0206
     22  CE         4.5580   30.3760    5.3030 C.3    48  LYS48       0.1093
     23  NZ         5.2470   31.3320    4.4040 N.3    48  LYS48      -0.1314
     24  N         -0.6990   38.1600    0.4400 N.3    79  ASP79      -0.1225
     25  CA         0.5310   38.4890   -0.2440 C.3    79  ASP79       0.1805
     26  C          1.4610   37.2850   -0.3170 C.2    79  ASP79       0.2597
     27  O          1.7570   36.6770    0.6860 O.2    79  ASP79      -0.2718
     28  CB         1.2160   39.6250    0.5350 C.3    79  ASP79       0.1424
     29  CG         2.4550   40.1670   -0.1740 C.2    79  ASP79       0.3668
     30  OD1        2.5970   40.0100   -1.3980 O.co2  79  ASP79      -0.2456
     31  OD2        3.2940   40.7700    0.5360 O.co2  79  ASP79      -0.2456
     32  N          1.9200   36.9880   -1.5230 N.am   80  TYR80      -0.1976
     33  CA         2.9050   35.9610   -1.8420 C.3    80  TYR80       0.1639
     34  C          2.2870   34.5750   -1.8630 C.2    80  TYR80       0.2290
     35  O          2.3690   33.7910   -0.9000 O.2    80  TYR80      -0.2864
     36  CB         4.1810   36.0210   -0.9920 C.3    80  TYR80       0.0560
     37  CG         5.2940   35.3170   -1.7100 C.ar   80  TYR80      -0.0198
     38  CD1        5.8700   35.8970   -2.8260 C.ar   80  TYR80      -0.0009
     39  CD2        5.7200   34.0320   -1.3220 C.ar   80  TYR80      -0.0009
     40  CE1        6.8510   35.2510   -3.5590 C.ar   80  TYR80       0.0417
     41  CE2        6.7230   33.3740   -2.0520 C.ar   80  TYR80       0.0417
     42  CZ         7.2750   33.9940   -3.1680 C.ar   80  TYR80       0.1957
     43  OH         8.2730   33.3960   -3.9130 O.3    80  TYR80      -0.2866
     44  N          7.2060   28.6780    0.4230 N.3   105  SER105     -0.1217
     45  CA         6.7770   29.7210    1.3950 C.3   105  SER105      0.1889
     46  C          5.5210   30.4350    0.8950 C.2   105  SER105      0.2288
     47  O          5.3200   31.6590    1.0790 O.2   105  SER105     -0.2866
     48  CB         7.9020   30.7200    1.7710 C.3   105  SER105      0.2089
     49  OG         7.7690   31.0330    3.1500 O.3   105  SER105     -0.2183
     50  N          2.1420   31.8590    1.1640 N.3   107  ASN107     -0.1240
     51  CA         1.4230   32.3360    2.3530 C.3   107  ASN107      0.1653
     52  C         -0.0480   31.9880    2.4140 C.2   107  ASN107      0.2266
     53  O         -0.5770   31.7330    3.5050 O.2   107  ASN107     -0.2867
     54  CB         1.6120   33.8430    2.5320 C.3   107  ASN107      0.1155
     55  CG         3.0120   34.1840    2.9580 C.2   107  ASN107      0.2627
     56  OD1        3.6370   33.4700    3.7670 O.2   107  ASN107     -0.2716
     57  ND2        3.5250   35.2740    2.4300 N.am  107  ASN107     -0.0877
     58  N         -0.7070   34.6790    8.3500 N.3   141  GLU141     -0.1231
     59  CA         0.0480   35.3430    7.2710 C.3   141  GLU141      0.1699
     60  C         -0.8080   36.5140    6.7490 C.2   141  GLU141      0.2592
     61  O         -2.0190   36.3590    6.5660 O.2   141  GLU141     -0.2718
     62  CB         0.3870   34.3560    6.1330 C.3   141  GLU141      0.0402
     63  CG         1.5280   33.3540    6.4710 C.3   141  GLU141      0.1161
     64  CD         2.8890   34.0130    6.6520 C.2   141  GLU141      0.3649
     65  OE1        3.0300   35.2430    6.4180 O.co2 141  GLU141     -0.2457
     66  OE2        3.8550   33.2920    6.9830 O.co2 141  GLU141     -0.2457
     67  N         -0.2280   37.6980    6.5370 N.am  142  THR142     -0.1953
     68  CA         1.2100   37.9570    6.5730 C.3   142  THR142      0.1897
     69  C          1.6560   38.8100    7.7780 C.2   142  THR142      0.2313
     70  O          2.8160   39.2020    7.8760 O.2   142  THR142     -0.2863
     71  CB         1.6580   38.6690    5.2740 C.3   142  THR142      0.1794
     72  OG1        0.8790   39.8600    5.0920 O.3   142  THR142     -0.2208
     73  CG2        1.4550   37.7410    4.0420 C.3   142  THR142      0.0378
     74  N          5.0020   38.1420   10.8020 N.3   145  ASN145     -0.1240
     75  CA         6.4370   38.4410   10.8490 C.3   145  ASN145      0.1653
     76  C          6.7510   39.9240   11.0560 C.2   145  ASN145      0.2266
     77  O          7.8480   40.3910   10.7140 O.2   145  ASN145     -0.2867
     78  CB         7.1670   37.8810    9.6200 C.3   145  ASN145      0.1155
     79  CG         6.7830   38.6000    8.3570 C.2   145  ASN145      0.2627
     80  OD1        5.7520   39.2830    8.3120 O.2   145  ASN145     -0.2716
     81  ND2        7.6100   38.4720    7.3250 N.am  145  ASN145     -0.0877
     82  N         13.1580   31.9400    6.9200 N.3   211  GLY211     -0.1210
     83  CA        12.1660   32.9600    7.2350 C.3   211  GLY211      0.1956
     84  C         12.8040   34.3310    7.2320 C.2   211  GLY211      0.2612
     85  O         14.0100   34.4660    7.4280 O.2   211  GLY211     -0.2717
     86  N         11.9860   35.3550    7.0110 N.am  212  ALA212     -0.1965
     87  CA        12.4630   36.7370    7.1000 C.3   212  ALA212      0.1728
     88  C         11.3360   37.6150    7.6210 C.2   212  ALA212      0.2616
     89  O         10.1640   37.2950    7.4300 O.2   212  ALA212     -0.2715
     90  CB        12.9310   37.2400    5.7410 C.3   212  ALA212      0.0334
     91  N         11.6890   38.7250    8.2600 N.am  213  GLY213     -0.1955
     92  CA        10.6790   39.6160    8.7940 C.3   213  GLY213      0.1869
     93  C         11.1860   41.0370    8.8790 C.2   213  GLY213      0.2309
     94  O         12.2120   41.3900    8.3010 O.2   213  GLY213     -0.2863
@<TRIPOS>BOND
     1    43    42    1
     2    40    42   ar
     3    40    38   ar
     4    42    41   ar
     5    38    37   ar
     6    41    39   ar
     7    34    33    1
     8    34    35    2
     9    33    32    1
    10    33    36    1
    11    37    39   ar
    12    37    36    1
    13    32    26   am
    14    30    29   ar
    15    26    25    1
    16    26    27    2
    17    25    24    1
    18    25    28    1
    19    29    28    1
    20    29    31   ar
    21    44    45    1
    22    46    47    2
    23    46    45    1
    24    50    51    1
    25    45    48    1
    26    48    49    1
    27    51    52    1
    28    51    54    1
    29    52    53    2
    30    57    55   am
    31    54    55    1
    32    55    56    2
    33    73    71    1
    34    23    22    1
    35    72    71    1
    36    71    68    1
    37    22    21    1
    38    21    20    1
    39    90    87    1
    40    14    13    1
    41    62    63    1
    42    62    59    1
    43    13    10    1
    44    65    64   ar
    45    63    64    1
    46    67    68    1
    47    67    60   am
    48    61    60    2
    49    68    69    1
    50    64    66   ar
    51    20    19    1
    52    60    59    1
    53    82    83    1
    54    19    16    1
    55    86    87    1
    56    86    84   am
    57    87    88    1
    58    84    83    1
    59    84    85    2
    60    59    58    1
    61    81    79   am
    62    89    88    2
    63    88    91   am
    64    69    70    2
    65    10    11    1
    66    10     9    1
    67    12    11    2
    68    91    92    1
    69    18    17    2
    70    94    93    2
    71    80    79    2
    72    79    78    1
    73    16    17    1
    74    16    15    1
    75     9     3   am
    76    92    93    1
    77    78    75    1
    78     3     4    2
    79     3     2    1
    80     5     2    1
    81     5     6    1
    82     7     6    1
    83     7     8    1
    84     2     1    1
    85    77    76    2
    86    74    75    1
    87    75    76    1
