@<TRIPOS>MOLECULE
tmp/4mbiA00.pdb
 143 133 0 0 0
SMALL
GASTEIGER

@<TRIPOS>ATOM
      1  N         17.0890   38.7390   -4.5010 N.3    12  LEU12      -0.1231
      2  CA        18.4810   38.5670   -4.8630 C.3    12  LEU12       0.1693
      3  C         18.6630   37.2910   -5.6980 C.2    12  LEU12       0.2592
      4  O         19.4050   37.2630   -6.6720 O.2    12  LEU12      -0.2718
      5  CB        19.3890   38.5760   -3.6140 C.3    12  LEU12       0.0284
      6  CG        19.6110   39.9800   -3.0010 C.3    12  LEU12       0.0019
      7  CD1       20.6310   39.9720   -1.8370 C.3    12  LEU12       0.0001
      8  CD2       20.0440   41.0020   -4.0600 C.3    12  LEU12       0.0001
      9  N         17.9740   36.2310   -5.3410 N.am   13  GLY13      -0.1957
     10  CA        17.9690   35.0360   -6.1860 C.3    13  GLY13       0.1869
     11  C         17.0650   34.0110   -5.5640 C.2    13  GLY13       0.2309
     12  O         16.5890   34.2250   -4.4190 O.2    13  GLY13      -0.2863
     13  N         18.3830   26.8150   -2.3850 N.3    17  PHE17      -0.1241
     14  CA        18.6260   27.5440   -1.1660 C.3    17  PHE17       0.1605
     15  C         17.4170   28.3270   -0.6900 C.2    17  PHE17       0.2264
     16  O         17.4930   28.9450    0.3560 O.2    17  PHE17      -0.2867
     17  CB        19.8350   28.4890   -1.3170 C.3    17  PHE17       0.0534
     18  CG        19.7500   29.4120   -2.4910 C.ar   17  PHE17      -0.0203
     19  CD1       19.0970   30.6410   -2.3820 C.ar   17  PHE17      -0.0042
     20  CD2       20.3530   29.0790   -3.7000 C.ar   17  PHE17      -0.0042
     21  CE1       19.0340   31.5250   -3.4630 C.ar   17  PHE17      -0.0003
     22  CE2       20.2860   29.9510   -4.8040 C.ar   17  PHE17      -0.0003
     23  CZ        19.6110   31.1790   -4.6820 C.ar   17  PHE17      -0.0000
     24  N         15.8570   34.4100   -1.6360 N.3    20  VAL20      -0.1245
     25  CA        16.5960   35.3540   -0.7800 C.3    20  VAL20       0.1561
     26  C         16.3940   36.7760   -1.2770 C.2    20  VAL20       0.2260
     27  O         16.5790   37.0110   -2.4620 O.2    20  VAL20      -0.2867
     28  CB        18.1460   35.0860   -0.8450 C.3    20  VAL20       0.0252
     29  CG1       18.9060   36.0420    0.0650 C.3    20  VAL20       0.0019
     30  CG2       18.4690   33.6400   -0.4960 C.3    20  VAL20       0.0019
     31  N         20.1220   40.0560    4.3520 N.3    33  ALA33      -0.1245
     32  CA        19.5520   39.1880    3.3650 C.3    33  ALA33       0.1562
     33  C         18.4120   38.4680    4.0790 C.2    33  ALA33       0.2260
     34  O         18.5950   37.9330    5.1730 O.2    33  ALA33      -0.2867
     35  CB        20.6230   38.2110    2.8400 C.3    33  ALA33       0.0290
     36  N         16.2130   35.3410    3.8130 N.3    35  LYS35      -0.1245
     37  CA        15.9300   34.0560    3.1600 C.3    35  LYS35       0.1561
     38  C         14.6010   33.4160    3.6190 C.2    35  LYS35       0.2260
     39  O         14.3860   33.2070    4.8030 O.2    35  LYS35      -0.2867
     40  CB        17.1270   33.1080    3.3280 C.3    35  LYS35       0.0271
     41  CG        16.7670   31.6630    3.3830 C.3    35  LYS35       0.0035
     42  CD        17.7370   30.7360    2.6770 C.3    35  LYS35       0.0206
     43  CE        19.1530   30.8770    3.0720 C.3    35  LYS35       0.1093
     44  NZ        19.8920   29.7430    2.4520 N.3    35  LYS35      -0.1314
     45  N         28.8450   34.0460    6.4560 N.3    72  ILE72      -0.1245
     46  CA        27.7530   34.9710    6.6560 C.3    72  ILE72       0.1561
     47  C         26.8850   34.5040    7.8340 C.2    72  ILE72       0.2260
     48  O         26.3500   33.3770    7.8470 O.2    72  ILE72      -0.2867
     49  CB        26.9160   35.1870    5.4020 C.3    72  ILE72       0.0252
     50  CG1       27.2830   36.5360    4.7510 C.3    72  ILE72       0.0019
     51  CG2       25.4390   35.2640    5.7710 C.3    72  ILE72       0.0019
     52  CD1       28.0910   36.4520    3.5180 C.3    72  ILE72       0.0001
     53  N         19.9710   37.0760    7.5920 N.3    88  LEU88      -0.1231
     54  CA        21.4070   36.9360    7.5280 C.3    88  LEU88       0.1693
     55  C         22.0210   38.2510    7.1560 C.2    88  LEU88       0.2592
     56  O         21.3620   39.1330    6.5920 O.2    88  LEU88      -0.2718
     57  CB        21.7560   35.9400    6.4420 C.3    88  LEU88       0.0284
     58  CG        21.2790   34.5310    6.7630 C.3    88  LEU88       0.0019
     59  CD1       20.6190   33.9950    5.5260 C.3    88  LEU88       0.0001
     60  CD2       22.4730   33.6670    7.2270 C.3    88  LEU88       0.0001
     61  N         23.3110   38.3670    7.3960 N.am   89  GLU89      -0.1966
     62  CA        23.9750   39.5990    7.0330 C.3    89  GLU89       0.1733
     63  C         24.2530   39.6250    5.5500 C.2    89  GLU89       0.2616
     64  O         24.2130   38.5830    4.8850 O.2    89  GLU89      -0.2715
     65  CB        25.2460   39.8200    7.8510 C.3    89  GLU89       0.0429
     66  CG        26.3390   38.8500    7.6440 C.3    89  GLU89       0.1163
     67  CD        27.4000   38.9360    8.7720 C.2    89  GLU89       0.3649
     68  OE1       27.3580   39.9030    9.5920 O.co2  89  GLU89      -0.2457
     69  OE2       28.2740   38.0320    8.8110 O.co2  89  GLU89      -0.2457
     70  N         24.4850   40.8420    5.0620 N.am   90  ARG90      -0.1964
     71  CA        24.7260   41.1180    3.6510 C.3    90  ARG90       0.1714
     72  C         25.8350   42.1720    3.4400 C.2    90  ARG90       0.2458
     73  O         25.6450   43.3590    3.7420 O.2    90  ARG90      -0.2730
     74  CB        23.4410   41.6450    2.9990 C.3    90  ARG90       0.0347
     75  CG        23.6110   42.0960    1.5540 C.3    90  ARG90       0.0492
     76  CD        22.2730   42.4430    0.9240 C.3    90  ARG90       0.2205
     77  NE        21.5110   43.4960    1.6180 N.pl3  90  ARG90      -0.0865
     78  CZ        21.5280   44.7880    1.2850 C.cat  90  ARG90       0.5346
     79  NH1       22.3400   45.2120    0.3060 N.pl3  90  ARG90       0.1354
     80  NH2       20.7560   45.6820    1.9480 N.pl3  90  ARG90       0.1354
     81  N         26.9630   41.7530    2.8770 N.am   91  PRO91      -0.2727
     82  CA        27.9490   42.7430    2.4160 C.3    91  PRO91       0.1402
     83  C         27.4400   43.6350    1.2700 C.2    91  PRO91       0.2269
     84  O         26.6890   43.1900    0.4150 O.2    91  PRO91      -0.2865
     85  CB        29.1270   41.8850    1.9400 C.3    91  PRO91       0.0296
     86  CG        28.7330   40.4320    2.1600 C.3    91  PRO91       0.0237
     87  CD        27.3310   40.3540    2.5520 C.3    91  PRO91       0.0939
     88  N         28.7390   43.4680   -3.3610 N.3    94  VAL94      -0.1245
     89  CA        28.8960   42.0300   -3.2580 C.3    94  VAL94       0.1561
     90  C         28.6600   41.3570   -4.5960 C.2    94  VAL94       0.2260
     91  O         27.7830   41.7680   -5.3570 O.2    94  VAL94      -0.2867
     92  CB        27.8810   41.4900   -2.2150 C.3    94  VAL94       0.0252
     93  CG1       26.4260   41.6880   -2.7250 C.3    94  VAL94       0.0019
     94  CG2       28.1920   40.0860   -1.8150 C.3    94  VAL94       0.0019
     95  N         28.8260   37.1060   -6.1180 N.3    96  ASP96      -0.1239
     96  CA        29.1540   35.7320   -5.7810 C.3    96  ASP96       0.1674
     97  C         30.2990   35.2440   -6.6920 C.2    96  ASP96       0.2266
     98  O         30.4700   35.7280   -7.8030 O.2    96  ASP96      -0.2867
     99  CB        27.9060   34.8400   -5.7040 C.3    96  ASP96       0.1410
    100  CG        27.3190   34.4900   -7.0630 C.2    96  ASP96       0.3668
    101  OD1       28.0850   33.9790   -7.9100 O.co2  96  ASP96      -0.2456
    102  OD2       26.0840   34.6740   -7.2660 O.co2  96  ASP96      -0.2456
    103  N         29.2930   29.2750   -6.1750 N.3   139  GLU139     -0.1231
    104  CA        27.9500   29.8570   -5.9800 C.3   139  GLU139      0.1699
    105  C         27.6330   30.0940   -4.5230 C.2   139  GLU139      0.2592
    106  O         26.7150   30.8440   -4.1910 O.2   139  GLU139     -0.2718
    107  CB        26.8390   28.9240   -6.5240 C.3   139  GLU139      0.0402
    108  CG        27.1020   28.3620   -7.9380 C.3   139  GLU139      0.1161
    109  CD        25.9400   27.5680   -8.4750 C.2   139  GLU139      0.3649
    110  OE1       25.0000   28.2340   -8.9490 O.co2 139  GLU139     -0.2457
    111  OE2       25.9640   26.3090   -8.4640 O.co2 139  GLU139     -0.2457
    112  N         28.3620   29.4070   -3.6520 N.am  140  ASN140     -0.1974
    113  CA        28.1280   29.5290   -2.2270 C.3   140  ASN140      0.1688
    114  C         29.2050   30.3790   -1.5410 C.2   140  ASN140      0.2292
    115  O         29.3840   30.3100   -0.3330 O.2   140  ASN140     -0.2864
    116  CB        27.9970   28.1430   -1.6020 C.3   140  ASN140      0.1181
    117  CG        26.6410   27.4590   -1.9220 C.2   140  ASN140      0.2629
    118  OD1       25.6010   28.1140   -2.1680 O.2   140  ASN140     -0.2716
    119  ND2       26.6520   26.1310   -1.8730 N.am  140  ASN140     -0.0877
    120  N         30.4490   34.4820   -1.2650 N.3   142  LEU142     -0.1245
    121  CA        30.2110   35.8790   -1.6000 C.3   142  LEU142      0.1561
    122  C         31.5370   36.6040   -1.4970 C.2   142  LEU142      0.2260
    123  O         32.3370   36.2960   -0.5990 O.2   142  LEU142     -0.2867
    124  CB        29.1940   36.4930   -0.6130 C.3   142  LEU142      0.0270
    125  CG        27.8230   35.7960   -0.7450 C.3   142  LEU142      0.0019
    126  CD1       26.7240   36.3780    0.1600 C.3   142  LEU142      0.0001
    127  CD2       27.4560   35.8210   -2.2020 C.3   142  LEU142      0.0001
    128  N         28.1370   30.7960    2.2480 N.3   153  ILE153     -0.1231
    129  CA        26.6900   30.8370    2.3600 C.3   153  ILE153      0.1692
    130  C         26.0290   29.4900    2.0910 C.2   153  ILE153      0.2592
    131  O         26.6580   28.5190    1.6500 O.2   153  ILE153     -0.2718
    132  CB        26.0520   31.9150    1.4110 C.3   153  ILE153      0.0266
    133  CG1       26.4110   31.6430   -0.0630 C.3   153  ILE153      0.0019
    134  CG2       26.4890   33.3060    1.8010 C.3   153  ILE153      0.0020
    135  CD1       25.3890   32.1100   -1.0530 C.3   153  ILE153      0.0001
    136  N         24.7480   29.4220    2.4190 N.am  154  ASP154     -0.1974
    137  CA        23.8630   28.3020    2.0550 C.3   154  ASP154      0.1709
    138  C         24.2310   26.9030    2.6030 C.2   154  ASP154      0.2293
    139  O         24.5770   25.9620    1.8720 O.2   154  ASP154     -0.2864
    140  CB        23.5720   28.3300    0.5510 C.3   154  ASP154      0.1436
    141  CG        22.8420   29.6260    0.1180 C.2   154  ASP154      0.3671
    142  OD1       22.0760   30.2430    0.9260 O.co2 154  ASP154     -0.2456
    143  OD2       23.0370   30.0310   -1.0420 O.co2 154  ASP154     -0.2456
@<TRIPOS>BOND
     1   110   109   ar
     2   109   111   ar
     3   109   108    1
     4   108   107    1
     5   101   100   ar
     6    98    97    2
     7   102   100   ar
     8   100    99    1
     9    97    96    1
    10     4     3    2
    11   107   104    1
    12    10    11    1
    13    10     9    1
    14   103   104    1
    15    95    96    1
    16   104   105    1
    17    96    99    1
    18     3     9   am
    19     3     2    1
    20    11    12    2
    21    91    90    2
    22     2     1    1
    23     2     5    1
    24    22    23   ar
    25    22    20   ar
    26    23    21   ar
    27    90    89    1
    28   105   106    2
    29   105   112   am
    30     8     6    1
    31    20    18   ar
    32   112   113    1
    33     5     6    1
    34    21    19   ar
    35    88    89    1
    36    89    92    1
    37     6     7    1
    38    93    92    1
    39    18    19   ar
    40    18    17    1
    41    27    26    2
    42    13    14    1
    43   113   116    1
    44   113   114    1
    45    92    94    1
    46   127   125    1
    47   118   117    2
    48   117   119   am
    49   117   116    1
    50    24    25    1
    51   121   122    1
    52   121   120    1
    53   121   124    1
    54   114   115    2
    55   122   123    2
    56    17    14    1
    57    26    25    1
    58    14    15    1
    59   135   133    1
    60   143   141   ar
    61    28    25    1
    62    28    30    1
    63    28    29    1
    64   125   124    1
    65   125   126    1
    66    15    16    2
    67   133   132    1
    68   141   140    1
    69   141   142   ar
    70    79    78    1
    71    84    83    2
    72   140   137    1
    73    76    75    1
    74    76    77    1
    75    83    82    1
    76    78    77    2
    77    78    80    1
    78   132   134    1
    79   132   129    1
    80    75    74    1
    81   131   130    2
    82   139   138    2
    83    85    86    1
    84    85    82    1
    85   137   136    1
    86   137   138    1
    87   130   129    1
    88   130   136   am
    89    86    87    1
    90   128   129    1
    91    82    81    1
    92    44    43    1
    93    87    81    1
    94    42    43    1
    95    42    41    1
    96    35    32    1
    97    81    72   am
    98    74    71    1
    99    37    40    1
   100    37    38    1
   101    37    36    1
   102    40    41    1
   103    32    33    1
   104    32    31    1
   105    72    71    1
   106    72    73    2
   107    52    50    1
   108    38    39    2
   109    71    70    1
   110    33    34    2
   111    50    49    1
   112    64    63    2
   113    70    63   am
   114    49    51    1
   115    49    46    1
   116    59    58    1
   117    63    62    1
   118    57    58    1
   119    57    54    1
   120    45    46    1
   121    56    55    2
   122    46    47    1
   123    58    60    1
   124    62    61    1
   125    62    65    1
   126    55    61   am
   127    55    54    1
   128    54    53    1
   129    66    65    1
   130    66    67    1
   131    47    48    2
   132    67    69   ar
   133    67    68   ar
