@<TRIPOS>MOLECULE
tmp/4mbjA00.pdb
 167 160 0 0 0
SMALL
GASTEIGER

@<TRIPOS>ATOM
      1  N         11.2850  -20.2000    5.5510 N.3    16  ILE16      -0.1245
      2  CA        11.6470  -19.4050    4.3720 C.3    16  ILE16       0.1561
      3  C         10.6950  -19.5050    3.1810 C.2    16  ILE16       0.2260
      4  O         10.3270  -18.4920    2.5830 O.2    16  ILE16      -0.2867
      5  CB        13.0450  -19.7700    3.8770 C.3    16  ILE16       0.0252
      6  CG1       13.1620  -21.2850    3.7640 C.3    16  ILE16       0.0019
      7  CG2       14.0950  -19.2200    4.8150 C.3    16  ILE16       0.0019
      8  CD1       14.5780  -21.7520    3.6410 C.3    16  ILE16       0.0001
      9  N          0.8370  -24.6170   -2.2190 N.3    21  PHE21      -0.1241
     10  CA         1.7110  -25.5320   -2.9610 C.3    21  PHE21       0.1605
     11  C          2.7230  -26.1100   -1.9760 C.2    21  PHE21       0.2264
     12  O          3.1750  -27.2450   -2.1380 O.2    21  PHE21      -0.2867
     13  CB         2.4150  -24.8150   -4.1410 C.3    21  PHE21       0.0534
     14  CG         3.9090  -24.5910   -3.9530 C.ar   21  PHE21      -0.0203
     15  CD1        4.8230  -25.5760   -4.2880 C.ar   21  PHE21      -0.0042
     16  CD2        4.3940  -23.3800   -3.4700 C.ar   21  PHE21      -0.0042
     17  CE1        6.1780  -25.3510   -4.1430 C.ar   21  PHE21      -0.0003
     18  CE2        5.7530  -23.1600   -3.3260 C.ar   21  PHE21      -0.0003
     19  CZ         6.6410  -24.1440   -3.6610 C.ar   21  PHE21      -0.0000
     20  N          8.2530  -23.8570    2.9830 N.3    24  VAL24      -0.1245
     21  CA         9.5870  -24.4430    3.0220 C.3    24  VAL24       0.1561
     22  C         10.3630  -24.0160    4.2600 C.2    24  VAL24       0.2260
     23  O         10.3890  -22.8320    4.6160 O.2    24  VAL24      -0.2867
     24  CB        10.3970  -24.0240    1.7990 C.3    24  VAL24       0.0252
     25  CG1       11.7270  -24.7170    1.7920 C.3    24  VAL24       0.0019
     26  CG2        9.6350  -24.3450    0.5540 C.3    24  VAL24       0.0019
     27  N         16.5500  -29.0420    3.3910 N.3    34  ALA34      -0.1245
     28  CA        15.3650  -28.2340    3.1780 C.3    34  ALA34       0.1562
     29  C         14.1560  -29.1420    3.2680 C.2    34  ALA34       0.2260
     30  O         14.1900  -30.2960    2.8230 O.2    34  ALA34      -0.2867
     31  CB        15.4160  -27.5700    1.8270 C.3    34  ALA34       0.0290
     32  N          9.8360  -29.0910    2.6610 N.3    36  LYS36      -0.1245
     33  CA         8.6050  -28.4190    2.2740 C.3    36  LYS36       0.1561
     34  C          7.4330  -29.2440    2.7950 C.2    36  LYS36       0.2260
     35  O          7.2950  -30.4250    2.4560 O.2    36  LYS36      -0.2867
     36  CB         8.5230  -28.2800    0.7500 C.3    36  LYS36       0.0271
     37  CG         7.5480  -27.2160    0.2860 C.3    36  LYS36       0.0035
     38  CD         7.5880  -27.0060   -1.2170 C.3    36  LYS36       0.0206
     39  CE         6.9980  -28.1900   -1.9730 C.3    36  LYS36       0.1093
     40  NZ         6.8580  -27.9180   -3.4330 N.3    36  LYS36      -0.1314
     41  N          9.6860  -37.9060   -8.3130 N.3    58  LEU58      -0.1245
     42  CA        10.9240  -37.3290   -7.7970 C.3    58  LEU58       0.1561
     43  C         12.0990  -38.3010   -7.8300 C.2    58  LEU58       0.2260
     44  O         13.1660  -37.9780   -8.3600 O.2    58  LEU58      -0.2867
     45  CB        10.7240  -36.8320   -6.3670 C.3    58  LEU58       0.0270
     46  CG         9.9000  -35.5540   -6.2530 C.3    58  LEU58       0.0019
     47  CD1        9.7940  -35.1530   -4.8140 C.3    58  LEU58       0.0001
     48  CD2       10.5390  -34.4510   -7.0560 C.3    58  LEU58       0.0001
     49  N         17.7280  -30.8770   -8.4780 N.3    67  LEU67      -0.1245
     50  CA        17.8090  -30.8350   -7.0210 C.3    67  LEU67       0.1561
     51  C         17.6520  -32.2320   -6.4020 C.2    67  LEU67       0.2260
     52  O         16.8540  -33.0480   -6.8620 O.2    67  LEU67      -0.2867
     53  CB        16.7450  -29.8960   -6.4640 C.3    67  LEU67       0.0270
     54  CG        16.8840  -29.6000   -4.9690 C.3    67  LEU67       0.0019
     55  CD1       17.2190  -28.1390   -4.7230 C.3    67  LEU67       0.0001
     56  CD2       15.6010  -29.9670   -4.3040 C.3    67  LEU67       0.0001
     57  N         16.5760  -35.2180   -4.4030 N.3    69  PHE69      -0.1241
     58  CA        15.5190  -35.7160   -3.5440 C.3    69  PHE69       0.1605
     59  C         16.1190  -36.5870   -2.4760 C.2    69  PHE69       0.2264
     60  O         16.9040  -37.4760   -2.7780 O.2    69  PHE69      -0.2867
     61  CB        14.5190  -36.5440   -4.3250 C.3    69  PHE69       0.0534
     62  CG        13.6080  -37.3220   -3.4580 C.ar   69  PHE69      -0.0203
     63  CD1       12.7060  -36.6780   -2.6370 C.ar   69  PHE69      -0.0042
     64  CD2       13.6560  -38.6970   -3.4530 C.ar   69  PHE69      -0.0042
     65  CE1       11.8630  -37.3960   -1.8270 C.ar   69  PHE69      -0.0003
     66  CE2       12.8160  -39.4280   -2.6450 C.ar   69  PHE69      -0.0003
     67  CZ        11.9170  -38.7780   -1.8300 C.ar   69  PHE69      -0.0000
     68  N          8.2440  -33.0080    1.7300 N.3    80  ILE80      -0.1245
     69  CA         9.3810  -33.5190    1.0010 C.3    80  ILE80       0.1561
     70  C         10.6340  -32.8380    1.5250 C.2    80  ILE80       0.2260
     71  O         10.6670  -31.6210    1.7180 O.2    80  ILE80      -0.2867
     72  CB         9.2220  -33.2470   -0.4750 C.3    80  ILE80       0.0252
     73  CG1        7.9210  -33.8710   -0.9540 C.3    80  ILE80       0.0019
     74  CG2       10.3630  -33.8430   -1.2390 C.3    80  ILE80       0.0019
     75  CD1        7.8020  -33.9070   -2.4550 C.3    80  ILE80       0.0001
     76  N         14.5730  -32.1630    0.8370 N.3    82  THR82      -0.1203
     77  CA        15.6000  -32.2070   -0.1910 C.3    82  THR82       0.1994
     78  C         16.8580  -31.6910    0.4520 C.2    82  THR82       0.2618
     79  O         16.7980  -31.0770    1.5140 O.2    82  THR82      -0.2717
     80  CB        15.2840  -31.2770   -1.3460 C.3    82  THR82       0.1784
     81  OG1       15.4010  -29.9220   -0.9020 O.3    82  THR82      -0.2211
     82  CG2       13.8810  -31.5080   -1.8410 C.3    82  THR82       0.0376
     83  N         17.9920  -31.9280   -0.1970 N.am   83  GLN83      -0.1965
     84  CA        19.2570  -31.3310    0.2170 C.3    83  GLN83       0.1733
     85  C         19.0920  -29.8550    0.5000 C.2    83  GLN83       0.2616
     86  O         18.2040  -29.2110   -0.0340 O.2    83  GLN83      -0.2715
     87  CB        20.3100  -31.4910   -0.8730 C.3    83  GLN83       0.0408
     88  CG        20.0420  -30.6700   -2.1260 C.3    83  GLN83       0.0908
     89  CD        21.1360  -30.8400   -3.1640 C.2    83  GLN83       0.2608
     90  OE1       20.8870  -31.2780   -4.2920 O.2    83  GLN83      -0.2717
     91  NE2       22.3620  -30.5000   -2.7830 N.am   83  GLN83      -0.0878
     92  N         19.9550  -29.3220    1.3480 N.am   84  TRP84      -0.1960
     93  CA        19.9750  -27.8930    1.5620 C.3    84  TRP84       0.1771
     94  C         21.0990  -27.2790    0.7530 C.2    84  TRP84       0.2619
     95  O         22.2540  -27.6820    0.8800 O.2    84  TRP84      -0.2715
     96  CB        20.1790  -27.5670    3.0400 C.3    84  TRP84       0.0590
     97  CG        20.3970  -26.0970    3.2810 C.ar   84  TRP84       0.0006
     98  CD1       21.5950  -25.4450    3.3850 C.ar   84  TRP84       0.0946
     99  CD2       19.3890  -25.0990    3.4260 C.ar   84  TRP84       0.0152
    100  NE1       21.3910  -24.1060    3.5860 N.ar   84  TRP84      -0.2442
    101  CE2       20.0430  -23.8700    3.6130 C.ar   84  TRP84       0.0810
    102  CE3       17.9940  -25.1260    3.4140 C.ar   84  TRP84       0.0012
    103  CZ2       19.3490  -22.6820    3.7870 C.ar   84  TRP84       0.0191
    104  CZ3       17.3100  -23.9510    3.5860 C.ar   84  TRP84       0.0001
    105  CH2       17.9830  -22.7430    3.7710 C.ar   84  TRP84       0.0015
    106  N         20.7610  -26.3030   -0.0780 N.am   85  CYS85      -0.1968
    107  CA        21.7600  -25.6180   -0.8720 C.3    85  CYS85       0.1712
    108  C         22.1340  -24.3310   -0.1710 C.2    85  CYS85       0.2296
    109  O         21.2740  -23.5170    0.1410 O.2    85  CYS85      -0.2864
    110  CB        21.2010  -25.3060   -2.2540 C.3    85  CYS85       0.0983
    111  SG        20.5680  -26.7570   -3.1420 S.3    85  CYS85      -0.0798
    112  N         23.3920  -20.6970   -0.2780 N.3    87  GLY87      -0.1210
    113  CA        23.4360  -19.6930   -1.3250 C.3    87  GLY87       0.1956
    114  C         22.0470  -19.4900   -1.8900 C.2    87  GLY87       0.2612
    115  O         21.1310  -20.2430   -1.5420 O.2    87  GLY87      -0.2717
    116  N         21.8760  -18.4960   -2.7610 N.am   88  SER88      -0.1952
    117  CA        20.5300  -18.0530   -3.1140 C.3    88  SER88       0.1924
    118  C         19.8170  -18.7910   -4.2420 C.2    88  SER88       0.2314
    119  O         19.7350  -20.0270   -4.2500 O.2    88  SER88      -0.2863
    120  CB        20.5370  -16.5570   -3.4110 C.3    88  SER88       0.2116
    121  OG        20.4810  -15.8240   -2.1960 O.3    88  SER88      -0.2180
    122  N         18.4690  -22.8600   -8.5130 N.3   136  PHE136     -0.1241
    123  CA        19.2710  -22.4690   -7.3540 C.3   136  PHE136      0.1605
    124  C         20.7420  -22.6110   -7.6690 C.2   136  PHE136      0.2264
    125  O         21.1870  -23.6460   -8.1660 O.2   136  PHE136     -0.2867
    126  CB        18.9230  -23.3300   -6.1410 C.3   136  PHE136      0.0534
    127  CG        17.4520  -23.6360   -6.0170 C.ar  136  PHE136     -0.0203
    128  CD1       16.9440  -24.8600   -6.4520 C.ar  136  PHE136     -0.0042
    129  CD2       16.5610  -22.7010   -5.4820 C.ar  136  PHE136     -0.0042
    130  CE1       15.5690  -25.1490   -6.3580 C.ar  136  PHE136     -0.0003
    131  CE2       15.1830  -22.9820   -5.3850 C.ar  136  PHE136     -0.0003
    132  CZ        14.6940  -24.2080   -5.8260 C.ar  136  PHE136     -0.0000
    133  N         14.5880  -27.0640   -9.8000 N.3   146  GLY146     -0.1210
    134  CA        13.8600  -26.8240   -8.5690 C.3   146  GLY146      0.1956
    135  C         12.4910  -27.4500   -8.4180 C.2   146  GLY146      0.2612
    136  O         12.3600  -28.6130   -8.0450 O.2   146  GLY146     -0.2717
    137  N         11.4610  -26.6690   -8.6950 N.am  147  ASP147     -0.1959
    138  CA        10.1540  -26.9220   -8.1060 C.3   147  ASP147      0.1840
    139  C          9.2790  -27.7940   -9.0050 C.2   147  ASP147      0.2622
    140  O          8.1020  -27.5120   -9.2070 O.2   147  ASP147     -0.2715
    141  CB         9.4820  -25.5730   -7.8300 C.3   147  ASP147      0.1450
    142  CG         8.1170  -25.7110   -7.2020 C.2   147  ASP147      0.3671
    143  OD1        7.7150  -26.8480   -6.8570 O.co2 147  ASP147     -0.2456
    144  OD2        7.4450  -24.6680   -7.0570 O.co2 147  ASP147     -0.2456
    145  N          9.8440  -28.8600   -9.5470 N.am  148  PHE148     -0.1960
    146  CA         9.1170  -29.5930  -10.5660 C.3   148  PHE148      0.1771
    147  C          8.2930  -30.7260   -9.9980 C.2   148  PHE148      0.2620
    148  O          7.5380  -31.3860  -10.7160 O.2   148  PHE148     -0.2715
    149  CB        10.0770  -30.1240  -11.6300 C.3   148  PHE148      0.0574
    150  CG        10.9330  -31.2490  -11.1680 C.ar  148  PHE148     -0.0200
    151  CD1       12.2590  -31.0380  -10.8700 C.ar  148  PHE148     -0.0042
    152  CD2       10.4250  -32.5240  -11.0780 C.ar  148  PHE148     -0.0042
    153  CE1       13.0670  -32.0760  -10.4970 C.ar  148  PHE148     -0.0003
    154  CE2       11.2260  -33.5660  -10.7050 C.ar  148  PHE148     -0.0003
    155  CZ        12.5540  -33.3430  -10.4150 C.ar  148  PHE148     -0.0000
    156  N          8.4300  -30.9530   -8.7020 N.am  149  GLY149     -0.1940
    157  CA         7.7150  -32.0560   -8.0920 C.3   149  GLY149      0.2014
    158  C          6.2140  -31.8580   -8.1080 C.2   149  GLY149      0.2638
    159  O          5.7190  -30.7660   -8.4190 O.2   149  GLY149     -0.2714
    160  N          5.4910  -32.9280   -7.7840 N.am  150  LEU150     -0.1977
    161  CA         4.0430  -32.8660   -7.6530 C.3   150  LEU150      0.1596
    162  C          3.3960  -32.4850   -8.9810 C.2   150  LEU150      0.2287
    163  O          3.7000  -33.0850  -10.0210 O.2   150  LEU150     -0.2864
    164  CB         3.6840  -31.8660   -6.5610 C.3   150  LEU150      0.0297
    165  CG         4.5040  -32.1380   -5.2960 C.3   150  LEU150      0.0022
    166  CD1        4.3440  -31.0100   -4.2870 C.3   150  LEU150      0.0001
    167  CD2        4.0660  -33.4700   -4.7100 C.3   150  LEU150      0.0001
@<TRIPOS>BOND
     1   149   150    1
     2   149   146    1
     3   150   152   ar
     4   150   151   ar
     5   152   154   ar
     6   151   153   ar
     7   148   147    2
     8   154   155   ar
     9   146   147    1
    10   146   145    1
    11   153   155   ar
    12   163   162    2
    13   147   156   am
    14   133   134    1
    15   145   139   am
    16   140   139    2
    17   139   138    1
    18   162   161    1
    19   156   157    1
    20   137   135   am
    21   137   138    1
    22   134   135    1
    23   122   123    1
    24    49    50    1
    25   159   158    2
    26   135   136    2
    27    44    43    2
    28    41    42    1
    29   125   124    2
    30   158   157    1
    31   158   160   am
    32   138   141    1
    33    43    42    1
    34   141   142    1
    35    42    45    1
    36   160   161    1
    37   124   123    1
    38   161   164    1
    39   123   126    1
    40   142   144   ar
    41   142   143   ar
    42    48    46    1
    43    50    53    1
    44    50    51    1
    45    52    51    2
    46   164   165    1
    47    53    54    1
    48   128   130   ar
    49   128   127   ar
    50    45    46    1
    51   130   132   ar
    52    46    47    1
    53   126   127    1
    54   127   129   ar
    55   132   131   ar
    56   129   131   ar
    57   165   167    1
    58   165   166    1
    59    54    55    1
    60    54    56    1
    61    57    58    1
    62    61    58    1
    63    61    62    1
    64    90    89    2
    65    15    17   ar
    66    15    14   ar
    67   119   118    2
    68   118   117    1
    69    17    19   ar
    70    13    14    1
    71    13    10    1
    72    14    16   ar
    73    19    18   ar
    74    58    59    1
    75    16    18   ar
    76    62    64   ar
    77    62    63   ar
    78    64    66   ar
    79    40    39    1
    80   120   117    1
    81   120   121    1
    82    89    91   am
    83    89    88    1
    84   111   110    1
    85   117   116    1
    86    10     9    1
    87    10    11    1
    88    60    59    2
    89   116   114   am
    90    66    67   ar
    91    63    65   ar
    92    75    73    1
    93   110   107    1
    94    12    11    2
    95    88    87    1
    96    39    38    1
    97   114   115    2
    98   114   113    1
    99    82    80    1
   100    67    65   ar
   101    80    81    1
   102    80    77    1
   103   113   112    1
   104    74    72    1
   105    38    37    1
   106    73    72    1
   107    87    84    1
   108   107   108    1
   109   107   106    1
   110    72    69    1
   111    83    84    1
   112    83    78   am
   113    77    78    1
   114    77    76    1
   115   108   109    2
   116   106    94   am
   117    86    85    2
   118    84    85    1
   119    37    36    1
   120    78    79    2
   121    85    92   am
   122    26    24    1
   123    36    33    1
   124    94    95    2
   125    94    93    1
   126    69    70    1
   127    69    68    1
   128    92    93    1
   129    70    71    2
   130    93    96    1
   131    25    24    1
   132    24    21    1
   133    31    28    1
   134    33    32    1
   135    33    34    1
   136    35    34    2
   137     4     3    2
   138    30    29    2
   139    20    21    1
   140    21    22    1
   141    96    97    1
   142    28    29    1
   143    28    27    1
   144     3     2    1
   145    97    98   ar
   146    97    99   ar
   147    98   100   ar
   148   102    99   ar
   149   102   104   ar
   150    99   101   ar
   151   100   101   ar
   152   104   105   ar
   153   101   103   ar
   154     8     6    1
   155     6     5    1
   156   105   103   ar
   157     5     2    1
   158     5     7    1
   159    22    23    2
   160     2     1    1
