@<TRIPOS>MOLECULE
tmp/4mbkA01.pdb
 88 81 0 0 0
SMALL
GASTEIGER

@<TRIPOS>ATOM
      1  N         15.5240   28.4440   -0.6230 N.3   192  ALA192     -0.1245
      2  CA        16.9380   28.5450   -0.2680 C.3   192  ALA192      0.1562
      3  C         17.7360   27.2690   -0.5060 C.2   192  ALA192      0.2260
      4  O         18.9390   27.3480   -0.6900 O.2   192  ALA192     -0.2867
      5  CB        17.1030   29.0050    1.1640 C.3   192  ALA192      0.0290
      6  N         20.1550   27.1320   -3.6520 N.3   195  LEU195     -0.1231
      7  CA        21.2240   28.1200   -3.4490 C.3   195  LEU195      0.1693
      8  C         22.2410   27.6670   -2.3940 C.2   195  LEU195      0.2591
      9  O         23.4540   27.7690   -2.6090 O.2   195  LEU195     -0.2718
     10  CB        20.6550   29.4820   -3.0650 C.3   195  LEU195      0.0284
     11  CG        21.6310   30.5880   -2.6400 C.3   195  LEU195      0.0019
     12  CD1       22.5420   31.0310   -3.7920 C.3   195  LEU195      0.0001
     13  CD2       20.8710   31.7730   -2.0730 C.3   195  LEU195      0.0001
     14  N         21.7710   27.1730   -1.2510 N.am  196  ILE196     -0.1980
     15  CA        22.6410   26.6520   -0.2290 C.3   196  ILE196      0.1595
     16  C         23.5090   25.5090   -0.7640 C.2   196  ILE196      0.2287
     17  O         24.7130   25.4500   -0.5010 O.2   196  ILE196     -0.2864
     18  CB        21.8330   26.1800    1.0010 C.3   196  ILE196      0.0276
     19  CG1       21.2170   27.3940    1.7200 C.3   196  ILE196      0.0022
     20  CG2       22.7350   25.4330    1.9620 C.3   196  ILE196      0.0022
     21  CD1       20.1220   27.0770    2.7820 C.3   196  ILE196      0.0001
     22  N         26.6430   26.4420   -2.6610 N.3   199  VAL199     -0.1245
     23  CA        27.7960   26.9120   -1.8730 C.3   199  VAL199      0.1561
     24  C         28.2680   25.9390   -0.7680 C.2   199  VAL199      0.2260
     25  O         29.2090   26.2230   -0.0320 O.2   199  VAL199     -0.2867
     26  CB        27.5800   28.3560   -1.2850 C.3   199  VAL199      0.0252
     27  CG1       27.4940   29.3980   -2.4190 C.3   199  VAL199      0.0019
     28  CG2       26.3480   28.4460   -0.3240 C.3   199  VAL199      0.0019
     29  N         13.1580   28.6750    5.5100 N.3   210  THR210     -0.1218
     30  CA        13.5860   30.0260    5.8730 C.3   210  THR210      0.1862
     31  C         12.4410   30.9480    6.2830 C.2   210  THR210      0.2287
     32  O         11.2730   30.5910    6.1580 O.2   210  THR210     -0.2866
     33  CB        14.4070   30.6930    4.7680 C.3   210  THR210      0.1770
     34  OG1       13.6290   30.7470    3.5730 O.3   210  THR210     -0.2211
     35  CG2       15.6920   29.9000    4.5110 C.3   210  THR210      0.0375
     36  N         15.2050   37.6380   10.2180 N.3   218  ARG218     -0.1231
     37  CA        15.6130   36.6570    9.1940 C.3   218  ARG218      0.1694
     38  C         15.8480   35.3650    9.9520 C.2   218  ARG218      0.2593
     39  O         16.2710   35.3850   11.1170 O.2   218  ARG218     -0.2718
     40  CB        16.9240   37.1150    8.5380 C.3   218  ARG218      0.0321
     41  CG        17.3590   36.3220    7.3150 C.3   218  ARG218      0.0489
     42  CD        16.4400   36.5820    6.1700 C.3   218  ARG218      0.2205
     43  NE        16.9130   35.9520    4.9240 N.pl3 218  ARG218     -0.0865
     44  CZ        16.2460   35.0410    4.2130 C.cat 218  ARG218      0.5346
     45  NH1       16.7890   34.5940    3.0810 N.pl3 218  ARG218      0.1354
     46  NH2       15.0620   34.5530    4.5980 N.pl3 218  ARG218      0.1354
     47  N         15.5770   34.2300    9.3370 N.am  219  GLY219     -0.1942
     48  CA        15.7980   32.9940   10.0730 C.3   219  GLY219      0.2014
     49  C         15.8370   31.7720    9.1910 C.2   219  GLY219      0.2638
     50  O         15.3770   31.7780    8.0310 O.2   219  GLY219     -0.2714
     51  N         16.4170   30.7170    9.7410 N.am  220  ILE220     -0.1977
     52  CA        16.4210   29.4370    9.0460 C.3   220  ILE220      0.1596
     53  C         16.3340   28.3180   10.0870 C.2   220  ILE220      0.2287
     54  O         16.9830   28.3860   11.1370 O.2   220  ILE220     -0.2864
     55  CB        17.6650   29.2870    8.1270 C.3   220  ILE220      0.0276
     56  CG1       17.6050   27.9700    7.3370 C.3   220  ILE220      0.0022
     57  CG2       18.9840   29.4540    8.9350 C.3   220  ILE220      0.0022
     58  CD1       18.6490   27.9050    6.1970 C.3   220  ILE220      0.0001
     59  N         21.6630   37.5040    4.8650 N.3   249  ASN249     -0.1225
     60  CA        21.9220   36.1940    4.2520 C.3   249  ASN249      0.1785
     61  C         23.3900   35.8160    4.3900 C.2   249  ASN249      0.2597
     62  O         23.7450   34.6880    4.7580 O.2   249  ASN249     -0.2718
     63  CB        21.5590   36.1940    2.7770 C.3   249  ASN249      0.1169
     64  CG        20.0820   36.2830    2.5360 C.2   249  ASN249      0.2627
     65  OD1       19.2780   36.0920    3.4450 O.2   249  ASN249     -0.2716
     66  ND2       19.7140   36.5800    1.2990 N.am  249  ASN249     -0.0877
     67  N         24.2570   36.7870    4.1090 N.am  250  GLN250     -0.1979
     68  CA        25.6890   36.5340    4.2000 C.3   250  GLN250      0.1601
     69  C         26.1560   36.2030    5.6180 C.2   250  GLN250      0.2287
     70  O         27.0340   35.3630    5.7960 O.2   250  GLN250     -0.2864
     71  CB        26.4770   37.7090    3.6120 C.3   250  GLN250      0.0394
     72  CG        26.3390   37.8510    2.0910 C.3   250  GLN250      0.0908
     73  CD        26.7930   39.2160    1.5700 C.2   250  GLN250      0.2608
     74  OE1       27.4630   39.9780    2.2740 O.2   250  GLN250     -0.2717
     75  NE2       26.4230   39.5270    0.3340 N.am  250  GLN250     -0.0878
     76  N         24.3510   34.8050    8.0780 N.3   252  ILE252     -0.1231
     77  CA        23.8890   33.4500    8.3800 C.3   252  ILE252      0.1692
     78  C         24.8010   32.4140    7.6790 C.2   252  ILE252      0.2591
     79  O         25.1840   31.4100    8.2790 O.2   252  ILE252     -0.2718
     80  CB        22.3990   33.2900    8.0180 C.3   252  ILE252      0.0266
     81  CG1       21.5500   34.1520    8.9680 C.3   252  ILE252      0.0019
     82  CG2       21.9560   31.8040    8.0640 C.3   252  ILE252      0.0020
     83  CD1       20.0860   34.2340    8.5710 C.3   252  ILE252      0.0001
     84  N         25.1430   32.6800    6.4170 N.am  253  ALA253     -0.1980
     85  CA        26.0680   31.7990    5.6670 C.3   253  ALA253      0.1597
     86  C         27.4210   31.7070    6.3350 C.2   253  ALA253      0.2287
     87  O         28.0000   30.6200    6.4040 O.2   253  ALA253     -0.2864
     88  CB        26.2190   32.2400    4.2040 C.3   253  ALA253      0.0319
@<TRIPOS>BOND
     1    12    11    1
     2     6     7    1
     3     7    10    1
     4     7     8    1
     5    10    11    1
     6    22    23    1
     7    11    13    1
     8     9     8    2
     9    27    26    1
    10     8    14   am
    11    23    26    1
    12    23    24    1
    13    26    28    1
    14    14    15    1
    15    24    25    2
    16    16    17    2
    17    16    15    1
    18     4     3    2
    19     1     2    1
    20     3     2    1
    21     2     5    1
    22    15    18    1
    23    75    73   am
    24    18    19    1
    25    18    20    1
    26    66    64   am
    27    73    72    1
    28    73    74    2
    29    19    21    1
    30    72    71    1
    31    64    63    1
    32    64    65    2
    33    63    60    1
    34    45    44    1
    35    34    33    1
    36    71    68    1
    37    67    68    1
    38    67    61   am
    39    68    69    1
    40    88    85    1
    41    44    46    1
    42    44    43    2
    43    60    61    1
    44    60    59    1
    45    61    62    2
    46    35    33    1
    47    33    30    1
    48    43    42    1
    49    29    30    1
    50    69    70    2
    51    85    86    1
    52    85    84    1
    53    30    31    1
    54    32    31    2
    55    42    41    1
    56    58    56    1
    57    86    87    2
    58    84    78   am
    59    41    40    1
    60    56    55    1
    61    78    79    2
    62    78    77    1
    63    80    82    1
    64    80    77    1
    65    80    81    1
    66    50    49    2
    67    76    77    1
    68    55    57    1
    69    55    52    1
    70    40    37    1
    71    83    81    1
    72    52    51    1
    73    52    53    1
    74    49    51   am
    75    49    48    1
    76    37    38    1
    77    37    36    1
    78    47    38   am
    79    47    48    1
    80    38    39    2
    81    53    54    2
