@<TRIPOS>MOLECULE
tmp/4mblA00.pdb
 160 148 0 0 0
SMALL
GASTEIGER

@<TRIPOS>ATOM
      1  N         42.1280   -4.3760    4.9060 N.3    12  LEU12      -0.1231
      2  CA        42.5630   -3.0460    5.2910 C.3    12  LEU12       0.1693
      3  C         41.4810   -2.3280    6.0580 C.2    12  LEU12       0.2592
      4  O         41.7700   -1.6270    7.0310 O.2    12  LEU12      -0.2718
      5  CB        42.9900   -2.2440    4.0690 C.3    12  LEU12       0.0284
      6  CG        44.2440   -2.7900    3.3700 C.3    12  LEU12       0.0019
      7  CD1       44.4880   -2.0820    2.0220 C.3    12  LEU12       0.0001
      8  CD2       45.4550   -2.7080    4.2780 C.3    12  LEU12       0.0001
      9  N         40.2440   -2.5100    5.6480 N.am   13  GLY13      -0.1957
     10  CA        39.1430   -1.8950    6.3700 C.3    13  GLY13       0.1869
     11  C         37.8030   -2.2300    5.7830 C.2    13  GLY13       0.2309
     12  O         37.7500   -2.8350    4.7180 O.2    13  GLY13      -0.2863
     13  N         31.2280    1.6460    2.6240 N.3    17  PHE17      -0.1241
     14  CA        31.9790    1.5620    1.3640 C.3    17  PHE17       0.1605
     15  C         32.2420    0.1240    0.8860 C.2    17  PHE17       0.2264
     16  O         32.7750   -0.0580   -0.2180 O.2    17  PHE17      -0.2867
     17  CB        33.3420    2.2750    1.5010 C.3    17  PHE17       0.0534
     18  CG        34.2500    1.7780    2.6070 C.ar   17  PHE17      -0.0203
     19  CD1       35.0840    0.6820    2.4060 C.ar   17  PHE17      -0.0042
     20  CD2       34.3490    2.4690    3.8130 C.ar   17  PHE17      -0.0042
     21  CE1       35.9510    0.2500    3.4150 C.ar   17  PHE17      -0.0003
     22  CE2       35.2070    2.0280    4.8270 C.ar   17  PHE17      -0.0003
     23  CZ        35.9950    0.9180    4.6230 C.ar   17  PHE17      -0.0000
     24  N         37.8570   -3.3700    1.9560 N.3    20  VAL20      -0.1245
     25  CA        39.0810   -3.1100    1.2030 C.3    20  VAL20       0.1561
     26  C         40.1450   -4.0670    1.6940 C.2    20  VAL20       0.2260
     27  O         40.3030   -4.2230    2.9060 O.2    20  VAL20      -0.2867
     28  CB        39.5340   -1.6160    1.3220 C.3    20  VAL20       0.0252
     29  CG1       40.7430   -1.3200    0.4220 C.3    20  VAL20       0.0019
     30  CG2       38.4000   -0.6700    0.9650 C.3    20  VAL20       0.0019
     31  N         44.9720   -2.5040   -4.0670 N.3    33  ALA33      -0.1245
     32  CA        43.9310   -2.5400   -3.0490 C.3    33  ALA33       0.1562
     33  C         42.7030   -3.1220   -3.7670 C.2    33  ALA33       0.2260
     34  O         42.4640   -2.7700   -4.9100 O.2    33  ALA33      -0.2867
     35  CB        43.6420   -1.1500   -2.5240 C.3    33  ALA33       0.0290
     36  N         38.6570   -3.5460   -3.5070 N.3    35  LYS35      -0.1245
     37  CA        37.4400   -3.0990   -2.8180 C.3    35  LYS35       0.1561
     38  C         36.2310   -3.8630   -3.3130 C.2    35  LYS35       0.2260
     39  O         35.9690   -3.8860   -4.5020 O.2    35  LYS35      -0.2867
     40  CB        37.2250   -1.5910   -3.0090 C.3    35  LYS35       0.0271
     41  CG        36.2370   -1.0020   -2.0010 C.3    35  LYS35       0.0035
     42  CD        36.2950    0.5330   -1.9660 C.3    35  LYS35       0.0206
     43  CE        35.2930    1.2240   -2.8610 C.3    35  LYS35       0.1093
     44  NZ        35.1400    2.6860   -2.5300 N.3    35  LYS35      -0.1314
     45  N         31.3710    5.2110   -8.8010 N.3    57  GLU57      -0.1245
     46  CA        32.8110    5.2690   -8.5570 C.3    57  GLU57       0.1567
     47  C         33.6580    4.8420   -9.7450 C.2    57  GLU57       0.2260
     48  O         34.7170    5.4380   -9.9750 O.2    57  GLU57      -0.2867
     49  CB        33.1690    4.4580   -7.3190 C.3    57  GLU57       0.0388
     50  CG        34.6580    4.4890   -6.9680 C.3    57  GLU57       0.1160
     51  CD        34.9880    4.0380   -5.5610 C.2    57  GLU57       0.3649
     52  OE1       34.1610    3.2910   -4.9780 O.co2  57  GLU57      -0.2457
     53  OE2       36.0830    4.4040   -5.0630 O.co2  57  GLU57      -0.2457
     54  N         44.1090    8.0650   -6.4410 N.3    72  ILE72      -0.1245
     55  CA        44.3920    6.6340   -6.5080 C.3    72  ILE72       0.1561
     56  C         43.6730    6.1590   -7.7680 C.2    72  ILE72       0.2260
     57  O         42.4680    6.4220   -7.9490 O.2    72  ILE72      -0.2867
     58  CB        43.9500    5.8630   -5.2270 C.3    72  ILE72       0.0252
     59  CG1       44.9360    6.0570   -4.0550 C.3    72  ILE72       0.0019
     60  CG2       43.7450    4.3790   -5.4830 C.3    72  ILE72       0.0019
     61  CD1       46.3320    5.5380   -4.2040 C.3    72  ILE72       0.0001
     62  N         42.5340   -1.0890   -7.2950 N.3    88  LEU88      -0.1231
     63  CA        43.0590    0.2640   -7.1970 C.3    88  LEU88       0.1693
     64  C         44.5330    0.2230   -6.9180 C.2    88  LEU88       0.2592
     65  O         45.0620   -0.8220   -6.5540 O.2    88  LEU88      -0.2718
     66  CB        42.3030    1.0050   -6.0720 C.3    88  LEU88       0.0284
     67  CG        40.8000    1.0750   -6.2870 C.3    88  LEU88       0.0019
     68  CD1       40.0610    0.9240   -5.0000 C.3    88  LEU88       0.0001
     69  CD2       40.4190    2.3300   -7.0450 C.3    88  LEU88       0.0001
     70  N         45.2100    1.3480   -7.1230 N.am   89  GLU89      -0.1966
     71  CA        46.6490    1.3950   -6.8980 C.3    89  GLU89       0.1733
     72  C         46.8940    1.4870   -5.4010 C.2    89  GLU89       0.2616
     73  O         46.0220    1.9700   -4.6660 O.2    89  GLU89      -0.2715
     74  CB        47.3430    2.4740   -7.7830 C.3    89  GLU89       0.0429
     75  CG        47.6230    3.8580   -7.2200 C.3    89  GLU89       0.1163
     76  CD        48.0430    4.8500   -8.2960 C.2    89  GLU89       0.3649
     77  OE1       48.8070    4.4490   -9.2030 O.co2  89  GLU89      -0.2457
     78  OE2       47.5720    6.0110   -8.2620 O.co2  89  GLU89      -0.2457
     79  N         47.9670    0.8330   -4.9320 N.am   90  ARG90      -0.1964
     80  CA        48.3340    0.8050   -3.5020 C.3    90  ARG90       0.1714
     81  C         49.7580    1.2970   -3.3000 C.2    90  ARG90       0.2458
     82  O         50.7060    0.5600   -3.5800 O.2    90  ARG90      -0.2730
     83  CB        48.1920   -0.5910   -2.8680 C.3    90  ARG90       0.0347
     84  CG        48.6670   -0.6450   -1.4140 C.3    90  ARG90       0.0492
     85  CD        48.1110   -1.8470   -0.6760 C.3    90  ARG90       0.2205
     86  NE        48.5870   -3.1050   -1.2710 N.pl3  90  ARG90      -0.0865
     87  CZ        49.7450   -3.7140   -1.0020 C.cat  90  ARG90       0.5346
     88  NH1       50.5960   -3.1910   -0.1260 N.pl3  90  ARG90       0.1354
     89  NH2       50.0590   -4.8490   -1.6070 N.pl3  90  ARG90       0.1354
     90  N         49.9410    2.5270   -2.7890 N.am   91  PRO91      -0.2727
     91  CA        51.3140    2.9550   -2.4440 C.3    91  PRO91       0.1402
     92  C         51.8300    2.1220   -1.2590 C.2    91  PRO91       0.2269
     93  O         51.0340    1.5380   -0.5000 O.2    91  PRO91      -0.2865
     94  CB        51.1800    4.4590   -2.1190 C.3    91  PRO91       0.0296
     95  CG        49.6990    4.7640   -2.1080 C.3    91  PRO91       0.0237
     96  CD        48.9140    3.5110   -2.3740 C.3    91  PRO91       0.0939
     97  N         52.4780    3.2030    3.1090 N.3    94  VAL94      -0.1245
     98  CA        51.3460    4.1250    3.0270 C.3    94  VAL94       0.1561
     99  C         50.6560    4.3340    4.3760 C.2    94  VAL94       0.2260
    100  O         50.4830    3.3770    5.1390 O.2    94  VAL94      -0.2867
    101  CB        50.3360    3.6550    1.9370 C.3    94  VAL94       0.0252
    102  CG1       49.6710    2.3340    2.2960 C.3    94  VAL94       0.0019
    103  CG2       49.2800    4.7070    1.6360 C.3    94  VAL94       0.0019
    104  N         47.2220    6.6710    6.1650 N.3    96  ASP96      -0.1239
    105  CA        45.9830    7.4320    6.1420 C.3    96  ASP96       0.1674
    106  C         46.2470    8.7870    6.8300 C.2    96  ASP96       0.2266
    107  O         46.9560    8.8010    7.8420 O.2    96  ASP96      -0.2867
    108  CB        44.9730    6.5860    6.9700 C.3    96  ASP96       0.1410
    109  CG        43.5770    7.0600    7.0520 C.2    96  ASP96       0.3668
    110  OD1       43.1630    7.8140    6.1530 O.co2  96  ASP96      -0.2456
    111  OD2       42.8450    6.5680    7.9370 O.co2  96  ASP96      -0.2456
    112  N         44.8510    8.4890   10.4850 N.3    99  ASP99      -0.1239
    113  CA        45.8080    7.8170   11.3790 C.3    99  ASP99       0.1674
    114  C         47.0730    8.6550   11.5990 C.2    99  ASP99       0.2266
    115  O         47.5470    8.7310   12.7240 O.2    99  ASP99      -0.2867
    116  CB        46.1700    6.3930   10.8980 C.3    99  ASP99       0.1410
    117  CG        45.0010    5.4210   10.9200 C.2    99  ASP99       0.3668
    118  OD1       44.0100    5.6890   11.6510 O.co2  99  ASP99      -0.2456
    119  OD2       45.0820    4.3840   10.2350 O.co2  99  ASP99      -0.2456
    120  N         40.4430   10.9700    6.2850 N.3   139  GLU139     -0.1231
    121  CA        40.2210    9.5330    6.1190 C.3   139  GLU139      0.1699
    122  C         40.2780    9.1470    4.6590 C.2   139  GLU139      0.2592
    123  O         40.5680    7.9930    4.3480 O.2   139  GLU139     -0.2718
    124  CB        38.8400    9.1190    6.6770 C.3   139  GLU139      0.0402
    125  CG        38.6420    9.3470    8.1660 C.3   139  GLU139      0.1161
    126  CD        37.2450    9.0300    8.6500 C.2   139  GLU139      0.3649
    127  OE1       36.4500    9.9750    8.8710 O.co2 139  GLU139     -0.2457
    128  OE2       36.9530    7.8280    8.8310 O.co2 139  GLU139     -0.2457
    129  N         39.9970   10.1010    3.7510 N.am  140  ASN140     -0.1974
    130  CA        39.9760    9.8580    2.3100 C.3   140  ASN140      0.1688
    131  C         41.2010   10.4200    1.5850 C.2   140  ASN140      0.2292
    132  O         41.1430   10.6950    0.3980 O.2   140  ASN140     -0.2864
    133  CB        38.6600   10.4100    1.7300 C.3   140  ASN140      0.1181
    134  CG        37.4570    9.5290    1.9660 C.2   140  ASN140      0.2629
    135  OD1       37.5560    8.3170    2.0610 O.2   140  ASN140     -0.2716
    136  ND2       36.2730   10.1000    1.9520 N.am  140  ASN140     -0.0877
    137  N         45.4380    9.3290    1.3840 N.3   142  LEU142     -0.1245
    138  CA        46.5630    8.4600    1.7360 C.3   142  LEU142      0.1561
    139  C         47.8420    9.2220    1.5380 C.2   142  LEU142      0.2260
    140  O         47.9310   10.0290    0.6270 O.2   142  LEU142     -0.2867
    141  CB        46.6300    7.2030    0.8410 C.3   142  LEU142      0.0270
    142  CG        45.3720    6.3870    0.7030 C.3   142  LEU142      0.0019
    143  CD1       45.5880    5.2990   -0.3190 C.3   142  LEU142      0.0001
    144  CD2       44.9450    5.8000    2.0720 C.3   142  LEU142      0.0001
    145  N         41.0850    9.1090   -2.2490 N.3   153  ILE153     -0.1231
    146  CA        40.4370    7.7980   -2.2780 C.3   153  ILE153      0.1692
    147  C         38.9460    7.9420   -1.9670 C.2   153  ILE153      0.2592
    148  O         38.5190    8.9640   -1.4450 O.2   153  ILE153     -0.2718
    149  CB        41.1120    6.7830   -1.2980 C.3   153  ILE153      0.0266
    150  CG1       41.2730    7.3620    0.0870 C.3   153  ILE153      0.0019
    151  CG2       42.4410    6.2940   -1.8130 C.3   153  ILE153      0.0020
    152  CD1       41.2390    6.3120    1.2230 C.3   153  ILE153      0.0001
    153  N         38.1730    6.9160   -2.3090 N.am  154  ASP154     -0.1974
    154  CA        36.7300    6.8100   -2.1090 C.3   154  ASP154      0.1709
    155  C         35.8910    7.8930   -2.8610 C.2   154  ASP154      0.2293
    156  O         35.4760    8.9220   -2.2830 O.2   154  ASP154     -0.2864
    157  CB        36.3790    6.7580   -0.6140 C.3   154  ASP154      0.1436
    158  CG        34.9750    6.2910   -0.2990 C.2   154  ASP154      0.3671
    159  OD1       34.4120    5.5100   -1.0970 O.co2 154  ASP154     -0.2456
    160  OD2       34.4300    6.7220    0.7330 O.co2 154  ASP154     -0.2456
@<TRIPOS>BOND
     1    48    47    2
     2    47    46    1
     3    77    76   ar
     4    45    46    1
     5    46    49    1
     6    76    78   ar
     7    76    75    1
     8    57    56    2
     9    74    75    1
    10    74    71    1
    11    56    55    1
    12    49    50    1
    13    62    63    1
    14    63    64    1
    15    63    66    1
    16    70    64   am
    17    70    71    1
    18    69    67    1
    19    50    51    1
    20    64    65    2
    21    71    72    1
    22    55    54    1
    23    55    58    1
    24    67    66    1
    25    67    68    1
    26    51    53   ar
    27    51    52   ar
    28    60    58    1
    29    72    79   am
    30    72    73    2
    31    58    59    1
    32    79    80    1
    33    34    33    2
    34    39    38    2
    35    61    59    1
    36    31    32    1
    37    33    32    1
    38    82    81    2
    39    36    37    1
    40    80    81    1
    41    80    83    1
    42    38    37    1
    43    81    90   am
    44    32    35    1
    45    40    37    1
    46    40    41    1
    47    83    84    1
    48   155   156    2
    49   155   154    1
    50    43    44    1
    51    43    42    1
    52    90    91    1
    53    90    96    1
    54    91    94    1
    55    91    92    1
    56    96    95    1
    57   153   154    1
    58   153   147   am
    59   146   145    1
    60   146   147    1
    61   146   149    1
    62    94    95    1
    63   154   157    1
    64    41    42    1
    65   147   148    2
    66   151   149    1
    67    89    87    1
    68    84    85    1
    69   149   150    1
    70    86    87    2
    71    86    85    1
    72    92    93    2
    73   159   158   ar
    74    87    88    1
    75   157   158    1
    76   143   142    1
    77   158   160   ar
    78    16    15    2
    79   150   152    1
    80   132   131    2
    81    29    28    1
    82   140   139    2
    83   142   141    1
    84   142   144    1
    85   141   138    1
    86    15    14    1
    87    30    28    1
    88    25    28    1
    89    25    26    1
    90    25    24    1
    91    14    17    1
    92    14    13    1
    93   137   138    1
    94    17    18    1
    95   139   138    1
    96   131   130    1
    97   103   101    1
    98    26    27    2
    99   133   134    1
   100   133   130    1
   101   101   102    1
   102   101    98    1
   103   136   134   am
   104   134   135    2
   105     7     6    1
   106   130   129    1
   107    19    18   ar
   108    19    21   ar
   109    18    20   ar
   110    98    97    1
   111    98    99    1
   112     6     5    1
   113     6     8    1
   114    21    23   ar
   115   129   122   am
   116    20    22   ar
   117     5     2    1
   118   123   122    2
   119    99   100    2
   120    23    22   ar
   121   122   121    1
   122    12    11    2
   123     1     2    1
   124     2     3    1
   125     9     3   am
   126     9    10    1
   127    11    10    1
   128     3     4    2
   129   121   120    1
   130   121   124    1
   131   105   104    1
   132   105   106    1
   133   105   108    1
   134   110   109   ar
   135   124   125    1
   136   106   107    2
   137   108   109    1
   138   109   111   ar
   139   125   126    1
   140   126   128   ar
   141   126   127   ar
   142   119   117   ar
   143   112   113    1
   144   116   117    1
   145   116   113    1
   146   117   118   ar
   147   113   114    1
   148   114   115    2
