@<TRIPOS>MOLECULE
tmp/4mboA00.pdb
 84 81 0 0 0
SMALL
GASTEIGER

@<TRIPOS>ATOM
      1  N         10.3040   -2.7640   -7.9730 N.3   156  VAL156     -0.1231
      2  CA        10.4770   -3.5420   -9.1980 C.3   156  VAL156      0.1692
      3  C          9.1570   -4.0660   -9.7590 C.2   156  VAL156      0.2592
      4  O          8.3180   -4.5490   -9.0130 O.2   156  VAL156     -0.2718
      5  CB        11.3340   -4.7910   -8.8970 C.3   156  VAL156      0.0266
      6  CG1       11.5640   -5.6350  -10.1490 C.3   156  VAL156      0.0020
      7  CG2       12.6540   -4.4060   -8.2720 C.3   156  VAL156      0.0020
      8  N          8.9990   -3.9770  -11.0700 N.am  157  THR157     -0.1953
      9  CA         7.8660   -4.5560  -11.7690 C.3   157  THR157      0.1897
     10  C          8.4660   -5.4620  -12.8440 C.2   157  THR157      0.2313
     11  O          9.3280   -5.0350  -13.6170 O.2   157  THR157     -0.2863
     12  CB         6.9820   -3.4800  -12.4400 C.3   157  THR157      0.1794
     13  OG1        6.3350   -2.6980  -11.4200 O.3   157  THR157     -0.2208
     14  CG2        5.9590   -4.1160  -13.3250 C.3   157  THR157      0.0378
     15  N          6.8520   -7.9400  -15.5020 N.3   159  HIS159     -0.1241
     16  CA         5.7720   -8.5780  -16.2390 C.3   159  HIS159      0.1621
     17  C          6.1920   -8.7450  -17.6890 C.2   159  HIS159      0.2264
     18  O          7.1980   -8.1790  -18.1550 O.2   159  HIS159     -0.2867
     19  CB         4.4750   -7.7640  -16.2070 C.3   159  HIS159      0.0745
     20  CG         3.8660   -7.6370  -14.8480 C.ar  159  HIS159      0.0817
     21  ND1        2.8770   -6.7210  -14.5630 N.ar  159  HIS159     -0.2268
     22  CD2        4.1590   -8.2460  -13.6760 C.ar  159  HIS159      0.1154
     23  CE1        2.5450   -6.8140  -13.2870 C.ar  159  HIS159      0.1986
     24  NE2        3.3110   -7.7310  -12.7230 N.ar  159  HIS159     -0.2212
     25  N          9.6470    7.9020  -10.7190 N.3   289  THR289     -0.1218
     26  CA         9.1590    6.7410  -11.4290 C.3   289  THR289      0.1862
     27  C         10.0720    6.3100  -12.5620 C.2   289  THR289      0.2287
     28  O         10.9440    7.0450  -12.9800 O.2   289  THR289     -0.2866
     29  CB         7.8030    7.0170  -12.1310 C.3   289  THR289      0.1770
     30  OG1        8.0100    7.8470  -13.2880 O.3   289  THR289     -0.2211
     31  CG2        6.7780    7.6300  -11.2100 C.3   289  THR289      0.0375
     32  N          8.2180    4.9940  -15.7850 N.3   291  SER291     -0.1217
     33  CA         6.8170    4.7500  -16.1500 C.3   291  SER291      0.1889
     34  C          6.4880    5.4000  -17.4530 C.2   291  SER291      0.2288
     35  O          7.3450    5.9780  -18.0950 O.2   291  SER291     -0.2866
     36  CB         5.8940    5.4060  -15.0840 C.3   291  SER291      0.2089
     37  OG         6.0300    6.8620  -15.0650 O.3   291  SER291     -0.2183
     38  N          1.9700    7.8640  -15.6210 N.3   295  GLN295     -0.1231
     39  CA         2.1920    7.0780  -14.3860 C.3   295  GLN295      0.1698
     40  C          1.1130    6.0340  -14.1890 C.2   295  GLN295      0.2593
     41  O          0.5320    5.9040  -13.1110 O.2   295  GLN295     -0.2718
     42  CB         2.2450    7.9840  -13.1620 C.3   295  GLN295      0.0381
     43  CG         3.2070    9.1240  -13.2870 C.3   295  GLN295      0.0905
     44  CD         3.3250    9.8700  -11.9770 C.2   295  GLN295      0.2608
     45  OE1        3.4800    9.2600  -10.9100 O.2   295  GLN295     -0.2717
     46  NE2        3.2840   11.1540  -12.0550 N.am  295  GLN295     -0.0878
     47  N          0.8290    5.3350  -15.2790 N.am  296  THR296     -0.1939
     48  CA        -0.1470    4.3080  -15.3360 C.3   296  THR296      0.2028
     49  C          0.4430    2.8980  -15.1210 C.2   296  THR296      0.2642
     50  O         -0.2480    1.9850  -14.6720 O.2   296  THR296     -0.2714
     51  CB        -0.8240    4.3860  -16.7180 C.3   296  THR296      0.1808
     52  OG1       -1.3230    5.7230  -16.9000 O.3   296  THR296     -0.2208
     53  CG2       -1.9480    3.3980  -16.8080 C.3   296  THR296      0.0379
     54  N          1.6720    2.7180  -15.5650 N.am  297  TYR297     -0.1959
     55  CA         2.3770    1.4390  -15.4200 C.3   297  TYR297      0.1771
     56  C          3.8710    1.7080  -15.2510 C.2   297  TYR297      0.2620
     57  O          4.3790    2.7610  -15.6680 O.2   297  TYR297     -0.2715
     58  CB         2.0990    0.4600  -16.5890 C.3   297  TYR297      0.0574
     59  CG         2.1190    1.1110  -17.9640 C.ar  297  TYR297     -0.0198
     60  CD1        3.2970    1.2780  -18.6620 C.ar  297  TYR297     -0.0009
     61  CD2        0.9450    1.5570  -18.5430 C.ar  297  TYR297     -0.0009
     62  CE1        3.3090    1.8740  -19.9030 C.ar  297  TYR297      0.0417
     63  CE2        0.9240    2.1510  -19.7890 C.ar  297  TYR297      0.0417
     64  CZ         2.1090    2.3130  -20.4700 C.ar  297  TYR297      0.1957
     65  OH         2.1120    2.8690  -21.7470 O.3   297  TYR297     -0.2866
     66  N          4.5530    0.7230  -14.6780 N.am  298  GLY298     -0.1940
     67  CA         5.9730    0.8200  -14.4250 C.3   298  GLY298      0.2014
     68  C          6.2230    0.7010  -12.9550 C.2   298  GLY298      0.2640
     69  O          5.5900   -0.1040  -12.2830 O.2   298  GLY298     -0.2714
     70  N          7.1400    1.5220  -12.4460 N.am  299  SER299     -0.1935
     71  CA         7.5350    1.5130  -11.0380 C.3   299  SER299      0.2055
     72  C          7.5780    2.9150  -10.4430 C.2   299  SER299      0.2642
     73  O          7.8830    3.8680  -11.1340 O.2   299  SER299     -0.2714
     74  CB         8.9440    0.9210  -10.8960 C.3   299  SER299      0.2130
     75  OG         8.9470   -0.4630  -11.1880 O.3   299  SER299     -0.2179
     76  N          7.3380    2.9970   -9.1370 N.am  300  LYS300     -0.1977
     77  CA         7.3710    4.2570   -8.4150 C.3   300  LYS300      0.1596
     78  C          7.9800    4.0390   -7.0440 C.2   300  LYS300      0.2287
     79  O          7.7140    3.0270   -6.3840 O.2   300  LYS300     -0.2864
     80  CB         5.9750    4.8240   -8.3100 C.3   300  LYS300      0.0298
     81  CG         5.8350    6.1140   -7.5330 C.3   300  LYS300      0.0038
     82  CD         4.4080    6.6130   -7.6680 C.3   300  LYS300      0.0206
     83  CE         4.1180    7.7560   -6.7340 C.3   300  LYS300      0.1093
     84  NZ         2.6750    8.1240   -6.7710 N.3   300  LYS300     -0.1314
@<TRIPOS>BOND
     1    65    64    1
     2    64    62   ar
     3    64    63   ar
     4    62    60   ar
     5    63    61   ar
     6    60    59   ar
     7    61    59   ar
     8    18    17    2
     9    35    34    2
    10    59    58    1
    11    17    16    1
    12    34    33    1
    13    52    51    1
    14    53    51    1
    15    51    48    1
    16    58    55    1
    17    16    19    1
    18    16    15    1
    19    19    20    1
    20    33    32    1
    21    33    36    1
    22    57    56    2
    23    38    39    1
    24    54    55    1
    25    54    49   am
    26    55    56    1
    27    48    47    1
    28    48    49    1
    29    47    40   am
    30    56    66   am
    31    49    50    2
    32    36    37    1
    33    20    21   ar
    34    20    22   ar
    35    66    67    1
    36    21    23   ar
    37    67    68    1
    38    39    40    1
    39    39    42    1
    40    40    41    2
    41    22    24   ar
    42    11    10    2
    43    14    12    1
    44    30    29    1
    45    43    42    1
    46    43    44    1
    47    23    24   ar
    48    28    27    2
    49    68    70   am
    50    68    69    2
    51    10     9    1
    52    27    26    1
    53    70    71    1
    54    12     9    1
    55    12    13    1
    56    29    26    1
    57    29    31    1
    58    46    44   am
    59    44    45    2
    60     9     8    1
    61    26    25    1
    62    75    74    1
    63    73    72    2
    64     8     3   am
    65    71    74    1
    66    71    72    1
    67    72    76   am
    68     6     5    1
    69     3     2    1
    70     3     4    2
    71     2     5    1
    72     2     1    1
    73    76    77    1
    74     5     7    1
    75    77    80    1
    76    77    78    1
    77    80    81    1
    78    82    81    1
    79    82    83    1
    80    78    79    2
    81    84    83    1
