@<TRIPOS>MOLECULE
tmp/4mbsB02.pdb
 82 76 0 0 0
SMALL
GASTEIGER

@<TRIPOS>ATOM
      1  N        189.2360  122.2280   36.1570 N.3   278  PHE278     -0.1227
      2  CA       189.1420  123.2160   35.0750 C.3   278  PHE278      0.1736
      3  C        190.4530  123.3610   34.2950 C.2   278  PHE278      0.2595
      4  O        190.4060  123.5830   33.0900 O.2   278  PHE278     -0.2718
      5  CB       188.6980  124.5880   35.5840 C.3   278  PHE278      0.0547
      6  CG       187.2470  124.6690   35.9910 C.ar  278  PHE278     -0.0202
      7  CD1      186.2350  124.2990   35.1060 C.ar  278  PHE278     -0.0042
      8  CD2      186.8870  125.1710   37.2310 C.ar  278  PHE278     -0.0042
      9  CE1      184.9030  124.3780   35.4730 C.ar  278  PHE278     -0.0003
     10  CE2      185.5500  125.2760   37.5890 C.ar  278  PHE278     -0.0003
     11  CZ       184.5670  124.8710   36.7100 C.ar  278  PHE278     -0.0000
     12  N        191.6150  123.2050   34.9530 N.am  279  LEU279     -0.1980
     13  CA       192.9010  123.3090   34.2580 C.3   279  LEU279      0.1596
     14  C        193.0830  122.1660   33.2480 C.2   279  LEU279      0.2287
     15  O        193.6220  122.3840   32.1590 O.2   279  LEU279     -0.2864
     16  CB       194.0730  123.3410   35.2570 C.3   279  LEU279      0.0297
     17  CG       194.1080  124.5490   36.2030 C.3   279  LEU279      0.0022
     18  CD1      195.1170  124.3440   37.3190 C.3   279  LEU279      0.0001
     19  CD2      194.3790  125.8590   35.4500 C.3   279  LEU279      0.0001
     20  N        188.8210  122.4290   30.8740 N.3   282  ALA282     -0.1231
     21  CA       188.3850  123.6640   30.1930 C.3   282  ALA282      0.1679
     22  C        189.0610  123.8250   28.8200 C.2   282  ALA282      0.2434
     23  O        188.3420  124.1870   27.8840 O.2   282  ALA282     -0.2733
     24  CB       188.6350  124.8950   31.0480 C.3   282  ALA282      0.0304
     25  N        190.3730  123.4870   28.6140 N.am  283  PRO283     -0.2729
     26  CA       190.9350  123.5890   27.2580 C.3   283  PRO283      0.1401
     27  C        190.1410  122.7670   26.2350 C.2   283  PRO283      0.2269
     28  O        189.8900  123.2890   25.1510 O.2   283  PRO283     -0.2865
     29  CB       192.3640  123.0600   27.4220 C.3   283  PRO283      0.0296
     30  CG       192.6920  123.3020   28.8340 C.3   283  PRO283      0.0237
     31  CD       191.4130  123.0470   29.5700 C.3   283  PRO283      0.0939
     32  N        186.5470  124.3660   25.4010 N.3   286  ILE286     -0.1231
     33  CA       186.7010  125.5780   24.5890 C.3   286  ILE286      0.1692
     34  C        187.0240  125.1820   23.1340 C.2   286  ILE286      0.2591
     35  O        186.3880  125.7230   22.2300 O.2   286  ILE286     -0.2718
     36  CB       187.7390  126.5640   25.2310 C.3   286  ILE286      0.0266
     37  CG1      187.1670  127.1290   26.5740 C.3   286  ILE286      0.0019
     38  CG2      188.1070  127.7160   24.2790 C.3   286  ILE286      0.0020
     39  CD1      188.2120  127.5410   27.6520 C.3   286  ILE286      0.0001
     40  N        187.9520  124.2170   22.9160 N.am  287  VAL287     -0.1980
     41  CA       188.3280  123.7220   21.5750 C.3   287  VAL287      0.1595
     42  C        187.1040  123.0320   20.9070 C.2   287  VAL287      0.2287
     43  O        186.8540  123.2830   19.7300 O.2   287  VAL287     -0.2864
     44  CB       189.5870  122.7940   21.6070 C.3   287  VAL287      0.0276
     45  CG1      189.8170  122.0890   20.2660 C.3   287  VAL287      0.0022
     46  CG2      190.8420  123.5680   22.0240 C.3   287  VAL287      0.0022
     47  N        184.6670  125.6150   19.6370 N.3   290  LEU290     -0.1245
     48  CA       185.3040  126.2590   18.4870 C.3   290  LEU290      0.1561
     49  C        185.2300  125.3830   17.2240 C.2   290  LEU290      0.2260
     50  O        184.9360  125.8890   16.1440 O.2   290  LEU290     -0.2867
     51  CB       186.7760  126.5700   18.8230 C.3   290  LEU290      0.0270
     52  CG       187.1570  127.9920   19.2560 C.3   290  LEU290      0.0019
     53  CD1      186.2800  128.5130   20.3830 C.3   290  LEU290      0.0001
     54  CD2      188.5950  128.0310   19.7220 C.3   290  LEU290      0.0001
     55  N        192.4360  122.6700   14.4710 N.3   308  LEU308     -0.1245
     56  CA       191.3880  122.5050   15.4750 C.3   308  LEU308      0.1561
     57  C        191.0980  121.0330   15.7540 C.2   308  LEU308      0.2260
     58  O        190.7450  120.7060   16.8900 O.2   308  LEU308     -0.2867
     59  CB       190.1040  123.2360   15.0410 C.3   308  LEU308      0.0270
     60  CG       189.7060  124.4820   15.8520 C.3   308  LEU308      0.0019
     61  CD1      190.8230  125.5280   15.8870 C.3   308  LEU308      0.0001
     62  CD2      188.4590  125.1180   15.2840 C.3   308  LEU308      0.0001
     63  N        194.0790  119.8690   17.8490 N.3   311  ALA311     -0.1245
     64  CA       193.9060  120.4890   19.1660 C.3   311  ALA311      0.1562
     65  C        192.8650  119.7250   19.9950 C.2   311  ALA311      0.2260
     66  O        193.0090  119.6250   21.2150 O.2   311  ALA311     -0.2867
     67  CB       193.4920  121.9480   19.0180 C.3   311  ALA311      0.0290
     68  N        193.8640  118.1330   23.6560 N.3   315  THR315     -0.1218
     69  CA       193.0910  118.5740   24.8190 C.3   315  THR315      0.1862
     70  C        192.2530  117.4500   25.4430 C.2   315  THR315      0.2287
     71  O        192.0880  117.4510   26.6690 O.2   315  THR315     -0.2866
     72  CB       192.2190  119.8040   24.5150 C.3   315  THR315      0.1770
     73  OG1      191.2840  119.5120   23.4790 O.3   315  THR315     -0.2211
     74  CG2      193.0390  121.0510   24.1890 C.3   315  THR315      0.0375
     75  N        194.8060  115.4060   27.4030 N.3   318  LEU318     -0.1245
     76  CA       195.0810  116.1650   28.6220 C.3   318  LEU318      0.1561
     77  C        193.9570  115.9320   29.6550 C.2   318  LEU318      0.2260
     78  O        194.2290  115.7230   30.8440 O.2   318  LEU318     -0.2867
     79  CB       195.2310  117.6780   28.3090 C.3   318  LEU318      0.0270
     80  CG       195.3580  118.6500   29.5260 C.3   318  LEU318      0.0019
     81  CD1      196.6860  118.4560   30.2910 C.3   318  LEU318      0.0001
     82  CD2      195.1820  120.1090   29.0960 C.3   318  LEU318      0.0001
@<TRIPOS>BOND
     1    55    56    1
     2    59    56    1
     3    59    60    1
     4    62    60    1
     5    56    57    1
     6    57    58    2
     7    60    61    1
     8    50    49    2
     9    49    48    1
    10    63    64    1
    11    48    51    1
    12    48    47    1
    13    51    52    1
    14    67    64    1
    15    64    65    1
    16    52    54    1
    17    52    53    1
    18    43    42    2
    19    65    66    2
    20    45    44    1
    21    42    41    1
    22    41    44    1
    23    41    40    1
    24    44    46    1
    25    35    34    2
    26    40    34   am
    27    34    33    1
    28    73    72    1
    29    68    69    1
    30    74    72    1
    31    38    36    1
    32    72    69    1
    33    33    36    1
    34    33    32    1
    35    69    70    1
    36    28    27    2
    37    36    37    1
    38    70    71    2
    39    27    26    1
    40    37    39    1
    41    26    29    1
    42    26    25    1
    43    75    76    1
    44    29    30    1
    45    23    22    2
    46    79    76    1
    47    79    80    1
    48    25    22   am
    49    25    31    1
    50    76    77    1
    51    22    21    1
    52    30    31    1
    53    82    80    1
    54    80    81    1
    55    77    78    2
    56    21    20    1
    57    21    24    1
    58    15    14    2
    59     4     3    2
    60    14    13    1
    61    13    12    1
    62    13    16    1
    63     3    12   am
    64     3     2    1
    65     2     5    1
    66     2     1    1
    67     7     9   ar
    68     7     6   ar
    69    16    17    1
    70    19    17    1
    71     9    11   ar
    72     5     6    1
    73     6     8   ar
    74    17    18    1
    75    11    10   ar
    76     8    10   ar
