@<TRIPOS>MOLECULE
tmp/4mbsA01.pdb
 85 81 0 0 0
SMALL
GASTEIGER

@<TRIPOS>ATOM
      1  N        143.9710  112.3020   38.2530 N.3    99  PHE99      -0.1241
      2  CA       142.8030  112.2970   39.1520 C.3    99  PHE99       0.1605
      3  C        143.2120  112.1260   40.6240 C.2    99  PHE99       0.2264
      4  O        142.5860  112.7280   41.4870 O.2    99  PHE99      -0.2867
      5  CB       141.8020  111.2090   38.7710 C.3    99  PHE99       0.0534
      6  CG       141.0630  111.3200   37.4510 C.ar   99  PHE99      -0.0203
      7  CD1      141.0860  112.5010   36.7090 C.ar   99  PHE99      -0.0042
      8  CD2      140.3470  110.2360   36.9440 C.ar   99  PHE99      -0.0042
      9  CE1      140.4200  112.5820   35.4740 C.ar   99  PHE99      -0.0003
     10  CE2      139.6600  110.3310   35.7290 C.ar   99  PHE99      -0.0003
     11  CZ       139.7000  111.5000   35.0020 C.ar   99  PHE99      -0.0000
     12  N        135.7600  105.9860   36.6770 N.3   137  VAL137     -0.1245
     13  CA       135.6990  107.1680   35.8130 C.3   137  VAL137      0.1561
     14  C        136.8570  107.1360   34.7960 C.2   137  VAL137      0.2260
     15  O        136.6010  107.3750   33.6230 O.2   137  VAL137     -0.2867
     16  CB       135.6720  108.4850   36.6380 C.3   137  VAL137      0.0252
     17  CG1      135.7790  109.7120   35.7290 C.3   137  VAL137      0.0019
     18  CG2      134.4100  108.5690   37.5090 C.3   137  VAL137      0.0019
     19  N        136.2740  104.5970   31.9800 N.3   140  PHE140     -0.1227
     20  CA       135.2470  105.1340   31.0800 C.3   140  PHE140      0.1736
     21  C        135.7420  106.2860   30.2070 C.2   140  PHE140      0.2595
     22  O        135.3160  106.3920   29.0550 O.2   140  PHE140     -0.2718
     23  CB       133.9970  105.5440   31.8630 C.3   140  PHE140      0.0547
     24  CG       133.0930  104.3450   32.0960 C.ar  140  PHE140     -0.0202
     25  CD1      133.1380  103.6290   33.2920 C.ar  140  PHE140     -0.0042
     26  CD2      132.2490  103.8860   31.0940 C.ar  140  PHE140     -0.0042
     27  CE1      132.3430  102.4760   33.4770 C.ar  140  PHE140     -0.0003
     28  CE2      131.4590  102.7370   31.2800 C.ar  140  PHE140     -0.0003
     29  CZ       131.5030  102.0480   32.4740 C.ar  140  PHE140     -0.0000
     30  N        136.6590  107.1080   30.7250 N.am  141  ALA141     -0.1980
     31  CA       137.2760  108.2070   29.9770 C.3   141  ALA141      0.1597
     32  C        138.2410  107.6950   28.8700 C.2   141  ALA141      0.2287
     33  O        138.4690  108.3920   27.8780 O.2   141  ALA141     -0.2864
     34  CB       138.0400  109.1080   30.9310 C.3   141  ALA141      0.0319
     35  N        137.8560  104.5560   27.3130 N.3   143  LEU143     -0.1231
     36  CA       137.0820  103.6270   26.4820 C.3   143  LEU143      0.1678
     37  C        137.0550  103.9420   24.9520 C.2   143  LEU143      0.2434
     38  O        137.4150  103.0320   24.1890 O.2   143  LEU143     -0.2733
     39  CB       135.6530  103.5070   27.0200 C.3   143  LEU143      0.0284
     40  CG       135.0480  102.1080   27.0220 C.3   143  LEU143      0.0019
     41  CD1      135.9480  101.0990   27.6980 C.3   143  LEU143      0.0001
     42  CD2      133.7370  102.1100   27.7240 C.3   143  LEU143      0.0001
     43  N        136.6710  105.1540   24.4510 N.am  144  PRO144     -0.2729
     44  CA       136.6710  105.3620   22.9810 C.3   144  PRO144      0.1401
     45  C        138.0170  105.0290   22.3270 C.2   144  PRO144      0.2269
     46  O        138.0730  104.3640   21.2910 O.2   144  PRO144     -0.2865
     47  CB       136.3370  106.8500   22.8270 C.3   144  PRO144      0.0296
     48  CG       135.5930  107.1980   24.0710 C.3   144  PRO144      0.0237
     49  CD       136.1980  106.3630   25.1650 C.3   144  PRO144      0.0939
     50  N        138.0850  116.0500   18.8760 N.3   175  PHE175     -0.1241
     51  CA       137.4520  115.5320   20.0910 C.3   175  PHE175      0.1605
     52  C        138.4740  114.9380   21.0710 C.2   175  PHE175      0.2264
     53  O        138.4630  115.3120   22.2540 O.2   175  PHE175     -0.2867
     54  CB       136.3760  114.4780   19.7650 C.3   175  PHE175      0.0534
     55  CG       135.5280  114.1040   20.9610 C.ar  175  PHE175     -0.0203
     56  CD1      134.3200  114.7560   21.2120 C.ar  175  PHE175     -0.0042
     57  CD2      135.9460  113.1200   21.8540 C.ar  175  PHE175     -0.0042
     58  CE1      133.5460  114.4270   22.3330 C.ar  175  PHE175     -0.0003
     59  CE2      135.1840  112.8070   22.9860 C.ar  175  PHE175     -0.0003
     60  CZ       133.9860  113.4600   23.2150 C.ar  175  PHE175     -0.0000
     61  N        139.6550  116.3540   24.8460 N.3   179  LYS179     -0.1245
     62  CA       139.4790  115.4600   25.9910 C.3   179  LYS179      0.1561
     63  C        140.7600  115.3970   26.8680 C.2   179  LYS179      0.2260
     64  O        140.6620  115.4990   28.0930 O.2   179  LYS179     -0.2867
     65  CB       139.1060  114.0510   25.5110 C.3   179  LYS179      0.0271
     66  CG       138.3630  113.2160   26.5500 C.3   179  LYS179      0.0035
     67  CD       138.6180  111.7240   26.3650 C.3   179  LYS179      0.0206
     68  CE       137.4380  111.0060   25.7580 C.3   179  LYS179      0.1093
     69  NZ       137.7670  109.5920   25.4400 N.3   179  LYS179     -0.1314
     70  N        141.0120  117.3790   30.5670 N.3   183  LEU183     -0.1245
     71  CA       141.2530  116.4980   31.7130 C.3   183  LEU183      0.1561
     72  C        142.7280  116.4740   32.2250 C.2   183  LEU183      0.2260
     73  O        142.9460  116.2690   33.4130 O.2   183  LEU183     -0.2867
     74  CB       140.7940  115.0570   31.3910 C.3   183  LEU183      0.0270
     75  CG       139.2850  114.8070   31.1280 C.3   183  LEU183      0.0019
     76  CD1      139.0540  113.3860   30.7060 C.3   183  LEU183      0.0001
     77  CD2      138.4150  115.1160   32.3530 C.3   183  LEU183      0.0001
     78  N        141.5760  121.0170   33.6830 N.3   187  LEU187     -0.1245
     79  CA       140.9790  120.5730   34.9500 C.3   187  LEU187      0.1561
     80  C        141.9940  120.6430   36.1010 C.2   187  LEU187      0.2260
     81  O        141.6680  121.3260   37.0670 O.2   187  LEU187     -0.2867
     82  CB       140.3560  119.1660   34.8580 C.3   187  LEU187      0.0270
     83  CG       139.7850  118.5570   36.1560 C.3   187  LEU187      0.0019
     84  CD1      138.5250  119.3050   36.6380 C.3   187  LEU187      0.0001
     85  CD2      139.5200  117.0630   35.9890 C.3   187  LEU187      0.0001
@<TRIPOS>BOND
     1    50    51    1
     2    54    51    1
     3    54    55    1
     4    51    52    1
     5    55    56   ar
     6    55    57   ar
     7    52    53    2
     8    56    58   ar
     9    46    45    2
    10    57    59   ar
    11    45    44    1
    12    58    60   ar
    13    47    44    1
    14    47    48    1
    15    44    43    1
    16    59    60   ar
    17    48    49    1
    18    38    37    2
    19    43    37   am
    20    43    49    1
    21    61    62    1
    22    37    36    1
    23    69    68    1
    24    65    62    1
    25    65    66    1
    26    68    67    1
    27    62    63    1
    28    67    66    1
    29    36    39    1
    30    36    35    1
    31    63    64    2
    32    39    40    1
    33    40    41    1
    34    40    42    1
    35    33    32    2
    36    32    31    1
    37    22    21    2
    38    31    30    1
    39    31    34    1
    40    21    30   am
    41    21    20    1
    42    70    71    1
    43    76    75    1
    44    20    23    1
    45    20    19    1
    46    26    28   ar
    47    26    24   ar
    48    75    74    1
    49    75    77    1
    50    28    29   ar
    51    74    71    1
    52    71    72    1
    53    23    24    1
    54    24    25   ar
    55    72    73    2
    56    29    27   ar
    57    25    27   ar
    58    15    14    2
    59    78    79    1
    60    14    13    1
    61    82    79    1
    62    82    83    1
    63    79    80    1
    64    11     9   ar
    65    11    10   ar
    66     9     7   ar
    67    10     8   ar
    68    17    16    1
    69    13    16    1
    70    13    12    1
    71    85    83    1
    72    80    81    2
    73    83    84    1
    74    16    18    1
    75     7     6   ar
    76     8     6   ar
    77     6     5    1
    78     1     2    1
    79     5     2    1
    80     2     3    1
    81     3     4    2
