@<TRIPOS>MOLECULE
tmp/4mbsA05.pdb
 126 117 0 0 0
SMALL
GASTEIGER

@<TRIPOS>ATOM
      1  N        166.0550  105.6560   13.5000 N.3    10  ILE10      -0.1231
      2  CA       166.6900  106.3050   14.6460 C.3    10  ILE10       0.1692
      3  C        166.0240  105.8030   15.9360 C.2    10  ILE10       0.2591
      4  O        166.7280  105.3650   16.8410 O.2    10  ILE10      -0.2718
      5  CB       166.6010  107.8520   14.4960 C.3    10  ILE10       0.0266
      6  CG1      167.6300  108.3580   13.4830 C.3    10  ILE10       0.0019
      7  CG2      166.7440  108.5890   15.8340 C.3    10  ILE10       0.0020
      8  CD1      167.0620  109.1770   12.3880 C.3    10  ILE10       0.0001
      9  N        164.6710  105.8370   15.9860 N.am   11  ALA11      -0.1980
     10  CA       163.8300  105.4550   17.1230 C.3    11  ALA11       0.1597
     11  C        164.0450  104.0080   17.5560 C.2    11  ALA11       0.2287
     12  O        163.9950  103.7290   18.7580 O.2    11  ALA11      -0.2864
     13  CB       162.3650  105.6840   16.7930 C.3    11  ALA11       0.0319
     14  N        167.4040  104.3100   19.5310 N.3    14  LEU14      -0.1231
     15  CA       167.3760  105.2230   20.6660 C.3    14  LEU14       0.1693
     16  C        166.3080  104.9020   21.7260 C.2    14  LEU14       0.2591
     17  O        166.6280  104.9990   22.9110 O.2    14  LEU14      -0.2718
     18  CB       167.1970  106.6730   20.1760 C.3    14  LEU14       0.0284
     19  CG       167.5060  107.7730   21.2000 C.3    14  LEU14       0.0019
     20  CD1      168.8250  108.4630   20.8830 C.3    14  LEU14       0.0001
     21  CD2      166.3810  108.7830   21.2640 C.3    14  LEU14       0.0001
     22  N        165.0580  104.5740   21.3340 N.am   15  LEU15      -0.1980
     23  CA       164.0040  104.3660   22.3330 C.3    15  LEU15       0.1596
     24  C        164.1710  103.0840   23.1920 C.2    15  LEU15       0.2287
     25  O        163.9660  103.1940   24.4010 O.2    15  LEU15      -0.2864
     26  CB       162.5910  104.4050   21.7200 C.3    15  LEU15       0.0297
     27  CG       162.1800  105.6920   20.9730 C.3    15  LEU15       0.0022
     28  CD1      160.8410  105.5250   20.3220 C.3    15  LEU15       0.0001
     29  CD2      162.1480  106.9220   21.8990 C.3    15  LEU15       0.0001
     30  N        166.4580  103.6940   26.3950 N.3    18  LEU18      -0.1245
     31  CA       165.8180  104.7450   27.1880 C.3    18  LEU18       0.1561
     32  C        164.6360  104.1750   27.9860 C.2    18  LEU18       0.2260
     33  O        164.6060  104.3290   29.2060 O.2    18  LEU18      -0.2867
     34  CB       165.3660  105.9230   26.2870 C.3    18  LEU18       0.0270
     35  CG       164.5920  107.0720   26.9740 C.3    18  LEU18       0.0019
     36  CD1      165.5030  107.9100   27.8760 C.3    18  LEU18       0.0001
     37  CD2      163.9220  107.9550   25.9490 C.3    18  LEU18       0.0001
     38  N        163.9710  103.7940   32.1490 N.3    22  VAL22      -0.1245
     39  CA       162.7530  104.3630   32.7540 C.3    22  VAL22       0.1561
     40  C        161.9530  103.2410   33.4650 C.2    22  VAL22       0.2260
     41  O        161.5170  103.4290   34.6000 O.2    22  VAL22      -0.2867
     42  CB       161.8710  105.1230   31.6980 C.3    22  VAL22       0.0252
     43  CG1      160.4700  105.4620   32.2430 C.3    22  VAL22       0.0019
     44  CG2      162.5610  106.3870   31.1990 C.3    22  VAL22       0.0019
     45  N        164.1210  101.8870   36.7670 N.3    25  PHE25      -0.1241
     46  CA       164.1080  102.9490   37.7750 C.3    25  PHE25       0.1605
     47  C        162.6710  103.2140   38.3320 C.2    25  PHE25       0.2264
     48  O        162.5040  103.3830   39.5430 O.2    25  PHE25      -0.2867
     49  CB       164.7220  104.2280   37.1750 C.3    25  PHE25       0.0534
     50  CG       165.0060  105.3280   38.1670 C.ar   25  PHE25      -0.0203
     51  CD1      165.9160  105.1380   39.2040 C.ar   25  PHE25      -0.0042
     52  CD2      164.3800  106.5650   38.0550 C.ar   25  PHE25      -0.0042
     53  CE1      166.1630  106.1540   40.1350 C.ar   25  PHE25      -0.0003
     54  CE2      164.6240  107.5780   38.9870 C.ar   25  PHE25      -0.0003
     55  CZ       165.5160  107.3680   40.0200 C.ar   25  PHE25      -0.0000
     56  N        156.4320  117.9590   33.3050 N.3   280  PHE280     -0.1241
     57  CA       156.5670  116.7920   32.4440 C.3   280  PHE280      0.1605
     58  C        155.4470  116.6550   31.4120 C.2   280  PHE280      0.2264
     59  O        155.7160  116.1310   30.3360 O.2   280  PHE280     -0.2867
     60  CB       156.6480  115.5090   33.2930 C.3   280  PHE280      0.0534
     61  CG       158.0220  115.2650   33.8800 C.ar  280  PHE280     -0.0203
     62  CD1      158.9210  114.3950   33.2550 C.ar  280  PHE280     -0.0042
     63  CD2      158.4350  115.9320   35.0370 C.ar  280  PHE280     -0.0042
     64  CE1      160.2050  114.1980   33.7750 C.ar  280  PHE280     -0.0003
     65  CE2      159.7250  115.7450   35.5510 C.ar  280  PHE280     -0.0003
     66  CZ       160.5990  114.8780   34.9150 C.ar  280  PHE280     -0.0000
     67  N        156.2490  113.5070   19.3870 N.3   313  GLN313     -0.1231
     68  CA       156.9640  112.2920   19.7980 C.3   313  GLN313      0.1698
     69  C        157.8750  112.5670   21.0120 C.2   313  GLN313      0.2592
     70  O        157.8080  111.8160   21.9850 O.2   313  GLN313     -0.2718
     71  CB       157.7850  111.7030   18.6370 C.3   313  GLN313      0.0381
     72  CG       156.9220  111.0150   17.5770 C.3   313  GLN313      0.0905
     73  CD       157.8270  110.6640   16.4100 C.2   313  GLN313      0.2608
     74  OE1      158.7330  109.8240   16.4990 O.2   313  GLN313     -0.2717
     75  NE2      157.5270  111.3100   15.2890 N.am  313  GLN313     -0.0878
     76  N        158.6760  113.6650   20.9670 N.am  314  VAL314     -0.1980
     77  CA       159.6100  114.0640   22.0250 C.3   314  VAL314      0.1595
     78  C        158.8580  114.3660   23.3350 C.2   314  VAL314      0.2287
     79  O        159.2190  113.7990   24.3750 O.2   314  VAL314     -0.2864
     80  CB       160.5230  115.2570   21.5950 C.3   314  VAL314      0.0276
     81  CG1      161.4150  115.7350   22.7470 C.3   314  VAL314      0.0022
     82  CG2      161.3850  114.8900   20.3850 C.3   314  VAL314      0.0022
     83  N        157.2520  111.3200   24.9930 N.3   317  THR317     -0.1203
     84  CA       158.3330  110.5190   25.5740 C.3   317  THR317      0.1994
     85  C        158.7010  111.1570   26.9350 C.2   317  THR317      0.2617
     86  O        158.8220  110.4280   27.9190 O.2   317  THR317     -0.2717
     87  CB       159.5180  110.4060   24.6010 C.3   317  THR317      0.1784
     88  OG1      159.1080  109.6960   23.4220 O.3   317  THR317     -0.2211
     89  CG2      160.7190  109.7060   25.2200 C.3   317  THR317      0.0376
     90  N        158.8340  112.5130   26.9920 N.am  318  LEU318     -0.1979
     91  CA       159.1020  113.2680   28.2230 C.3   318  LEU318      0.1596
     92  C        157.9970  113.0000   29.2680 C.2   318  LEU318      0.2287
     93  O        158.2930  112.7860   30.4480 O.2   318  LEU318     -0.2864
     94  CB       159.2140  114.7890   27.9360 C.3   318  LEU318      0.0297
     95  CG       159.3020  115.7530   29.1780 C.3   318  LEU318      0.0022
     96  CD1      160.6180  115.5970   29.9340 C.3   318  LEU318      0.0001
     97  CD2      159.0880  117.2100   28.7760 C.3   318  LEU318      0.0001
     98  N        158.1370  109.4160   30.8250 N.3   321  THR321     -0.1218
     99  CA       159.2610  109.4350   31.7720 C.3   321  THR321      0.1862
    100  C        158.8200  109.7850   33.2130 C.2   321  THR321      0.2287
    101  O        159.4420  109.3170   34.1660 O.2   321  THR321     -0.2866
    102  CB       160.2650  110.4420   31.2530 C.3   321  THR321      0.1770
    103  OG1      160.9490  109.8480   30.1570 O.3   321  THR321     -0.2211
    104  CG2      161.2220  110.9260   32.2950 C.3   321  THR321      0.0375
    105  N        158.3710  107.6000   36.6720 N.3   324  CYS324     -0.1221
    106  CA       159.4670  107.2360   37.5730 C.3   324  CYS324      0.1808
    107  C        159.9610  108.4220   38.4850 C.2   324  CYS324      0.2601
    108  O        160.8890  108.2190   39.2740 O.2   324  CYS324     -0.2717
    109  CB       160.6210  106.6170   36.7760 C.3   324  CYS324      0.0970
    110  SG       161.6670  107.7980   35.8810 S.3   324  CYS324     -0.0800
    111  N        159.2980  109.5990   38.4400 N.am  325  ILE325     -0.1979
    112  CA       159.7190  110.8130   39.1580 C.3   325  ILE325      0.1595
    113  C        159.1420  110.9740   40.5990 C.2   325  ILE325      0.2287
    114  O        159.9000  111.3990   41.4780 O.2   325  ILE325     -0.2864
    115  CB       159.4250  112.0740   38.2880 C.3   325  ILE325      0.0276
    116  CG1      160.1610  112.0000   36.9160 C.3   325  ILE325      0.0022
    117  CG2      159.7750  113.3910   39.0140 C.3   325  ILE325      0.0022
    118  CD1      161.7800  112.0560   36.9470 C.3   325  ILE325      0.0001
    119  N        161.2440  109.8790   43.6620 N.3   328  ILE328     -0.1245
    120  CA       162.3750  110.7950   43.9480 C.3   328  ILE328      0.1561
    121  C        161.8800  111.9530   44.8280 C.2   328  ILE328      0.2260
    122  O        162.5260  112.2980   45.8200 O.2   328  ILE328     -0.2867
    123  CB       163.0790  111.3200   42.6660 C.3   328  ILE328      0.0252
    124  CG1      163.6160  110.1910   41.7890 C.3   328  ILE328      0.0019
    125  CG2      164.1830  112.3240   42.9880 C.3   328  ILE328      0.0019
    126  CD1      163.6030  110.5740   40.2810 C.3   328  ILE328      0.0001
@<TRIPOS>BOND
     1     8     6    1
     2     6     5    1
     3     1     2    1
     4     5     2    1
     5     5     7    1
     6     2     3    1
     7    75    73   am
     8     3     9   am
     9     3     4    2
    10     9    10    1
    11    73    74    2
    12    73    72    1
    13    13    10    1
    14    10    11    1
    15    11    12    2
    16    72    71    1
    17    71    68    1
    18    67    68    1
    19    14    15    1
    20    68    69    1
    21    18    15    1
    22    18    19    1
    23    28    27    1
    24    82    80    1
    25    15    16    1
    26    20    19    1
    27    76    69   am
    28    76    77    1
    29    27    26    1
    30    27    29    1
    31    69    70    2
    32    19    21    1
    33    22    16   am
    34    22    23    1
    35    80    77    1
    36    80    81    1
    37    26    23    1
    38    16    17    2
    39    77    78    1
    40    23    24    1
    41    24    25    2
    42    78    79    2
    43    88    87    1
    44    87    89    1
    45    87    84    1
    46    83    84    1
    47    84    85    1
    48    37    35    1
    49    34    35    1
    50    34    31    1
    51    30    31    1
    52    85    90   am
    53    85    86    2
    54    35    36    1
    55    90    91    1
    56    31    32    1
    57    94    91    1
    58    94    95    1
    59    32    33    2
    60    91    92    1
    61    97    95    1
    62    95    96    1
    63    92    93    2
    64   103   102    1
    65    59    58    2
    66    98    99    1
    67    44    42    1
    68   102    99    1
    69   102   104    1
    70    58    57    1
    71    42    43    1
    72    42    39    1
    73    99   100    1
    74    38    39    1
    75    57    60    1
    76    57    56    1
    77    39    40    1
    78   100   101    2
    79    62    64   ar
    80    62    61   ar
    81    60    61    1
    82    40    41    2
    83    64    66   ar
    84    61    63   ar
    85    66    65   ar
    86    63    65   ar
    87   110   109    1
    88   105   106    1
    89    45    46    1
    90   109   106    1
    91   116   118    1
    92   116   115    1
    93    49    46    1
    94    49    50    1
    95   106   107    1
    96    46    47    1
    97    52    50   ar
    98    52    54   ar
    99    50    51   ar
   100   115   117    1
   101   115   112    1
   102    47    48    2
   103   111   107   am
   104   111   112    1
   105   107   108    2
   106    54    55   ar
   107   112   113    1
   108    51    53   ar
   109    55    53   ar
   110   126   124    1
   111   113   114    2
   112   124   123    1
   113   123   125    1
   114   123   120    1
   115   119   120    1
   116   120   121    1
   117   121   122    2
