@<TRIPOS>MOLECULE
tmp/4mbsA00.pdb
 252 243 0 0 0
SMALL
GASTEIGER

@<TRIPOS>ATOM
      1  N        165.0580  104.5740   21.3340 N.3    15  LEU15      -0.1245
      2  CA       164.0040  104.3660   22.3330 C.3    15  LEU15       0.1561
      3  C        164.1710  103.0840   23.1920 C.2    15  LEU15       0.2260
      4  O        163.9660  103.1940   24.4010 O.2    15  LEU15      -0.2867
      5  CB       162.5910  104.4050   21.7200 C.3    15  LEU15       0.0270
      6  CG       162.1800  105.6920   20.9730 C.3    15  LEU15       0.0019
      7  CD1      160.8410  105.5250   20.3220 C.3    15  LEU15       0.0001
      8  CD2      162.1480  106.9220   21.8990 C.3    15  LEU15       0.0001
      9  N        163.7180  103.4690   27.3010 N.3    19  TYR19      -0.1241
     10  CA       162.5080  102.8670   27.8660 C.3    19  TYR19       0.1605
     11  C        162.8570  101.7940   28.8990 C.2    19  TYR19       0.2264
     12  O        162.1900  101.7130   29.9310 O.2    19  TYR19      -0.2867
     13  CB       161.6080  102.2920   26.7590 C.3    19  TYR19       0.0534
     14  CG       160.8860  103.3090   25.8950 C.ar   19  TYR19      -0.0201
     15  CD1      161.3210  104.6340   25.8250 C.ar   19  TYR19      -0.0009
     16  CD2      159.8110  102.9310   25.0910 C.ar   19  TYR19      -0.0009
     17  CE1      160.6880  105.5630   25.0030 C.ar   19  TYR19       0.0417
     18  CE2      159.1820  103.8470   24.2450 C.ar   19  TYR19       0.0417
     19  CZ       159.6200  105.1660   24.2140 C.ar   19  TYR19       0.1957
     20  OH       159.0150  106.1050   23.4140 O.3    19  TYR19      -0.2866
     21  N        156.3770   98.9130   24.2340 N.3    68  TRP68      -0.1241
     22  CA       156.6150  100.0220   23.2910 C.3    68  TRP68       0.1605
     23  C        158.0650  100.0130   22.8180 C.2    68  TRP68       0.2264
     24  O        158.3390  100.3910   21.6740 O.2    68  TRP68      -0.2867
     25  CB       156.2710  101.4000   23.9000 C.3    68  TRP68       0.0550
     26  CG       154.9020  101.5390   24.5280 C.ar   68  TRP68       0.0003
     27  CD1      154.6240  102.0680   25.7550 C.ar   68  TRP68       0.0946
     28  CD2      153.6270  101.2060   23.9380 C.ar   68  TRP68       0.0152
     29  NE1      153.2610  102.0780   25.9740 N.ar   68  TRP68      -0.2442
     30  CE2      152.6270  101.5510   24.8790 C.ar   68  TRP68       0.0810
     31  CE3      153.2330  100.6440   22.7110 C.ar   68  TRP68       0.0012
     32  CZ2      151.2620  101.3490   24.6320 C.ar   68  TRP68       0.0191
     33  CZ3      151.8840  100.4260   22.4720 C.ar   68  TRP68       0.0001
     34  CH2      150.9140  100.7800   23.4180 C.ar   68  TRP68       0.0015
     35  N        158.3900   97.0940   20.2170 N.3    71  TYR71      -0.1227
     36  CA       157.6760   97.5910   19.0390 C.3    71  TYR71       0.1736
     37  C        158.5930   98.5750   18.2590 C.2    71  TYR71       0.2595
     38  O        158.8110   98.3690   17.0580 O.2    71  TYR71      -0.2718
     39  CB       156.3530   98.2290   19.4910 C.3    71  TYR71       0.0548
     40  CG       155.4900   98.8650   18.4230 C.ar   71  TYR71      -0.0200
     41  CD1      155.4410   98.3440   17.1300 C.ar   71  TYR71      -0.0009
     42  CD2      154.6420   99.9210   18.7290 C.ar   71  TYR71      -0.0009
     43  CE1      154.6360   98.9200   16.1490 C.ar   71  TYR71       0.0417
     44  CE2      153.8290  100.5020   17.7610 C.ar   71  TYR71       0.0417
     45  CZ       153.8190   99.9920   16.4740 C.ar   71  TYR71       0.1957
     46  OH       152.9990  100.5680   15.5360 O.3    71  TYR71      -0.2866
     47  N        159.2070   99.5620   18.9730 N.am   72  ALA72      -0.1980
     48  CA       160.1760  100.5190   18.4150 C.3    72  ALA72       0.1597
     49  C        161.3210   99.8000   17.6850 C.2    72  ALA72       0.2287
     50  O        161.6230  100.1380   16.5440 O.2    72  ALA72      -0.2864
     51  CB       160.7520  101.3960   19.5240 C.3    72  ALA72       0.0319
     52  N        147.2250   99.7860   25.3300 N.3    87  THR87      -0.1218
     53  CA       146.7290  101.1340   24.9990 C.3    87  THR87       0.1862
     54  C        145.7410  101.5450   26.1180 C.2    87  THR87       0.2287
     55  O        145.7840  102.6820   26.5900 O.2    87  THR87      -0.2866
     56  CB       146.1080  101.1300   23.5850 C.3    87  THR87       0.1770
     57  OG1      147.1350  100.7940   22.6500 O.3    87  THR87      -0.2211
     58  CG2      145.4590  102.4680   23.1950 C.3    87  THR87       0.0375
     59  N        147.6250  102.4040   29.3290 N.3    90  TYR90      -0.1227
     60  CA       148.3260  103.6750   29.1200 C.3    90  TYR90       0.1736
     61  C        147.3880  104.8600   29.3920 C.2    90  TYR90       0.2595
     62  O        147.7730  105.8040   30.0750 O.2    90  TYR90      -0.2718
     63  CB       148.8800  103.7400   27.6830 C.3    90  TYR90       0.0548
     64  CG       149.8880  104.8470   27.4600 C.ar   90  TYR90      -0.0200
     65  CD1      151.2530  104.6300   27.6670 C.ar   90  TYR90      -0.0009
     66  CD2      149.4880  106.1010   26.9990 C.ar   90  TYR90      -0.0009
     67  CE1      152.1940  105.6350   27.4260 C.ar   90  TYR90       0.0417
     68  CE2      150.4150  107.1290   26.7990 C.ar   90  TYR90       0.0417
     69  CZ       151.7710  106.8850   26.9950 C.ar   90  TYR90       0.1957
     70  OH       152.6930  107.8810   26.7810 O.3    90  TYR90      -0.2866
     71  N        146.1670  104.8170   28.8330 N.am   91  PHE91      -0.1976
     72  CA       145.1800  105.8840   28.9880 C.3    91  PHE91       0.1639
     73  C        144.6460  105.9110   30.4160 C.2    91  PHE91       0.2290
     74  O        144.6130  106.9810   31.0210 O.2    91  PHE91      -0.2864
     75  CB       144.0490  105.7330   27.9790 C.3    91  PHE91       0.0560
     76  CG       144.3090  106.3010   26.6070 C.ar   91  PHE91      -0.0200
     77  CD1      143.8830  107.5790   26.2770 C.ar   91  PHE91      -0.0042
     78  CD2      144.9000  105.5230   25.6110 C.ar   91  PHE91      -0.0042
     79  CE1      144.0640  108.0820   24.9750 C.ar   91  PHE91      -0.0003
     80  CE2      145.0880  106.0270   24.3220 C.ar   91  PHE91      -0.0003
     81  CZ       144.6710  107.3040   24.0100 C.ar   91  PHE91      -0.0000
     82  N        147.2610  107.1050   32.8250 N.3    94  PHE94      -0.1241
     83  CA       147.4080  108.5480   32.6780 C.3    94  PHE94       0.1605
     84  C        146.3030  109.3240   33.4060 C.2    94  PHE94       0.2264
     85  O        146.6140  110.1630   34.2550 O.2    94  PHE94      -0.2867
     86  CB       147.4400  108.9530   31.1810 C.3    94  PHE94       0.0534
     87  CG       147.3860  110.4460   30.9340 C.ar   94  PHE94      -0.0203
     88  CD1      148.4920  111.2520   31.1960 C.ar   94  PHE94      -0.0042
     89  CD2      146.2310  111.0430   30.4470 C.ar   94  PHE94      -0.0042
     90  CE1      148.4340  112.6290   30.9920 C.ar   94  PHE94      -0.0003
     91  CE2      146.1740  112.4220   30.2440 C.ar   94  PHE94      -0.0003
     92  CZ       147.2740  113.2050   30.5170 C.ar   94  PHE94      -0.0000
     93  N        139.0920  105.4310   22.9920 N.3   145  ASN145     -0.1240
     94  CA       140.4810  105.2620   22.5830 C.3   145  ASN145      0.1653
     95  C        140.8760  103.7830   22.4220 C.2   145  ASN145      0.2266
     96  O        141.5100  103.4480   21.4140 O.2   145  ASN145     -0.2867
     97  CB       141.3690  105.9610   23.5910 C.3   145  ASN145      0.1155
     98  CG       140.8840  107.3660   23.8750 C.2   145  ASN145      0.2627
     99  OD1      141.1120  108.2860   23.0880 O.2   145  ASN145     -0.2716
    100  ND2      140.1470  107.5460   24.9630 N.am  145  ASN145     -0.0877
    101  N        150.5810   98.6040   15.8350 N.3   160  CYS160     -0.1221
    102  CA       149.6400   98.8140   16.9380 C.3   160  CYS160      0.1808
    103  C        149.4290  100.3020   16.9930 C.2   160  CYS160      0.2602
    104  O        150.3440  101.0400   17.3550 O.2   160  CYS160     -0.2717
    105  CB       150.1560   98.2410   18.2570 C.3   160  CYS160      0.0970
    106  SG       149.0960   98.5800   19.6930 S.3   160  CYS160     -0.0800
    107  N        148.2830  100.7520   16.4780 N.am  161  SER161     -0.1938
    108  CA       147.9560  102.1680   16.3540 C.3   161  SER161      0.2055
    109  C        146.4520  102.4330   16.4980 C.2   161  SER161      0.2643
    110  O        145.6300  101.5170   16.5040 O.2   161  SER161     -0.2714
    111  CB       148.4440  102.6950   15.0020 C.3   161  SER161      0.2130
    112  OG       148.1480  103.9810   14.7760 O.3   161  SER161     -0.2179
    113  N        146.1200  103.7160   16.6050 N.am  162  SER162     -0.1949
    114  CA       144.7820  104.2650   16.6800 C.3   162  SER162      0.1924
    115  C        144.3150  104.5610   15.2610 C.2   162  SER162      0.2314
    116  O        145.0680  105.1500   14.4780 O.2   162  SER162     -0.2863
    117  CB       144.8020  105.5300   17.5360 C.3   162  SER162      0.2116
    118  OG       143.5170  106.1050   17.6930 O.3   162  SER162     -0.2180
    119  N        141.0570  106.3040   13.4280 N.3   164  PHE164     -0.1241
    120  CA       139.8020  107.0490   13.4390 C.3   164  PHE164      0.1605
    121  C        139.0690  106.8520   12.1190 C.2   164  PHE164      0.2264
    122  O        139.7300  106.7980   11.0810 O.2   164  PHE164     -0.2867
    123  CB       140.0370  108.5450   13.7000 C.3   164  PHE164      0.0534
    124  CG       140.7750  108.8880   14.9780 C.ar  164  PHE164     -0.0203
    125  CD1      140.4390  108.2780   16.1850 C.ar  164  PHE164     -0.0042
    126  CD2      141.7700  109.8580   14.9840 C.ar  164  PHE164     -0.0042
    127  CE1      141.1200  108.5950   17.3620 C.ar  164  PHE164     -0.0003
    128  CE2      142.4350  110.1900   16.1630 C.ar  164  PHE164     -0.0003
    129  CZ       142.1070  109.5570   17.3450 C.ar  164  PHE164     -0.0000
    130  N        140.0820  113.7360   15.7500 N.3   173  LYS173     -0.1245
    131  CA       141.3430  114.3880   16.1150 C.3   173  LYS173      0.1561
    132  C        141.0180  115.5190   17.0830 C.2   173  LYS173      0.2260
    133  O        141.5730  115.5490   18.1720 O.2   173  LYS173     -0.2867
    134  CB       142.0920  114.9150   14.8710 C.3   173  LYS173      0.0271
    135  CG       142.9760  113.8790   14.2070 C.3   173  LYS173      0.0035
    136  CD       144.2730  114.5660   13.8020 C.3   173  LYS173      0.0206
    137  CE       145.3360  114.3950   14.8640 C.3   173  LYS173      0.1093
    138  NZ       145.0600  115.0200   16.1920 N.3   173  LYS173     -0.1314
    139  N        139.3180  113.9900   20.5970 N.3   176  GLN176     -0.1231
    140  CA       140.3050  113.3110   21.4340 C.3   176  GLN176      0.1698
    141  C        141.3730  114.2710   21.9390 C.2   176  GLN176      0.2592
    142  O        141.9320  114.0320   23.0130 O.2   176  GLN176     -0.2718
    143  CB       140.9540  112.1080   20.7160 C.3   176  GLN176      0.0381
    144  CG       140.0620  110.8530   20.5870 C.3   176  GLN176      0.0905
    145  CD       139.2120  110.5010   21.8050 C.2   176  GLN176      0.2608
    146  OE1      138.0300  110.1720   21.6820 O.2   176  GLN176     -0.2717
    147  NE2      139.7790  110.5480   23.0090 N.am  176  GLN176     -0.0878
    148  N        141.6310  115.3690   21.1950 N.am  177  THR177     -0.1953
    149  CA       142.5920  116.3950   21.5990 C.3   177  THR177      0.1897
    150  C        142.0190  117.1540   22.7670 C.2   177  THR177      0.2313
    151  O        142.6930  117.2640   23.7820 O.2   177  THR177     -0.2863
    152  CB       142.9560  117.3320   20.4230 C.3   177  THR177      0.1794
    153  OG1      143.6990  116.5900   19.4450 O.3   177  THR177     -0.2208
    154  CG2      143.7520  118.5730   20.8620 C.3   177  THR177      0.0378
    155  N        141.9460  115.2230   26.2430 N.3   180  ILE180     -0.1245
    156  CA       143.2340  115.1070   26.9410 C.3   180  ILE180      0.1561
    157  C        143.6560  116.4690   27.5150 C.2   180  ILE180      0.2260
    158  O        144.2100  116.5280   28.6140 O.2   180  ILE180     -0.2867
    159  CB       144.3310  114.4860   26.0200 C.3   180  ILE180      0.0252
    160  CG1      143.9760  113.0130   25.6520 C.3   180  ILE180      0.0019
    161  CG2      145.7440  114.5660   26.6660 C.3   180  ILE180      0.0019
    162  CD1      144.6590  112.4420   24.4310 C.3   180  ILE180      0.0001
    163  N        154.2070  117.1010   31.7130 N.3   281  TRP281     -0.1241
    164  CA       153.0840  116.8680   30.7930 C.3   281  TRP281      0.1605
    165  C        152.5310  118.0890   30.0530 C.2   281  TRP281      0.2264
    166  O        151.9860  117.8970   28.9610 O.2   281  TRP281     -0.2867
    167  CB       151.9410  116.1580   31.5160 C.3   281  TRP281      0.0550
    168  CG       152.1000  114.6670   31.5520 C.ar  281  TRP281      0.0003
    169  CD1      152.3060  113.8940   32.6540 C.ar  281  TRP281      0.0946
    170  CD2      152.0920  113.7680   30.4240 C.ar  281  TRP281      0.0152
    171  NE1      152.3890  112.5680   32.2930 N.ar  281  TRP281     -0.2442
    172  CE2      152.2520  112.4590   30.9320 C.ar  281  TRP281      0.0810
    173  CE3      151.9390  113.9410   29.0320 C.ar  281  TRP281      0.0012
    174  CZ2      152.2760  111.3260   30.1010 C.ar  281  TRP281      0.0191
    175  CZ3      151.9720  112.8210   28.2080 C.ar  281  TRP281      0.0001
    176  CH2      152.1500  111.5340   28.7400 C.ar  281  TRP281      0.0015
    177  N        153.5660  118.4920   26.3030 N.3   284  TYR284     -0.1241
    178  CA       152.8070  117.6250   25.3870 C.3   284  TYR284      0.1605
    179  C        151.4280  118.2090   25.0590 C.2   284  TYR284      0.2264
    180  O        151.0830  118.2750   23.8750 O.2   284  TYR284     -0.2867
    181  CB       152.6570  116.1720   25.9070 C.3   284  TYR284      0.0534
    182  CG       151.7890  115.3160   25.0050 C.ar  284  TYR284     -0.0201
    183  CD1      152.2440  114.8970   23.7540 C.ar  284  TYR284     -0.0009
    184  CD2      150.4890  114.9810   25.3700 C.ar  284  TYR284     -0.0009
    185  CE1      151.4340  114.1500   22.8980 C.ar  284  TYR284      0.0417
    186  CE2      149.6700  114.2310   24.5240 C.ar  284  TYR284      0.0417
    187  CZ       150.1430  113.8220   23.2840 C.ar  284  TYR284      0.1957
    188  OH       149.3350  113.0860   22.4430 O.3   284  TYR284     -0.2866
    189  N        150.1930  119.1740   21.3980 N.3   288  LEU288     -0.1245
    190  CA       148.9890  118.4710   20.9450 C.3   288  LEU288      0.1561
    191  C        147.9020  119.4720   20.4850 C.2   288  LEU288      0.2260
    192  O        147.2120  119.2230   19.4890 O.2   288  LEU288     -0.2867
    193  CB       148.4550  117.5570   22.0740 C.3   288  LEU288      0.0270
    194  CG       147.2190  116.6820   21.7970 C.3   288  LEU288      0.0019
    195  CD1      147.4890  115.6190   20.7330 C.3   288  LEU288      0.0001
    196  CD2      146.7500  116.0120   23.0650 C.3   288  LEU288      0.0001
    197  N        149.3520  121.0560   17.0880 N.3   291  ASN291     -0.1225
    198  CA       149.3750  120.0620   16.0120 C.3   291  ASN291      0.1785
    199  C        147.9610  119.7950   15.4620 C.2   291  ASN291      0.2597
    200  O        147.8050  119.6600   14.2460 O.2   291  ASN291     -0.2718
    201  CB       150.0210  118.7660   16.5270 C.3   291  ASN291      0.1169
    202  CG       150.2060  117.6680   15.5130 C.2   291  ASN291      0.2627
    203  OD1      151.2300  117.5850   14.8360 O.2   291  ASN291     -0.2716
    204  ND2      149.2590  116.7420   15.4550 N.am  291  ASN291     -0.0877
    205  N        146.9440  119.7200   16.3450 N.am  292  THR292     -0.1953
    206  CA       145.5570  119.4670   15.9400 C.3   292  THR292      0.1897
    207  C        144.9150  120.7600   15.3910 C.2   292  THR292      0.2313
    208  O        144.5350  120.7920   14.2180 O.2   292  THR292     -0.2863
    209  CB       144.7350  118.8510   17.1130 C.3   292  THR292      0.1794
    210  OG1      145.3010  117.5960   17.4930 O.3   292  THR292     -0.2208
    211  CG2      143.2710  118.6330   16.7670 C.3   292  THR292      0.0378
    212  N        155.7220  116.2300   18.9770 N.3   312  MET312     -0.1230
    213  CA       154.7140  115.4150   19.6420 C.3   312  MET312      0.1702
    214  C        155.3500  114.1340   20.1700 C.2   312  MET312      0.2592
    215  O        155.0720  113.7560   21.2990 O.2   312  MET312     -0.2718
    216  CB       153.5310  115.1030   18.7130 C.3   312  MET312      0.0401
    217  CG       152.2210  115.6390   19.2350 C.3   312  MET312      0.0596
    218  SD       150.8060  115.0100   18.3090 S.3   312  MET312     -0.1393
    219  CE       150.4160  113.5440   19.2530 C.3   312  MET312      0.0692
    220  N        156.2490  113.5070   19.3870 N.am  313  GLN313     -0.1979
    221  CA       156.9640  112.2920   19.7980 C.3   313  GLN313      0.1601
    222  C        157.8750  112.5670   21.0120 C.2   313  GLN313      0.2287
    223  O        157.8080  111.8160   21.9850 O.2   313  GLN313     -0.2864
    224  CB       157.7850  111.7030   18.6370 C.3   313  GLN313      0.0394
    225  CG       156.9220  111.0150   17.5770 C.3   313  GLN313      0.0908
    226  CD       157.8270  110.6640   16.4100 C.2   313  GLN313      0.2608
    227  OE1      158.7330  109.8240   16.4990 O.2   313  GLN313     -0.2717
    228  NE2      157.5270  111.3100   15.2890 N.am  313  GLN313     -0.0878
    229  N        155.7440  113.5370   24.2780 N.3   316  GLU316     -0.1231
    230  CA       155.0090  112.3770   24.8060 C.3   316  GLU316      0.1699
    231  C        155.9970  111.4160   25.5090 C.2   316  GLU316      0.2592
    232  O        155.6250  110.7840   26.5020 O.2   316  GLU316     -0.2718
    233  CB       154.2160  111.6500   23.7080 C.3   316  GLU316      0.0402
    234  CG       153.0190  110.9020   24.2580 C.3   316  GLU316      0.1161
    235  CD       152.5230  109.6960   23.4800 C.2   316  GLU316      0.3649
    236  OE1      152.0700  108.7310   24.1360 O.co2 316  GLU316     -0.2457
    237  OE2      152.5120  109.7370   22.2270 O.co2 316  GLU316     -0.2457
    238  N        157.2520  111.3200   24.9930 N.am  317  THR317     -0.1953
    239  CA       158.3330  110.5190   25.5740 C.3   317  THR317      0.1897
    240  C        158.7010  111.1570   26.9350 C.2   317  THR317      0.2313
    241  O        158.8220  110.4280   27.9190 O.2   317  THR317     -0.2863
    242  CB       159.5180  110.4060   24.6010 C.3   317  THR317      0.1794
    243  OG1      159.1080  109.6960   23.4220 O.3   317  THR317     -0.2208
    244  CG2      160.7190  109.7060   25.2200 C.3   317  THR317      0.0378
    245  N        155.9010  110.3600   29.3940 N.3   320  MET320     -0.1245
    246  CA       155.9660  108.9500   29.7810 C.3   320  MET320      0.1570
    247  C        156.9740  108.7650   30.9270 C.2   320  MET320      0.2261
    248  O        156.6540  108.1120   31.9130 O.2   320  MET320     -0.2867
    249  CB       156.3000  108.0590   28.5630 C.3   320  MET320      0.0387
    250  CG       156.5880  106.6000   28.9320 C.3   320  MET320      0.0595
    251  SD       158.1130  105.8750   28.2170 S.3   320  MET320     -0.1393
    252  CE       159.3450  107.0350   28.7510 C.3   320  MET320      0.0692
@<TRIPOS>BOND
     1   122   121    2
     2   121   120    1
     3   119   120    1
     4   120   123    1
     5   123   124    1
     6   136   135    1
     7   136   137    1
     8   135   134    1
     9   208   207    2
    10   200   199    2
    11   116   115    2
    12   112   111    1
    13   203   202    2
    14   137   138    1
    15   134   131    1
    16   124   126   ar
    17   124   125   ar
    18   126   128   ar
    19   111   108    1
    20   115   114    1
    21   228   226   am
    22   207   206    1
    23   204   202   am
    24   199   198    1
    25   199   205   am
    26   202   201    1
    27    46    45    1
    28   130   131    1
    29   101   102    1
    30   206   205    1
    31   206   209    1
    32   198   201    1
    33   198   197    1
    34   131   132    1
    35    43    45   ar
    36    43    41   ar
    37   128   129   ar
    38   125   127   ar
    39   108   107    1
    40   108   109    1
    41   226   227    2
    42   226   225    1
    43    45    44   ar
    44   107   103   am
    45   109   110    2
    46   109   113   am
    47    50    49    2
    48   113   114    1
    49   114   117    1
    50   211   209    1
    51   102   103    1
    52   102   105    1
    53   103   104    2
    54    38    37    2
    55   132   133    2
    56   209   210    1
    57    41    40   ar
    58   129   127   ar
    59   117   118    1
    60   225   224    1
    61    49    48    1
    62    44    42   ar
    63   105   106    1
    64    37    47   am
    65    37    36    1
    66   218   217    1
    67   218   219    1
    68    48    47    1
    69    48    51    1
    70    40    42   ar
    71    40    39    1
    72   224   221    1
    73   216   217    1
    74   216   213    1
    75   212   213    1
    76    36    39    1
    77    36    35    1
    78   220   221    1
    79   220   214   am
    80   153   152    1
    81   192   191    2
    82   213   214    1
    83   221   222    1
    84   214   215    2
    85     7     6    1
    86   152   154    1
    87   152   149    1
    88   191   190    1
    89   144   143    1
    90   144   145    1
    91   139   140    1
    92   143   140    1
    93   195   194    1
    94   190   189    1
    95   190   193    1
    96     6     5    1
    97     6     8    1
    98   222   223    2
    99   148   149    1
   100   148   141   am
   101     1     2    1
   102    96    95    2
   103   140   141    1
   104   149   150    1
   105    24    23    2
   106   146   145    2
   107     5     2    1
   108   194   193    1
   109   194   196    1
   110   145   147   am
   111   141   142    2
   112   237   235   ar
   113     2     3    1
   114    95    94    1
   115   188   187    1
   116    33    31   ar
   117    33    34   ar
   118    94    93    1
   119    94    97    1
   120    57    56    1
   121    31    28   ar
   122   150   151    2
   123    23    22    1
   124   185   187   ar
   125   185   183   ar
   126    99    98    2
   127     3     4    2
   128    58    56    1
   129   187   186   ar
   130    22    25    1
   131    22    21    1
   132    20    19    1
   133    34    32   ar
   134   243   242    1
   135   235   236   ar
   136   235   234    1
   137    56    53    1
   138    97    98    1
   139   233   234    1
   140   233   230    1
   141   183   182   ar
   142   180   179    2
   143    98   100   am
   144    25    26    1
   145    28    26   ar
   146    28    30   ar
   147    81    80   ar
   148    81    79   ar
   149    19    18   ar
   150    19    17   ar
   151    18    16   ar
   152   229   230    1
   153    80    78   ar
   154   162   160    1
   155   186   184   ar
   156    26    27   ar
   157   242   244    1
   158   242   239    1
   159    32    30   ar
   160   230   231    1
   161    30    29   ar
   162    79    77   ar
   163   238   231   am
   164   238   239    1
   165    53    52    1
   166    53    54    1
   167    17    15   ar
   168   182   184   ar
   169   182   181    1
   170   179   178    1
   171    16    14   ar
   172   178   181    1
   173   178   177    1
   174   231   232    2
   175   239   240    1
   176    78    76   ar
   177   160   159    1
   178    27    29   ar
   179    15    14   ar
   180    14    13    1
   181   159   161    1
   182   159   156    1
   183    54    55    2
   184   155   156    1
   185    77    76   ar
   186    76    75    1
   187    13    10    1
   188    70    69    1
   189    68    69   ar
   190    68    66   ar
   191   240   241    2
   192   156   157    1
   193    69    67   ar
   194    66    64   ar
   195     9    10    1
   196    67    65   ar
   197    64    65   ar
   198    64    63    1
   199   157   158    2
   200    63    60    1
   201    10    11    1
   202    75    72    1
   203   175   176   ar
   204   175   173   ar
   205   251   252    1
   206   251   250    1
   207   249   250    1
   208   249   246    1
   209   176   174   ar
   210    71    72    1
   211    71    61   am
   212    11    12    2
   213   166   165    2
   214    72    73    1
   215   173   170   ar
   216    60    59    1
   217    60    61    1
   218    61    62    2
   219   245   246    1
   220   246   247    1
   221   165   164    1
   222   174   172   ar
   223    91    89   ar
   224    91    92   ar
   225    73    74    2
   226   170   172   ar
   227   170   168   ar
   228    89    87   ar
   229    92    90   ar
   230   164   167    1
   231   164   163    1
   232   247   248    2
   233   172   171   ar
   234    87    86    1
   235    87    88   ar
   236    90    88   ar
   237    86    83    1
   238   167   168    1
   239   168   169   ar
   240   171   169   ar
   241    83    82    1
   242    83    84    1
   243    84    85    2
