@<TRIPOS>MOLECULE
tmp/4mbsA06.pdb
 116 111 0 0 0
SMALL
GASTEIGER

@<TRIPOS>ATOM
      1  N        144.1310  123.5190   40.9680 N.3   192  MET192     -0.1230
      2  CA       145.3260  124.1100   41.5610 C.3   192  MET192      0.1702
      3  C        145.0790  125.5580   42.0280 C.2   192  MET192      0.2592
      4  O        145.2760  125.8540   43.2060 O.2   192  MET192     -0.2718
      5  CB       146.4960  124.0610   40.5640 C.3   192  MET192      0.0401
      6  CG       147.8540  124.1930   41.2180 C.3   192  MET192      0.0596
      7  SD       149.1600  124.6990   40.0700 S.3   192  MET192     -0.1393
      8  CE       149.1260  126.5090   40.3310 C.3   192  MET192      0.0692
      9  N        144.6100  126.4280   41.1180 N.am  193  VAL193     -0.1980
     10  CA       144.3720  127.8510   41.3540 C.3   193  VAL193      0.1595
     11  C        143.3450  128.0610   42.4900 C.2   193  VAL193      0.2287
     12  O        143.6270  128.8320   43.4070 O.2   193  VAL193     -0.2864
     13  CB       143.9640  128.5920   40.0420 C.3   193  VAL193      0.0276
     14  CG1      143.4910  130.0190   40.3200 C.3   193  VAL193      0.0022
     15  CG2      145.1180  128.6050   39.0400 C.3   193  VAL193      0.0022
     16  N        144.8560  126.1460   46.0330 N.3   196  TYR196     -0.1227
     17  CA       146.0140  126.7700   46.6750 C.3   196  TYR196      0.1736
     18  C        145.7720  128.2580   47.0230 C.2   196  TYR196      0.2596
     19  O        146.4980  128.8050   47.8630 O.2   196  TYR196     -0.2718
     20  CB       147.3000  126.5580   45.8710 C.3   196  TYR196      0.0548
     21  CG       147.7570  125.1190   45.9570 C.ar  196  TYR196     -0.0200
     22  CD1      147.5070  124.2250   44.9200 C.ar  196  TYR196     -0.0009
     23  CD2      148.3600  124.6240   47.1140 C.ar  196  TYR196     -0.0009
     24  CE1      147.8990  122.8900   45.0040 C.ar  196  TYR196      0.0417
     25  CE2      148.7380  123.2830   47.2190 C.ar  196  TYR196      0.0417
     26  CZ       148.5020  122.4200   46.1620 C.ar  196  TYR196      0.1957
     27  OH       148.8520  121.0960   46.2520 O.3   196  TYR196     -0.2866
     28  N        144.7090  128.8720   46.4690 N.am  197  SER197     -0.1952
     29  CA       144.3330  130.2360   46.8250 C.3   197  SER197      0.1924
     30  C        143.8020  130.2150   48.2550 C.2   197  SER197      0.2314
     31  O        144.2040  131.0530   49.0670 O.2   197  SER197     -0.2863
     32  CB       143.2980  130.8050   45.8520 C.3   197  SER197      0.2116
     33  OG       142.0100  130.2250   46.0080 O.3   197  SER197     -0.2180
     34  N        144.2460  127.5480   50.4720 N.3   199  ILE199     -0.1231
     35  CA       145.2990  127.0000   51.3270 C.3   199  ILE199      0.1692
     36  C        146.2450  128.1310   51.7410 C.2   199  ILE199      0.2591
     37  O        146.4280  128.3450   52.9390 O.2   199  ILE199     -0.2718
     38  CB       146.0560  125.8020   50.6830 C.3   199  ILE199      0.0266
     39  CG1      145.1410  124.5620   50.5470 C.3   199  ILE199      0.0019
     40  CG2      147.3050  125.4560   51.4900 C.3   199  ILE199      0.0020
     41  CD1      145.6780  123.4500   49.5920 C.3   199  ILE199      0.0001
     42  N        146.7980  128.8790   50.7590 N.am  200  LEU200     -0.1980
     43  CA       147.7250  129.9860   51.0220 C.3   200  LEU200      0.1596
     44  C        147.1050  131.0570   51.9150 C.2   200  LEU200      0.2287
     45  O        147.7970  131.5570   52.8010 O.2   200  LEU200     -0.2864
     46  CB       148.2140  130.6060   49.7100 C.3   200  LEU200      0.0297
     47  CG       149.3410  131.6340   49.8100 C.3   200  LEU200      0.0022
     48  CD1      150.6480  130.9940   50.2840 C.3   200  LEU200      0.0001
     49  CD2      149.5480  132.3280   48.4820 C.3   200  LEU200      0.0001
     50  N        147.1700  129.5280   55.5160 N.3   203  LEU203     -0.1245
     51  CA       148.5520  129.4370   55.9670 C.3   203  LEU203      0.1561
     52  C        149.0710  130.8180   56.4020 C.2   203  LEU203      0.2260
     53  O        149.6720  130.9420   57.4780 O.2   203  LEU203     -0.2867
     54  CB       149.4220  128.8380   54.8470 C.3   203  LEU203      0.0270
     55  CG       149.8940  127.3690   54.9840 C.3   203  LEU203      0.0019
     56  CD1      148.7800  126.4410   55.3520 C.3   203  LEU203      0.0001
     57  CD2      150.4920  126.8600   53.6720 C.3   203  LEU203      0.0001
     58  N        156.6900  126.9510   60.2850 N.3   259  GLU259     -0.1245
     59  CA       155.4850  126.1260   60.3580 C.3   259  GLU259      0.1567
     60  C        155.6280  124.9510   61.3280 C.2   259  GLU259      0.2260
     61  O        156.5280  124.1230   61.1860 O.2   259  GLU259     -0.2867
     62  CB       155.1050  125.6290   58.9580 C.3   259  GLU259      0.0388
     63  CG       153.6420  125.2640   58.8100 C.3   259  GLU259      0.1160
     64  CD       152.6500  126.2640   59.3770 C.2   259  GLU259      0.3649
     65  OE1      151.9960  125.9260   60.3930 O.co2 259  GLU259     -0.2457
     66  OE2      152.5270  127.3780   58.8110 O.co2 259  GLU259     -0.2457
     67  N        149.8750  121.6140   57.8820 N.3   264  HIS264     -0.1226
     68  CA       150.3290  122.7700   57.1010 C.3   264  HIS264      0.1752
     69  C        151.6440  122.4450   56.3970 C.2   264  HIS264      0.2595
     70  O        151.8160  122.8160   55.2410 O.2   264  HIS264     -0.2718
     71  CB       150.4970  124.0010   57.9930 C.3   264  HIS264      0.0759
     72  CG       149.2210  124.6540   58.4230 C.ar  264  HIS264      0.0818
     73  ND1      149.2270  125.8770   59.0660 N.ar  264  HIS264     -0.2268
     74  CD2      147.9380  124.2570   58.2590 C.ar  264  HIS264      0.1154
     75  CE1      147.9590  126.1740   59.2920 C.ar  264  HIS264      0.1986
     76  NE2      147.1470  125.2250   58.8340 N.ar  264  HIS264     -0.2212
     77  N        152.5650  121.7340   57.0830 N.am  265  ARG265     -0.1980
     78  CA       153.8600  121.3210   56.5260 C.3   265  ARG265      0.1597
     79  C        153.6720  120.3410   55.3420 C.2   265  ARG265      0.2287
     80  O        154.4380  120.4050   54.3740 O.2   265  ARG265     -0.2864
     81  CB       154.7520  120.6940   57.6150 C.3   265  ARG265      0.0334
     82  CG       155.1900  121.6920   58.6820 C.3   265  ARG265      0.0492
     83  CD       156.2210  121.1430   59.6620 C.3   265  ARG265      0.2205
     84  NE       157.5220  120.9420   59.0270 N.pl3 265  ARG265     -0.0865
     85  CZ       158.4260  121.8990   58.8250 C.cat 265  ARG265      0.5346
     86  NH1      158.1870  123.1440   59.2190 N.pl3 265  ARG265      0.1354
     87  NH2      159.5720  121.6190   58.2200 N.pl3 265  ARG265      0.1354
     88  N        151.5800  120.3710   53.0040 N.3   267  VAL267     -0.1231
     89  CA       151.2140  121.1090   51.7930 C.3   267  VAL267      0.1692
     90  C        152.4010  121.1430   50.8010 C.2   267  VAL267      0.2591
     91  O        152.1580  121.1330   49.5950 O.2   267  VAL267     -0.2718
     92  CB       150.6990  122.5450   52.1150 C.3   267  VAL267      0.0266
     93  CG1      150.4060  123.3410   50.8400 C.3   267  VAL267      0.0020
     94  CG2      149.4630  122.5010   53.0100 C.3   267  VAL267      0.0020
     95  N        153.6600  121.1850   51.2970 N.am  268  ARG268     -0.1980
     96  CA       154.8470  121.2790   50.4410 C.3   268  ARG268      0.1597
     97  C        154.9940  120.0880   49.4840 C.2   268  ARG268      0.2287
     98  O        155.3150  120.2980   48.3210 O.2   268  ARG268     -0.2864
     99  CB       156.1300  121.4300   51.2760 C.3   268  ARG268      0.0334
    100  CG       157.3510  121.9140   50.4750 C.3   268  ARG268      0.0492
    101  CD       158.5710  122.0870   51.3650 C.3   268  ARG268      0.2205
    102  NE       159.8230  121.8820   50.6330 N.pl3 268  ARG268     -0.0865
    103  CZ       160.9600  121.4630   51.1860 C.cat 268  ARG268      0.5346
    104  NH1      161.0170  121.1940   52.4860 N.pl3 268  ARG268      0.1354
    105  NH2      162.0460  121.2990   50.4410 N.pl3 268  ARG268      0.1354
    106  N        151.9420  119.9920   46.8030 N.3   271  PHE271     -0.1241
    107  CA       152.1240  121.0980   45.8440 C.3   271  PHE271      0.1605
    108  C        153.2720  120.7810   44.8500 C.2   271  PHE271      0.2264
    109  O        153.1190  121.0430   43.6560 O.2   271  PHE271     -0.2867
    110  CB       152.3800  122.4370   46.5720 C.3   271  PHE271      0.0534
    111  CG       152.5480  123.6260   45.6540 C.ar  271  PHE271     -0.0203
    112  CD1      151.4520  124.1790   44.9930 C.ar  271  PHE271     -0.0042
    113  CD2      153.8040  124.1870   45.4370 C.ar  271  PHE271     -0.0042
    114  CE1      151.6140  125.2560   44.1050 C.ar  271  PHE271     -0.0003
    115  CE2      153.9660  125.2670   44.5530 C.ar  271  PHE271     -0.0003
    116  CZ       152.8680  125.8020   43.9010 C.ar  271  PHE271     -0.0000
@<TRIPOS>BOND
     1    15    13    1
     2    13    14    1
     3    13    10    1
     4     7     8    1
     5     7     6    1
     6     5     6    1
     7     5     2    1
     8     1     2    1
     9     9    10    1
    10     9     3   am
    11    10    11    1
    12     2     3    1
    13     3     4    2
    14    11    12    2
    15   109   108    2
    16   116   114   ar
    17   116   115   ar
    18   114   112   ar
    19   115   113   ar
    20   108   107    1
    21    22    24   ar
    22    22    21   ar
    23   112   111   ar
    24    24    26   ar
    25   113   111   ar
    26   111   110    1
    27   107   110    1
    28   107   106    1
    29    32    33    1
    30    32    29    1
    31    20    21    1
    32    20    17    1
    33    21    23   ar
    34    16    17    1
    35    26    27    1
    36    26    25   ar
    37    28    29    1
    38    28    18   am
    39    17    18    1
    40    29    30    1
    41    18    19    2
    42    23    25   ar
    43    30    31    2
    44    98    97    2
    45    49    47    1
    46    97    96    1
    47    41    39    1
    48    91    90    2
    49    46    47    1
    50    46    43    1
    51    47    48    1
    52   105   103    1
    53    96    99    1
    54    96    95    1
    55    34    35    1
    56   100    99    1
    57   100   101    1
    58    39    38    1
    59   102   103    2
    60   102   101    1
    61    38    35    1
    62    38    40    1
    63    42    43    1
    64    42    36   am
    65    90    95   am
    66    90    89    1
    67    93    92    1
    68    43    44    1
    69   103   104    1
    70    35    36    1
    71    36    37    2
    72    89    92    1
    73    89    88    1
    74    44    45    2
    75    92    94    1
    76    57    55    1
    77    80    79    2
    78    54    55    1
    79    54    51    1
    80    55    56    1
    81    70    69    2
    82    79    78    1
    83    50    51    1
    84    51    52    1
    85    69    77   am
    86    69    68    1
    87    52    53    2
    88    78    77    1
    89    78    81    1
    90    68    67    1
    91    68    71    1
    92    81    82    1
    93    71    72    1
    94    87    85    1
    95    74    72   ar
    96    74    76   ar
    97    72    73   ar
    98    82    83    1
    99    63    62    1
   100    63    64    1
   101    66    64   ar
   102    85    84    2
   103    85    86    1
   104    76    75   ar
   105    62    59    1
   106    84    83    1
   107    73    75   ar
   108    64    65   ar
   109    58    59    1
   110    59    60    1
   111    61    60    2
