@<TRIPOS>MOLECULE
tmp/4mbsA04.pdb
 137 128 0 0 0
SMALL
GASTEIGER

@<TRIPOS>ATOM
      1  N        148.9810  105.6570   47.5490 N.3    52  LEU52      -0.1231
      2  CA       149.0840  104.2610   47.1270 C.3    52  LEU52       0.1693
      3  C        148.4960  104.0890   45.7240 C.2    52  LEU52       0.2592
      4  O        149.1280  103.4430   44.8830 O.2    52  LEU52      -0.2718
      5  CB       148.3770  103.3210   48.1460 C.3    52  LEU52       0.0284
      6  CG       148.1140  101.8690   47.6930 C.3    52  LEU52       0.0019
      7  CD1      149.4170  101.0750   47.6000 C.3    52  LEU52       0.0001
      8  CD2      147.1330  101.1810   48.5970 C.3    52  LEU52       0.0001
      9  N        147.3030  104.6790   45.4790 N.am   53  ASN53      -0.1974
     10  CA       146.6140  104.6190   44.1890 C.3    53  ASN53       0.1688
     11  C        147.3770  105.3830   43.1080 C.2    53  ASN53       0.2292
     12  O        147.3690  104.9570   41.9460 O.2    53  ASN53      -0.2864
     13  CB       145.1970  105.1250   44.3050 C.3    53  ASN53       0.1181
     14  CG       144.2680  104.0840   44.8700 C.2    53  ASN53       0.2629
     15  OD1      143.7950  103.1990   44.1670 O.2    53  ASN53      -0.2716
     16  ND2      144.0250  104.1240   46.1680 N.am   53  ASN53      -0.0877
     17  N        150.1110  103.0030   42.0790 N.3    56  ILE56      -0.1245
     18  CA       149.5270  101.9260   41.2680 C.3    56  ILE56       0.1561
     19  C        149.3180  102.4130   39.8110 C.2    56  ILE56       0.2260
     20  O        149.7250  101.6930   38.9050 O.2    56  ILE56      -0.2867
     21  CB       148.2370  101.3380   41.8970 C.3    56  ILE56       0.0252
     22  CG1      148.5690  100.5860   43.1970 C.3    56  ILE56       0.0019
     23  CG2      147.5060  100.4080   40.9170 C.3    56  ILE56       0.0019
     24  CD1      147.3820  100.4020   44.1620 C.3    56  ILE56       0.0001
     25  N        150.8660  100.8040   36.3410 N.3    60  PHE60      -0.1241
     26  CA       150.0330  100.4420   35.1840 C.3    60  PHE60       0.1605
     27  C        150.6320  101.0060   33.9220 C.2    60  PHE60       0.2264
     28  O        150.7820  100.2890   32.9410 O.2    60  PHE60      -0.2867
     29  CB       148.5990  100.9800   35.3490 C.3    60  PHE60       0.0534
     30  CG       147.6210  100.1340   36.1310 C.ar   60  PHE60      -0.0203
     31  CD1      148.0650   99.1950   37.0590 C.ar   60  PHE60      -0.0042
     32  CD2      146.2540  100.3000   35.9660 C.ar   60  PHE60      -0.0042
     33  CE1      147.1590   98.4190   37.7830 C.ar   60  PHE60      -0.0003
     34  CE2      145.3470   99.5270   36.6950 C.ar   60  PHE60      -0.0003
     35  CZ       145.8050   98.5920   37.6010 C.ar   60  PHE60      -0.0000
     36  N        146.4970   91.4590   18.6740 N.3    80  ASN80      -0.1225
     37  CA       145.4310   92.4540   18.7880 C.3    80  ASN80       0.1785
     38  C        144.9360   92.7440   20.2180 C.2    80  ASN80       0.2597
     39  O        144.7840   93.9250   20.5680 O.2    80  ASN80      -0.2718
     40  CB       144.2460   92.0730   17.9400 C.3    80  ASN80       0.1169
     41  CG       143.2750   93.2090   17.8040 C.2    80  ASN80       0.2627
     42  OD1      143.6590   94.3330   17.4580 O.2    80  ASN80      -0.2716
     43  ND2      142.0160   92.9600   18.1440 N.am   80  ASN80      -0.0877
     44  N        144.6150   91.6910   21.0050 N.am   81  THR81      -0.1953
     45  CA       144.0840   91.8440   22.3690 C.3    81  THR81       0.1897
     46  C        145.0810   92.6340   23.2090 C.2    81  THR81       0.2313
     47  O        144.6950   93.5890   23.8790 O.2    81  THR81      -0.2863
     48  CB       143.7330   90.4750   22.9990 C.3    81  THR81       0.1794
     49  OG1      142.8830   89.7390   22.1080 O.3    81  THR81      -0.2208
     50  CG2      143.0640   90.6160   24.3680 C.3    81  THR81       0.0378
     51  N        145.1500   96.4380   22.4340 N.3    84  GLN84      -0.1231
     52  CA       144.0350   97.1620   23.0410 C.3    84  GLN84       0.1698
     53  C        144.1920   97.2370   24.5620 C.2    84  GLN84       0.2592
     54  O        143.8480   98.2560   25.1650 O.2    84  GLN84      -0.2718
     55  CB       142.6880   96.5240   22.6630 C.3    84  GLN84       0.0381
     56  CG       142.4050   96.5710   21.1670 C.3    84  GLN84       0.0905
     57  CD       140.9920   96.1820   20.8400 C.2    84  GLN84       0.2608
     58  OE1      140.1370   97.0330   20.6170 O.2    84  GLN84      -0.2717
     59  NE2      140.7450   94.8810   20.7390 N.am   84  GLN84      -0.0878
     60  N        144.7180   96.1670   25.1750 N.am   85  LEU85      -0.1980
     61  CA       144.9380   96.0670   26.6160 C.3    85  LEU85       0.1596
     62  C        145.9710   97.0880   27.0760 C.2    85  LEU85       0.2287
     63  O        145.7230   97.7960   28.0470 O.2    85  LEU85      -0.2864
     64  CB       145.4050   94.6410   26.9580 C.3    85  LEU85       0.0297
     65  CG       145.4480   94.2630   28.4360 C.3    85  LEU85       0.0022
     66  CD1      144.6770   92.9840   28.6780 C.3    85  LEU85       0.0001
     67  CD2      146.8830   94.1070   28.9250 C.3    85  LEU85       0.0001
     68  N        144.9260  100.5810   26.5650 N.3    88  GLY88      -0.1210
     69  CA       143.9910  100.7250   27.6750 C.3    88  GLY88       0.1956
     70  C        144.6920  101.0950   28.9710 C.2    88  GLY88       0.2611
     71  O        144.3650  102.1230   29.5550 O.2    88  GLY88      -0.2717
     72  N        145.7150  100.3170   29.3880 N.am   89  LEU89      -0.1979
     73  CA       146.4940  100.6030   30.6040 C.3    89  LEU89       0.1596
     74  C        147.2220  101.9630   30.5370 C.2    89  LEU89       0.2287
     75  O        147.4230  102.5870   31.5750 O.2    89  LEU89      -0.2864
     76  CB       147.5240   99.4970   30.8980 C.3    89  LEU89       0.0297
     77  CG       146.9810   98.1120   31.2330 C.3    89  LEU89       0.0022
     78  CD1      148.0830   97.0870   31.1910 C.3    89  LEU89       0.0001
     79  CD2      146.3070   98.0830   32.6000 C.3    89  LEU89       0.0001
     80  N        144.2910  104.7210   30.9710 N.3    92  ILE92      -0.1245
     81  CA       143.7650  104.5330   32.3400 C.3    92  ILE92       0.1561
     82  C        144.8110  105.0210   33.3370 C.2    92  ILE92       0.2260
     83  O        144.4770  105.8260   34.2070 O.2    92  ILE92      -0.2867
     84  CB       143.3170  103.0630   32.6130 C.3    92  ILE92       0.0252
     85  CG1      142.0980  102.6970   31.7390 C.3    92  ILE92       0.0019
     86  CG2      143.0170  102.8460   34.1050 C.3    92  ILE92       0.0019
     87  CD1      141.8710  101.2420   31.5530 C.3    92  ILE92       0.0001
     88  N        138.4110  106.2350   45.8020 N.3   131  SER131     -0.1202
     89  CA       139.4320  105.6120   44.9350 C.3   131  SER131      0.2020
     90  C        138.7910  104.6950   43.8940 C.2   131  SER131      0.2618
     91  O        139.1840  104.7360   42.7330 O.2   131  SER131     -0.2717
     92  CB       140.4430  104.8270   45.7590 C.3   131  SER131      0.2103
     93  OG       141.2670  105.7490   46.4460 O.3   131  SER131     -0.2182
     94  N        137.7790  103.9110   44.3060 N.am  132  VAL132     -0.1979
     95  CA       137.0080  102.9980   43.4660 C.3   132  VAL132      0.1595
     96  C        136.3050  103.7920   42.3530 C.2   132  VAL132      0.2287
     97  O        136.5050  103.4610   41.1810 O.2   132  VAL132     -0.2864
     98  CB       136.0110  102.1570   44.3050 C.3   132  VAL132      0.0276
     99  CG1      135.0010  101.4290   43.4200 C.3   132  VAL132      0.0022
    100  CG2      136.7550  101.1730   45.2080 C.3   132  VAL132      0.0022
    101  N        138.8110  105.2160   39.7100 N.3   135  TRP135     -0.1241
    102  CA       139.2740  104.1930   38.7700 C.3   135  TRP135      0.1605
    103  C        138.2230  103.8970   37.7030 C.2   135  TRP135      0.2264
    104  O        138.5790  103.7540   36.5230 O.2   135  TRP135     -0.2867
    105  CB       139.6580  102.9040   39.4990 C.3   135  TRP135      0.0550
    106  CG       140.9990  102.9690   40.1610 C.ar  135  TRP135      0.0003
    107  CD1      141.2460  103.0500   41.4980 C.ar  135  TRP135      0.0946
    108  CD2      142.2770  102.9930   39.5140 C.ar  135  TRP135      0.0152
    109  NE1      142.5970  103.1200   41.7260 N.ar  135  TRP135     -0.2442
    110  CE2      143.2560  103.0810   40.5280 C.ar  135  TRP135      0.0810
    111  CE3      142.6920  102.9350   38.1750 C.ar  135  TRP135      0.0012
    112  CZ2      144.6210  103.0810   40.2510 C.ar  135  TRP135      0.0191
    113  CZ3      144.0490  102.9390   37.8990 C.ar  135  TRP135      0.0001
    114  CH2      144.9970  103.0030   38.9310 C.ar  135  TRP135      0.0015
    115  N        138.5970  104.4860   33.6110 N.3   139  VAL139     -0.1245
    116  CA       138.3320  103.3910   32.6810 C.3   139  VAL139      0.1561
    117  C        137.3690  103.9110   31.5790 C.2   139  VAL139      0.2260
    118  O        137.6740  103.7540   30.3940 O.2   139  VAL139     -0.2867
    119  CB       137.7770  102.1400   33.4330 C.3   139  VAL139      0.0252
    120  CG1      137.1390  101.1370   32.4800 C.3   139  VAL139      0.0019
    121  CG2      138.8650  101.4680   34.2600 C.3   139  VAL139      0.0019
    122  N        137.8560  104.5560   27.3130 N.3   143  LEU143     -0.1245
    123  CA       137.0820  103.6270   26.4820 C.3   143  LEU143      0.1561
    124  C        137.0550  103.9420   24.9520 C.2   143  LEU143      0.2260
    125  O        137.4150  103.0320   24.1890 O.2   143  LEU143     -0.2867
    126  CB       135.6530  103.5070   27.0200 C.3   143  LEU143      0.0270
    127  CG       135.0480  102.1080   27.0220 C.3   143  LEU143      0.0019
    128  CD1      135.9480  101.0990   27.6980 C.3   143  LEU143      0.0001
    129  CD2      133.7370  102.1100   27.7240 C.3   143  LEU143      0.0001
    130  N        140.4660  102.9040   23.3750 N.3   146  ILE146     -0.1245
    131  CA       140.7130  101.4490   23.3660 C.3   146  ILE146      0.1561
    132  C        139.9940  100.8050   22.1640 C.2   146  ILE146      0.2260
    133  O        140.5360   99.8960   21.5270 O.2   146  ILE146     -0.2867
    134  CB       140.2530  100.7980   24.7090 C.3   146  ILE146      0.0252
    135  CG1      140.9840  101.4290   25.9160 C.3   146  ILE146      0.0019
    136  CG2      140.3870   99.2610   24.7080 C.3   146  ILE146      0.0019
    137  CD1      140.2710  101.3220   27.2550 C.3   146  ILE146      0.0001
@<TRIPOS>BOND
     1    42    41    2
     2    41    40    1
     3    41    43   am
     4    40    37    1
     5    36    37    1
     6    37    38    1
     7    38    39    2
     8    38    44   am
     9    58    57    2
    10    59    57   am
    11    57    56    1
    12    44    45    1
    13    56    55    1
    14   133   132    2
    15    49    48    1
    16   132   131    1
    17    45    48    1
    18    45    46    1
    19    51    52    1
    20    55    52    1
    21    48    50    1
    22    52    53    1
    23    46    47    2
    24   131   130    1
    25   131   134    1
    26   125   124    2
    27    53    54    2
    28    53    60   am
    29   136   134    1
    30   134   135    1
    31   124   123    1
    32    60    61    1
    33   135   137    1
    34   123   126    1
    35   123   122    1
    36    68    69    1
    37    61    64    1
    38    61    62    1
    39    64    65    1
    40   126   127    1
    41   127   128    1
    42   127   129    1
    43    62    63    2
    44    69    70    1
    45    65    66    1
    46    65    67    1
    47    70    72   am
    48    70    71    2
    49    72    73    1
    50   118   117    2
    51    74    73    1
    52    74    75    2
    53    73    76    1
    54    76    77    1
    55    80    81    1
    56    78    77    1
    57    77    79    1
    58    87    85    1
    59   117   116    1
    60    85    84    1
    61    81    84    1
    62    81    82    1
    63   120   119    1
    64    84    86    1
    65   116   119    1
    66   116   115    1
    67    28    27    2
    68    82    83    2
    69   119   121    1
    70    27    26    1
    71    26    29    1
    72    26    25    1
    73    29    30    1
    74    32    30   ar
    75    32    34   ar
    76    30    31   ar
    77   104   103    2
    78    34    35   ar
    79    31    33   ar
    80    35    33   ar
    81   103   102    1
    82   113   111   ar
    83   113   114   ar
    84   111   108   ar
    85   102   105    1
    86   102   101    1
    87    20    19    2
    88   114   112   ar
    89   105   106    1
    90   108   106   ar
    91   108   110   ar
    92    19    18    1
    93   106   107   ar
    94   112   110   ar
    95   110   109   ar
    96    23    21    1
    97    97    96    2
    98    18    21    1
    99    18    17    1
   100   107   109   ar
   101    21    22    1
   102    12    11    2
   103    96    95    1
   104    91    90    2
   105    11    10    1
   106    22    24    1
   107    99    98    1
   108    95    98    1
   109    95    94    1
   110    90    94   am
   111    90    89    1
   112    15    14    2
   113    10    13    1
   114    10     9    1
   115    98   100    1
   116    13    14    1
   117    14    16   am
   118     4     3    2
   119    89    92    1
   120    89    88    1
   121     9     3   am
   122     3     2    1
   123    92    93    1
   124     2     1    1
   125     2     5    1
   126     7     6    1
   127     6     5    1
   128     6     8    1
