@<TRIPOS>MOLECULE
tmp/4mbyJ01.pdb
 93 88 0 0 0
SMALL
GASTEIGER

@<TRIPOS>ATOM
      1  N         35.1140   12.1270   -0.4880 N.3    38  LEU38      -0.1245
      2  CA        34.2980   11.3910    0.4770 C.3    38  LEU38       0.1561
      3  C         35.0930   10.9070    1.6800 C.2    38  LEU38       0.2260
      4  O         34.7480    9.8980    2.3020 O.2    38  LEU38      -0.2867
      5  CB        33.5870   10.2110   -0.1970 C.3    38  LEU38       0.0270
      6  CG        32.4830   10.5580   -1.1990 C.3    38  LEU38       0.0019
      7  CD1       31.8490    9.2710   -1.7080 C.3    38  LEU38       0.0001
      8  CD2       31.4320   11.4760   -0.5840 C.3    38  LEU38       0.0001
      9  N         33.9700    8.5060    4.6930 N.3    41  TYR41      -0.1241
     10  CA        32.9730    7.5750    4.1700 C.3    41  TYR41       0.1605
     11  C         33.6550    6.4920    3.3530 C.2    41  TYR41       0.2264
     12  O         34.7890    6.6750    2.8820 O.2    41  TYR41      -0.2867
     13  CB        31.9980    8.2760    3.2300 C.3    41  TYR41       0.0534
     14  CG        31.1720    9.3990    3.7990 C.ar   41  TYR41      -0.0201
     15  CD1       29.8500    9.1810    4.1760 C.ar   41  TYR41      -0.0009
     16  CD2       31.6850   10.6910    3.8850 C.ar   41  TYR41      -0.0009
     17  CE1       29.0630   10.2160    4.6520 C.ar   41  TYR41       0.0417
     18  CE2       30.9130   11.7430    4.3690 C.ar   41  TYR41       0.0417
     19  CZ        29.6010   11.4970    4.7430 C.ar   41  TYR41       0.1957
     20  OH        28.8330   12.5430    5.1980 O.3    41  TYR41      -0.2866
     21  N         30.8670    3.7520   -2.7580 N.3    44  SER44      -0.1217
     22  CA        29.5600    3.0890   -2.8650 C.3    44  SER44       0.1889
     23  C         29.6860    1.5830   -2.7130 C.2    44  SER44       0.2288
     24  O         30.5000    0.9500   -3.3830 O.2    44  SER44      -0.2866
     25  CB        28.8880    3.4260   -4.2000 C.3    44  SER44       0.2089
     26  OG        28.5780    4.8080   -4.2390 O.3    44  SER44      -0.2183
     27  N         21.6260   17.5680    3.6750 N.3   106  GLN106     -0.1231
     28  CA        22.5870   16.8730    2.8280 C.3   106  GLN106      0.1698
     29  C         21.8430   16.0730    1.7630 C.2   106  GLN106      0.2593
     30  O         20.8140   15.4430    2.0470 O.2   106  GLN106     -0.2718
     31  CB        23.4580   15.9520    3.6710 C.3   106  GLN106      0.0381
     32  CG        24.5190   15.2090    2.8720 C.3   106  GLN106      0.0905
     33  CD        25.3190   14.2410    3.7190 C.2   106  GLN106      0.2608
     34  OE1       24.8850   13.8150    4.8090 O.2   106  GLN106     -0.2717
     35  NE2       26.5050   13.8800    3.2310 N.am  106  GLN106     -0.0878
     36  N         22.3520   16.1130    0.5340 N.am  107  GLY107     -0.1942
     37  CA        21.6950   15.4430   -0.5820 C.3   107  GLY107      0.2014
     38  C         21.6050   13.9470   -0.3460 C.2   107  GLY107      0.2639
     39  O         22.5490   13.3230    0.1470 O.2   107  GLY107     -0.2714
     40  N         20.4640   13.3740   -0.7050 N.am  108  GLY108     -0.1954
     41  CA        20.2730   11.9410   -0.5890 C.3   108  GLY108      0.1869
     42  C         18.8640   11.5200   -0.9510 C.2   108  GLY108      0.2309
     43  O         18.1960   12.1380   -1.7950 O.2   108  GLY108     -0.2863
     44  N         25.0420    6.2470    4.8000 N.3   247  HIS247     -0.1241
     45  CA        24.3600    7.3080    4.0770 C.3   247  HIS247      0.1621
     46  C         23.8420    6.7760    2.7820 C.2   247  HIS247      0.2264
     47  O         24.5850    6.1610    2.0110 O.2   247  HIS247     -0.2867
     48  CB        25.2640    8.5050    3.7980 C.3   247  HIS247      0.0745
     49  CG        24.5380    9.6400    3.1220 C.ar  247  HIS247      0.0817
     50  ND1       24.5550    9.8330    1.7820 N.ar  247  HIS247     -0.2268
     51  CD2       23.7040   10.6220    3.6500 C.ar  247  HIS247      0.1154
     52  CE1       23.7930   10.9010    1.4790 C.ar  247  HIS247      0.1986
     53  NE2       23.2710   11.3810    2.6190 N.ar  247  HIS247     -0.2212
     54  N         22.4280    7.6270   -0.8850 N.3   249  ASN249     -0.1225
     55  CA        22.4170    8.6770   -1.8960 C.3   249  ASN249      0.1785
     56  C         21.1120    8.6570   -2.6740 C.2   249  ASN249      0.2597
     57  O         20.3210    7.7160   -2.5590 O.2   249  ASN249     -0.2718
     58  CB        23.6210    8.5220   -2.8210 C.3   249  ASN249      0.1169
     59  CG        24.9410    8.5810   -2.0660 C.2   249  ASN249      0.2627
     60  OD1       25.1580    9.4670   -1.2220 O.2   249  ASN249     -0.2716
     61  ND2       25.8210    7.6240   -2.3400 N.am  249  ASN249     -0.0877
     62  N         20.8820    9.6900   -3.4740 N.am  250  TYR250     -0.1962
     63  CA        19.6360    9.7760   -4.2250 C.3   250  TYR250      0.1771
     64  C         19.3800    8.5660   -5.1460 C.2   250  TYR250      0.2620
     65  O         18.2500    8.0810   -5.2400 O.2   250  TYR250     -0.2715
     66  CB        19.5600   11.0860   -5.0090 C.3   250  TYR250      0.0574
     67  CG        18.2470   11.2600   -5.7270 C.ar  250  TYR250     -0.0198
     68  CD1       17.0900   11.5860   -5.0280 C.ar  250  TYR250     -0.0009
     69  CD2       18.1570   11.0800   -7.1080 C.ar  250  TYR250     -0.0009
     70  CE1       15.8810   11.7370   -5.6780 C.ar  250  TYR250      0.0417
     71  CE2       16.9490   11.2300   -7.7730 C.ar  250  TYR250      0.0417
     72  CZ        15.8150   11.5560   -7.0530 C.ar  250  TYR250      0.1957
     73  OH        14.6200   11.7130   -7.7170 O.3   250  TYR250     -0.2866
     74  N         20.4290    8.0770   -5.8100 N.am  251  SER251     -0.1950
     75  CA        20.3130    6.9160   -6.6950 C.3   251  SER251      0.1924
     76  C         20.2050    5.5910   -5.9330 C.2   251  SER251      0.2314
     77  O         20.1170    4.5160   -6.5570 O.2   251  SER251     -0.2863
     78  CB        21.5100    6.8600   -7.6490 C.3   251  SER251      0.2116
     79  OG        22.6980    6.6500   -6.9040 O.3   251  SER251     -0.2180
     80  N         22.5430    4.3020   -4.0530 N.3   253  THR253     -0.1218
     81  CA        23.8650    3.8210   -3.6410 C.3   253  THR253      0.1862
     82  C         24.0390    4.1940   -2.1700 C.2   253  THR253      0.2287
     83  O         23.4350    5.1650   -1.6830 O.2   253  THR253     -0.2866
     84  CB        25.0240    4.3950   -4.4760 C.3   253  THR253      0.1770
     85  OG1       24.9610    5.8240   -4.4860 O.3   253  THR253     -0.2211
     86  CG2       24.9710    3.8780   -5.9220 C.3   253  THR253      0.0375
     87  N         26.8250    4.3940    1.3300 N.3   255  VAL255     -0.1245
     88  CA        28.2020    4.4750    1.8080 C.3   255  VAL255      0.1561
     89  C         28.2280    4.4260    3.3260 C.2   255  VAL255      0.2260
     90  O         27.3890    5.0280    3.9970 O.2   255  VAL255     -0.2867
     91  CB        28.9450    5.7420    1.3070 C.3   255  VAL255      0.0252
     92  CG1       29.1290    5.6960   -0.2120 C.3   255  VAL255      0.0019
     93  CG2       28.2200    7.0310    1.6930 C.3   255  VAL255      0.0019
@<TRIPOS>BOND
     1    71    69   ar
     2    71    72   ar
     3    73    72    1
     4    78    79    1
     5    78    75    1
     6    69    67   ar
     7    72    70   ar
     8    75    76    1
     9    75    74    1
    10    77    76    2
    11    86    84    1
    12    74    64   am
    13    67    68   ar
    14    67    66    1
    15    70    68   ar
    16    65    64    2
    17    64    63    1
    18    66    63    1
    19    85    84    1
    20    84    81    1
    21    26    25    1
    22    63    62    1
    23    25    22    1
    24    80    81    1
    25    81    82    1
    26    62    56   am
    27    24    23    2
    28    22    21    1
    29    22    23    1
    30    58    59    1
    31    58    55    1
    32    56    57    2
    33    56    55    1
    34    61    59   am
    35    82    83    2
    36    59    60    2
    37    55    54    1
    38    43    42    2
    39     7     6    1
    40     6     8    1
    41     6     5    1
    42    42    41    1
    43    40    41    1
    44    40    38   am
    45    37    38    1
    46    37    36    1
    47     1     2    1
    48    38    39    2
    49    92    91    1
    50     5     2    1
    51     2     3    1
    52    36    29   am
    53    91    93    1
    54    91    88    1
    55    87    88    1
    56    52    50   ar
    57    52    53   ar
    58     3     4    2
    59    29    30    2
    60    29    28    1
    61    50    49   ar
    62    88    89    1
    63    47    46    2
    64    53    51   ar
    65    46    45    1
    66    28    31    1
    67    28    27    1
    68    32    31    1
    69    32    33    1
    70    12    11    2
    71    49    51   ar
    72    49    48    1
    73    13    14    1
    74    13    10    1
    75    35    33   am
    76    89    90    2
    77    11    10    1
    78    33    34    2
    79    48    45    1
    80    14    16   ar
    81    14    15   ar
    82    16    18   ar
    83    45    44    1
    84    10     9    1
    85    15    17   ar
    86    18    19   ar
    87    17    19   ar
    88    19    20    1
