@<TRIPOS>MOLECULE
tmp/4mbzE01.pdb
 93 88 0 0 0
SMALL
GASTEIGER

@<TRIPOS>ATOM
      1  N         27.8180    4.9760  117.2840 N.3    38  LEU38      -0.1245
      2  CA        28.7120    4.4830  116.2520 C.3    38  LEU38       0.1561
      3  C         27.9940    3.9760  115.0100 C.2    38  LEU38       0.2260
      4  O         28.5170    3.1250  114.3120 O.2    38  LEU38      -0.2867
      5  CB        29.6230    3.3830  116.8170 C.3    38  LEU38       0.0270
      6  CG        30.6600    3.8090  117.8630 C.3    38  LEU38       0.0019
      7  CD1       31.5870    2.6300  118.1320 C.3    38  LEU38       0.0001
      8  CD2       31.4490    5.0220  117.3800 C.3    38  LEU38       0.0001
      9  N         29.5660    2.2350  111.7060 N.3    41  TYR41      -0.1241
     10  CA        30.7620    1.4940  112.1210 C.3    41  TYR41       0.1605
     11  C         30.3460    0.2080  112.8180 C.2    41  TYR41       0.2264
     12  O         29.2110    0.1010  113.3300 O.2    41  TYR41      -0.2867
     13  CB        31.5840    2.2940  113.1620 C.3    41  TYR41       0.0534
     14  CG        32.1530    3.6310  112.6860 C.ar   41  TYR41      -0.0201
     15  CD1       33.4960    3.7390  112.3030 C.ar   41  TYR41      -0.0009
     16  CD2       31.3620    4.7860  112.6710 C.ar   41  TYR41      -0.0009
     17  CE1       34.0270    4.9570  111.8850 C.ar   41  TYR41       0.0417
     18  CE2       31.8860    6.0150  112.2490 C.ar   41  TYR41       0.0417
     19  CZ        33.2350    6.0910  111.8950 C.ar   41  TYR41       0.1957
     20  OH        33.7690    7.2910  111.4870 O.3    41  TYR41      -0.2866
     21  N         33.8980   -2.4620  118.5830 N.3    44  SER44      -0.1217
     22  CA        35.2880   -2.8530  118.6300 C.3    44  SER44       0.1889
     23  C         35.4430   -4.3290  118.3380 C.2    44  SER44       0.2288
     24  O         34.7730   -5.1710  118.9450 O.2    44  SER44      -0.2866
     25  CB        35.8940   -2.5470  120.0060 C.3    44  SER44       0.2089
     26  OG        35.7370   -1.1810  120.2920 O.3    44  SER44      -0.2183
     27  N         39.7760   13.5470  113.5710 N.3   106  GLN106     -0.1231
     28  CA        38.9750   12.5840  114.3440 C.3   106  GLN106      0.1698
     29  C         39.9010   11.8480  115.3220 C.2   106  GLN106      0.2593
     30  O         40.9910   11.4020  114.9290 O.2   106  GLN106     -0.2718
     31  CB        38.3150   11.5790  113.4000 C.3   106  GLN106      0.0381
     32  CG        37.5060   10.5010  114.1250 C.3   106  GLN106      0.0905
     33  CD        36.8640    9.5040  113.1790 C.2   106  GLN106      0.2608
     34  OE1       37.3260    9.3030  112.0650 O.2   106  GLN106     -0.2717
     35  NE2       35.8000    8.8550  113.6380 N.am  106  GLN106     -0.0878
     36  N         39.4810   11.7120  116.5720 N.am  107  GLY107     -0.1942
     37  CA        40.3560   11.1140  117.6110 C.3   107  GLY107      0.2014
     38  C         40.7430    9.6740  117.2870 C.2   107  GLY107      0.2639
     39  O         39.9230    8.9020  116.7840 O.2   107  GLY107     -0.2714
     40  N         41.9880    9.3120  117.5710 N.am  108  GLY108     -0.1954
     41  CA        42.4690    7.9600  117.2830 C.3   108  GLY108      0.1869
     42  C         43.9560    7.8150  117.5450 C.2   108  GLY108      0.2309
     43  O         44.5330    8.5540  118.3410 O.2   108  GLY108     -0.2863
     44  N         38.7940    1.9880  111.3680 N.3   247  HIS247     -0.1241
     45  CA        39.2660    3.1130  112.1330 C.3   247  HIS247      0.1621
     46  C         39.9420    2.5840  113.3720 C.2   247  HIS247      0.2264
     47  O         39.4460    1.6380  114.0000 O.2   247  HIS247     -0.2867
     48  CB        38.1200    4.0480  112.4930 C.3   247  HIS247      0.0745
     49  CG        38.5610    5.1970  113.3660 C.ar  247  HIS247      0.0817
     50  ND1       38.4380    5.1770  114.7060 N.ar  247  HIS247     -0.2268
     51  CD2       39.2330    6.3670  113.0500 C.ar  247  HIS247      0.1154
     52  CE1       38.9560    6.3030  115.2170 C.ar  247  HIS247      0.1986
     53  NE2       39.4430    7.0330  114.1980 N.ar  247  HIS247     -0.2212
     54  N         41.2500    3.3490  117.1910 N.3   249  ASN249     -0.1225
     55  CA        41.1410    4.2720  118.3220 C.3   249  ASN249      0.1785
     56  C         42.4690    4.4330  119.0370 C.2   249  ASN249      0.2597
     57  O         43.4040    3.6690  118.7990 O.2   249  ASN249     -0.2718
     58  CB        40.0600    3.7920  119.2970 C.3   249  ASN249      0.1169
     59  CG        38.6990    3.7190  118.6450 C.2   249  ASN249      0.2627
     60  OD1       38.2750    4.6600  117.9720 O.2   249  ASN249     -0.2716
     61  ND2       38.0170    2.5840  118.8040 N.am  249  ASN249     -0.0877
     62  N         42.5500    5.4090  119.9340 N.am  250  TYR250     -0.1962
     63  CA        43.7720    5.6700  120.6770 C.3   250  TYR250      0.1771
     64  C         44.2840    4.4320  121.4420 C.2   250  TYR250      0.2620
     65  O         45.4820    4.1650  121.4630 O.2   250  TYR250     -0.2715
     66  CB        43.5320    6.8410  121.6250 C.3   250  TYR250      0.0574
     67  CG        44.7670    7.4240  122.2500 C.ar  250  TYR250     -0.0198
     68  CD1       45.9540    7.5430  121.5270 C.ar  250  TYR250     -0.0009
     69  CD2       44.7420    7.8910  123.5720 C.ar  250  TYR250     -0.0009
     70  CE1       47.0850    8.0960  122.0950 C.ar  250  TYR250      0.0417
     71  CE2       45.8710    8.4570  124.1550 C.ar  250  TYR250      0.0417
     72  CZ        47.0380    8.5470  123.4120 C.ar  250  TYR250      0.1957
     73  OH        48.1640    9.0980  123.9630 O.3   250  TYR250     -0.2866
     74  N         43.3640    3.6420  122.0000 N.am  251  SER251     -0.1950
     75  CA        43.7170    2.4160  122.7450 C.3   251  SER251      0.1924
     76  C         44.0780    1.2450  121.8280 C.2   251  SER251      0.2314
     77  O         44.3770    0.1530  122.3240 O.2   251  SER251     -0.2863
     78  CB        42.5450    1.9820  123.6290 C.3   251  SER251      0.2116
     79  OG        41.4930    1.5580  122.7700 O.3   251  SER251     -0.2180
     80  N         42.0290   -0.3040  119.8600 N.3   253  THR253     -0.1218
     81  CA        40.8290   -1.0260  119.4180 C.3   253  THR253      0.1862
     82  C         40.4430   -0.5090  118.0320 C.2   253  THR253      0.2287
     83  O         40.7110    0.6590  117.6940 O.2   253  THR253     -0.2866
     84  CB        39.6280   -0.8620  120.3810 C.3   253  THR253      0.1770
     85  OG1       39.2480    0.5160  120.4320 O.3   253  THR253     -0.2211
     86  CG2       39.9790   -1.3680  121.7860 C.3   253  THR253      0.0375
     87  N         37.4960   -0.5130  114.6770 N.3   255  VAL255     -0.1245
     88  CA        36.1170   -0.7030  114.2300 C.3   255  VAL255      0.1561
     89  C         36.0610   -0.6050  112.7110 C.2   255  VAL255      0.2260
     90  O         36.7790    0.2130  112.1010 O.2   255  VAL255     -0.2867
     91  CB        35.1530    0.3280  114.8660 C.3   255  VAL255      0.0252
     92  CG1       35.0290    0.1160  116.3770 C.3   255  VAL255      0.0019
     93  CG2       35.6020    1.7710  114.5920 C.3   255  VAL255      0.0019
@<TRIPOS>BOND
     1    44    45    1
     2    20    19    1
     3     9    10    1
     4    17    19   ar
     5    17    15   ar
     6    19    18   ar
     7    34    33    2
     8    90    89    2
     9    10    11    1
    10    10    13    1
    11    45    48    1
    12    45    46    1
    13    18    16   ar
    14    15    14   ar
    15    48    49    1
    16    16    14   ar
    17    14    13    1
    18    89    88    1
    19    11    12    2
    20    51    49   ar
    21    51    53   ar
    22    33    35   am
    23    33    32    1
    24    49    50   ar
    25    46    47    2
    26    31    32    1
    27    31    28    1
    28    27    28    1
    29    53    52   ar
    30    88    87    1
    31    88    91    1
    32     4     3    2
    33    28    29    1
    34    93    91    1
    35    50    52   ar
    36    91    92    1
    37    30    29    2
    38     3     2    1
    39    29    36   am
    40     2     5    1
    41     2     1    1
    42    36    37    1
    43    39    38    2
    44     5     6    1
    45    54    55    1
    46    41    42    1
    47    41    40    1
    48    38    40   am
    49    38    37    1
    50     8     6    1
    51    42    43    2
    52    83    82    2
    53     6     7    1
    54    60    59    2
    55    82    81    1
    56    55    56    1
    57    55    58    1
    58    23    22    1
    59    23    24    2
    60    21    22    1
    61    22    25    1
    62    59    61   am
    63    59    58    1
    64    57    56    2
    65    56    62   am
    66    81    80    1
    67    81    84    1
    68    62    63    1
    69    25    26    1
    70    84    85    1
    71    84    86    1
    72    63    64    1
    73    63    66    1
    74    64    65    2
    75    64    74   am
    76    68    70   ar
    77    68    67   ar
    78    66    67    1
    79    76    77    2
    80    76    75    1
    81    74    75    1
    82    70    72   ar
    83    67    69   ar
    84    75    78    1
    85    79    78    1
    86    72    73    1
    87    72    71   ar
    88    69    71   ar
