@<TRIPOS>MOLECULE
tmp/4mc3A00.pdb
 177 171 0 0 0
SMALL
GASTEIGER

@<TRIPOS>ATOM
      1  N         15.7510   44.1780    6.0080 N.3    52  SER52      -0.1217
      2  CA        15.0070   43.3970    6.9460 C.3    52  SER52       0.1889
      3  C         13.8390   42.6890    6.2550 C.2    52  SER52       0.2288
      4  O         13.6700   41.4500    6.4100 O.2    52  SER52      -0.2866
      5  CB        14.4650   44.3030    8.0540 C.3    52  SER52       0.2089
      6  OG        13.5330   43.6210    8.8250 O.3    52  SER52      -0.2183
      7  N         12.6180   38.8170    5.6910 N.3    56  VAL56      -0.1245
      8  CA        11.3320   38.3360    6.2040 C.3    56  VAL56       0.1561
      9  C         10.4910   37.6000    5.1620 C.2    56  VAL56       0.2260
     10  O          9.8650   36.5830    5.4380 O.2    56  VAL56      -0.2867
     11  CB        10.4840   39.5000    6.8360 C.3    56  VAL56       0.0252
     12  CG1        9.1330   38.9540    7.2680 C.3    56  VAL56       0.0019
     13  CG2       11.2250   40.1390    8.0030 C.3    56  VAL56       0.0019
     14  N          7.0740   47.7510    7.7320 N.3    72  ILE72      -0.1245
     15  CA         8.3200   47.8290    8.5240 C.3    72  ILE72       0.1561
     16  C          8.7850   49.2770    8.7180 C.2    72  ILE72       0.2260
     17  O          9.1550   49.6670    9.8170 O.2    72  ILE72      -0.2867
     18  CB         9.4090   46.9480    7.9100 C.3    72  ILE72       0.0252
     19  CG1        9.0180   45.4520    8.0090 C.3    72  ILE72       0.0019
     20  CG2       10.7270   47.2320    8.5840 C.3    72  ILE72       0.0019
     21  CD1       10.0280   44.5210    7.3350 C.3    72  ILE72       0.0001
     22  N          6.4990   50.9050   11.2750 N.3    75  THR75      -0.1203
     23  CA         6.7700   50.4490   12.6450 C.3    75  THR75       0.1994
     24  C          8.0850   50.9900   13.1990 C.2    75  THR75       0.2617
     25  O          8.1560   51.3120   14.3930 O.2    75  THR75      -0.2717
     26  CB         6.6040   48.9180   12.8070 C.3    75  THR75       0.1784
     27  OG1        7.5550   48.2510   12.0280 O.3    75  THR75      -0.2211
     28  CG2        5.2660   48.4910   12.3800 C.3    75  THR75       0.0376
     29  N          9.0910   51.1750   12.3220 N.am   76  PHE76      -0.1975
     30  CA        10.3070   51.8490   12.7420 C.3    76  PHE76       0.1639
     31  C         10.0220   53.2430   13.2210 C.2    76  PHE76       0.2290
     32  O         10.5360   53.6610   14.2870 O.2    76  PHE76      -0.2864
     33  CB        11.3910   51.9240   11.6480 C.3    76  PHE76       0.0560
     34  CG        12.5040   52.8780   12.0380 C.ar   76  PHE76      -0.0200
     35  CD1       12.5690   54.1630   11.5170 C.ar   76  PHE76      -0.0042
     36  CD2       13.3670   52.5420   13.0910 C.ar   76  PHE76      -0.0042
     37  CE1       13.5380   55.0480   11.9390 C.ar   76  PHE76      -0.0003
     38  CE2       14.3330   53.4360   13.5190 C.ar   76  PHE76      -0.0003
     39  CZ        14.4150   54.6910   12.9350 C.ar   76  PHE76      -0.0000
     40  N          8.2420   53.2510   16.5500 N.3    79  ASP79      -0.1239
     41  CA         9.1930   52.8870   17.6030 C.3    79  ASP79       0.1674
     42  C         10.1100   54.0320   17.9390 C.2    79  ASP79       0.2266
     43  O         10.4000   54.2610   19.1090 O.2    79  ASP79      -0.2867
     44  CB        10.0120   51.6680   17.1920 C.3    79  ASP79       0.1410
     45  CG        10.8990   51.1640   18.3090 C.2    79  ASP79       0.3668
     46  OD1       10.3860   50.4640   19.2330 O.co2  79  ASP79      -0.2456
     47  OD2       12.1090   51.4710   18.2690 O.co2  79  ASP79      -0.2456
     48  N          1.3260   43.3790   19.3250 N.3   133  PHE133     -0.1241
     49  CA         2.6470   44.0430   19.1590 C.3   133  PHE133      0.1605
     50  C          2.5850   45.4370   19.7780 C.2   133  PHE133      0.2264
     51  O          3.4280   45.7880   20.5860 O.2   133  PHE133     -0.2867
     52  CB         3.0060   44.0650   17.6630 C.3   133  PHE133      0.0534
     53  CG         4.0990   44.9810   17.3140 C.ar  133  PHE133     -0.0203
     54  CD1        5.4430   44.6250   17.4830 C.ar  133  PHE133     -0.0042
     55  CD2        3.7990   46.1970   16.7160 C.ar  133  PHE133     -0.0042
     56  CE1        6.4450   45.5240   17.1490 C.ar  133  PHE133     -0.0003
     57  CE2        4.7630   47.0630   16.3950 C.ar  133  PHE133     -0.0003
     58  CZ         6.0780   46.7710   16.6170 C.ar  133  PHE133     -0.0000
     59  N          4.2870   47.7270   24.1420 N.3   137  TYR137     -0.1241
     60  CA         4.8480   49.0030   24.5890 C.3   137  TYR137      0.1605
     61  C          4.2360   49.4340   25.9210 C.2   137  TYR137      0.2264
     62  O          4.9940   49.8350   26.8530 O.2   137  TYR137     -0.2867
     63  CB         4.6830   50.0720   23.5400 C.3   137  TYR137      0.0534
     64  CG         5.5570   49.9120   22.3090 C.ar  137  TYR137     -0.0201
     65  CD1        6.8800   50.3440   22.3150 C.ar  137  TYR137     -0.0009
     66  CD2        5.0370   49.3940   21.1100 C.ar  137  TYR137     -0.0009
     67  CE1        7.6770   50.2280   21.1840 C.ar  137  TYR137      0.0417
     68  CE2        5.8490   49.2330   19.9760 C.ar  137  TYR137      0.0417
     69  CZ         7.1600   49.6650   20.0150 C.ar  137  TYR137      0.1957
     70  OH         8.0100   49.5580   18.9100 O.3   137  TYR137     -0.2866
     71  N          7.0350   38.6160   24.4300 N.3   159  ARG159     -0.1245
     72  CA         8.1290   38.7580   23.4990 C.3   159  ARG159      0.1563
     73  C          7.7960   38.1490   22.1290 C.2   159  ARG159      0.2260
     74  O          8.2700   38.6350   21.0910 O.2   159  ARG159     -0.2867
     75  CB         9.4160   38.1340   24.0590 C.3   159  ARG159      0.0307
     76  CG        10.6310   38.4090   23.2560 C.3   159  ARG159      0.0489
     77  CD        10.9700   39.8600   23.1640 C.3   159  ARG159      0.2205
     78  NE        12.2770   40.0480   22.5670 N.pl3 159  ARG159     -0.0865
     79  CZ        12.5180   40.7610   21.4750 C.cat 159  ARG159      0.5346
     80  NH1       11.5400   41.4280   20.8350 N.pl3 159  ARG159      0.1354
     81  NH2       13.7350   40.7900   21.0220 N.pl3 159  ARG159      0.1354
     82  N          6.1150   41.1650   20.6520 N.3   162  SER162     -0.1202
     83  CA         6.9400   42.3760   20.5200 C.3   162  SER162      0.2020
     84  C          8.0050   42.2620   19.4370 C.2   162  SER162      0.2619
     85  O          8.4040   43.2770   18.8650 O.2   162  SER162     -0.2717
     86  CB         7.5480   42.8280   21.8430 C.3   162  SER162      0.2103
     87  OG         8.6370   41.9700   22.2310 O.3   162  SER162     -0.2182
     88  N          8.4760   41.0460   19.1250 N.am  163  VAL163     -0.1965
     89  CA         9.4210   40.8480   18.0280 C.3   163  VAL163      0.1727
     90  C          8.7500   41.0900   16.6740 C.2   163  VAL163      0.2617
     91  O          9.4350   41.1830   15.6740 O.2   163  VAL163     -0.2715
     92  CB        10.0750   39.4340   18.1610 C.3   163  VAL163      0.0290
     93  CG1        9.1180   38.3120   17.8170 C.3   163  VAL163      0.0023
     94  CG2       11.3480   39.3430   17.3530 C.3   163  VAL163      0.0023
     95  N          7.4300   41.0850   16.6430 N.am  164  GLY164     -0.1940
     96  CA         6.6850   41.4230   15.4200 C.3   164  GLY164      0.2014
     97  C          6.4410   40.3260   14.4330 C.2   164  GLY164      0.2638
     98  O          5.6030   40.4550   13.5190 O.2   164  GLY164     -0.2714
     99  N          7.1500   39.2190   14.6230 N.am  165  MET165     -0.1976
    100  CA         7.0440   38.0620   13.7420 C.3   165  MET165      0.1605
    101  C          5.6080   37.7170   13.3530 C.2   165  MET165      0.2287
    102  O          5.2940   37.6120   12.1680 O.2   165  MET165     -0.2864
    103  CB         7.7160   36.8440   14.3820 C.3   165  MET165      0.0413
    104  CG         9.1820   36.6800   14.0140 C.3   165  MET165      0.0598
    105  SD         9.5390   37.2060   12.3270 S.3   165  MET165     -0.1393
    106  CE        10.6060   38.6130   12.6300 C.3   165  MET165      0.0692
    107  N          2.6610   39.2190   13.0590 N.3   167  TRP167     -0.1227
    108  CA         2.0350   40.0280   12.0100 C.3   167  TRP167      0.1737
    109  C          2.8380   40.0970   10.7380 C.2   167  TRP167      0.2595
    110  O          2.2990   40.1540    9.6190 O.2   167  TRP167     -0.2718
    111  CB         1.6240   41.4250   12.4930 C.3   167  TRP167      0.0564
    112  CG         2.6820   42.3420   12.9070 C.ar  167  TRP167      0.0003
    113  CD1        3.0680   42.5830   14.1710 C.ar  167  TRP167      0.0946
    114  CD2        3.4680   43.1760   12.0720 C.ar  167  TRP167      0.0152
    115  NE1        4.0730   43.5160   14.1860 N.ar  167  TRP167     -0.2442
    116  CE2        4.3540   43.8810   12.8930 C.ar  167  TRP167      0.0810
    117  CE3        3.5380   43.3730   10.6640 C.ar  167  TRP167      0.0012
    118  CZ2        5.2700   44.8100   12.3790 C.ar  167  TRP167      0.0191
    119  CZ3        4.4710   44.3120   10.1820 C.ar  167  TRP167      0.0001
    120  CH2        5.3160   44.9860   11.0250 C.ar  167  TRP167      0.0015
    121  N          4.1800   40.0300   10.8590 N.am  168  LEU168     -0.1980
    122  CA         5.0090   39.9550    9.6730 C.3   168  LEU168      0.1596
    123  C          4.6860   38.7690    8.8270 C.2   168  LEU168      0.2287
    124  O          4.5440   38.8020    7.5940 O.2   168  LEU168     -0.2864
    125  CB         6.5230   40.0130   10.0260 C.3   168  LEU168      0.0297
    126  CG         6.9470   41.3520   10.5760 C.3   168  LEU168      0.0022
    127  CD1        8.2960   41.2410   11.2940 C.3   168  LEU168      0.0001
    128  CD2        7.1340   42.3700    9.4450 C.3   168  LEU168      0.0001
    129  N         13.9300   33.7480   17.1050 N.3   201  ILE201     -0.1245
    130  CA        14.3590   34.9960   16.5630 C.3   201  ILE201      0.1561
    131  C         14.5370   36.0010   17.6630 C.2   201  ILE201      0.2260
    132  O         15.5200   36.7620   17.6910 O.2   201  ILE201     -0.2867
    133  CB        13.3420   35.4430   15.4740 C.3   201  ILE201      0.0252
    134  CG1       13.4150   34.4840   14.2760 C.3   201  ILE201      0.0019
    135  CG2       13.5500   36.8590   15.0630 C.3   201  ILE201      0.0019
    136  CD1       12.2500   34.5820   13.3100 C.3   201  ILE201      0.0001
    137  N         17.9620   37.7630   19.0980 N.3   205  ASN205     -0.1240
    138  CA        17.9700   39.2430   19.1940 C.3   205  ASN205      0.1653
    139  C         18.3790   39.6930   20.6030 C.2   205  ASN205      0.2266
    140  O         19.2140   40.5680   20.7330 O.2   205  ASN205     -0.2867
    141  CB        16.6400   39.8740   18.7410 C.3   205  ASN205      0.1155
    142  CG        16.5760   41.3880   18.9280 C.2   205  ASN205      0.2627
    143  OD1       16.2760   41.8790   20.0200 O.2   205  ASN205     -0.2716
    144  ND2       16.8030   42.1390   17.8480 N.am  205  ASN205     -0.0877
    145  N         17.0710   35.9710   10.0640 N.3   283  GLN283     -0.1245
    146  CA        17.1400   36.9600   11.1260 C.3   283  GLN283      0.1566
    147  C         18.4090   36.7770   11.9720 C.2   283  GLN283      0.2260
    148  O         18.9200   37.7340   12.5510 O.2   283  GLN283     -0.2867
    149  CB        15.8720   36.9770   11.9990 C.3   283  GLN283      0.0367
    150  CG        14.5850   37.2210   11.2290 C.3   283  GLN283      0.0905
    151  CD        14.5810   38.5170   10.4040 C.2   283  GLN283      0.2608
    152  OE1       15.1060   39.4900   10.8250 O.2   283  GLN283     -0.2717
    153  NE2       13.9050   38.5130    9.2610 N.am  283  GLN283     -0.0878
    154  N         20.9220   38.5980    9.8560 N.3   286  TRP286     -0.1227
    155  CA        20.6630   40.0290   10.0060 C.3   286  TRP286      0.1737
    156  C         21.2580   40.5480   11.3280 C.2   286  TRP286      0.2595
    157  O         21.8480   41.6310   11.3500 O.2   286  TRP286     -0.2718
    158  CB        19.1530   40.2980    9.9240 C.3   286  TRP286      0.0564
    159  CG        18.7590   41.7770    9.7820 C.ar  286  TRP286      0.0003
    160  CD1       18.8380   42.5500    8.6480 C.ar  286  TRP286      0.0946
    161  CD2       18.1970   42.6160   10.7970 C.ar  286  TRP286      0.0152
    162  NE1       18.3810   43.8300    8.9120 N.ar  286  TRP286     -0.2442
    163  CE2       17.9860   43.8930   10.2230 C.ar  286  TRP286      0.0810
    164  CE3       17.8730   42.4190   12.1450 C.ar  286  TRP286      0.0012
    165  CZ2       17.4530   44.9600   10.9470 C.ar  286  TRP286      0.0191
    166  CZ3       17.3440   43.4820   12.8640 C.ar  286  TRP286      0.0001
    167  CH2       17.1390   44.7390   12.2620 C.ar  286  TRP286      0.0015
    168  N         21.1390   39.7760   12.4150 N.am  287  HIS287     -0.1975
    169  CA        21.8590   40.0800   13.6840 C.3   287  HIS287      0.1656
    170  C         23.2950   39.5910   13.6060 C.2   287  HIS287      0.2291
    171  O         24.0330   39.6340   14.5910 O.2   287  HIS287     -0.2864
    172  CB        21.1890   39.4320   14.8980 C.3   287  HIS287      0.0771
    173  CG        19.7660   39.8380   15.0890 C.ar  287  HIS287      0.0820
    174  ND1       18.7100   39.0530   14.6810 N.ar  287  HIS287     -0.2267
    175  CD2       19.2200   40.9560   15.6240 C.ar  287  HIS287      0.1154
    176  CE1       17.5740   39.6600   14.9640 C.ar  287  HIS287      0.1986
    177  NE2       17.8560   40.8270   15.5150 N.ar  287  HIS287     -0.2212
@<TRIPOS>BOND
     1     9    10    2
     2     9     8    1
     3     7     8    1
     4     1     2    1
     5     8    11    1
     6     3     4    2
     7     3     2    1
     8    11    12    1
     9    11    13    1
    10     2     5    1
    11    21    19    1
    12   124   123    2
    13    14    15    1
    14    18    19    1
    15    18    15    1
    16    18    20    1
    17     5     6    1
    18    15    16    1
    19   160   162   ar
    20   160   159   ar
    21    16    17    2
    22   123   122    1
    23   162   163   ar
    24   153   151   am
    25   128   126    1
    26   110   109    2
    27   122   125    1
    28   122   121    1
    29   159   158    1
    30   159   161   ar
    31   154   155    1
    32   158   155    1
    33   155   156    1
    34   125   126    1
    35   145   146    1
    36   119   117   ar
    37   119   120   ar
    38   163   161   ar
    39   163   165   ar
    40   151   152    2
    41   151   150    1
    42   126   127    1
    43   117   114   ar
    44   109   121   am
    45   109   108    1
    46   161   164   ar
    47   165   167   ar
    48   120   118   ar
    49   146   147    1
    50   146   149    1
    51   150   149    1
    52    22    23    1
    53   156   157    2
    54   156   168   am
    55    35    37   ar
    56    35    34   ar
    57    33    34    1
    58    33    30    1
    59    37    39   ar
    60   147   148    2
    61   108   111    1
    62   108   107    1
    63    27    26    1
    64    34    36   ar
    65   114   116   ar
    66   114   112   ar
    67   164   166   ar
    68   102   101    2
    69   167   166   ar
    70    29    30    1
    71    29    24   am
    72   105   106    1
    73   105   104    1
    74   118   116   ar
    75    28    26    1
    76   168   169    1
    77   111   112    1
    78    23    26    1
    79    23    24    1
    80    30    31    1
    81   116   115   ar
    82   112   113   ar
    83    39    38   ar
    84    36    38   ar
    85    24    25    2
    86    31    32    2
    87   136   134    1
    88   101   100    1
    89    98    97    2
    90   170   169    1
    91   170   171    2
    92   169   172    1
    93   100   103    1
    94   100    99    1
    95   104   103    1
    96   113   115   ar
    97   134   133    1
    98    97    99   am
    99    97    96    1
   100   174   176   ar
   101   174   173   ar
   102   172   173    1
   103   176   177   ar
   104   135   133    1
   105   173   175   ar
   106    96    95    1
   107   133   130    1
   108   177   175   ar
   109    91    90    2
   110    57    58   ar
   111    57    55   ar
   112    40    41    1
   113   130   129    1
   114   130   131    1
   115    58    56   ar
   116    95    90   am
   117    90    89    1
   118    55    53   ar
   119    56    54   ar
   120    44    41    1
   121    44    45    1
   122    53    54   ar
   123    53    52    1
   124    94    92    1
   125    41    42    1
   126    52    49    1
   127   131   132    2
   128    93    92    1
   129   144   142   am
   130    42    43    2
   131    89    92    1
   132    89    88    1
   133    47    45   ar
   134    45    46   ar
   135   141   142    1
   136   141   138    1
   137    85    84    2
   138    70    69    1
   139   142   143    2
   140   137   138    1
   141    88    84   am
   142    49    48    1
   143    49    50    1
   144   138   139    1
   145    84    83    1
   146    50    51    2
   147    68    69   ar
   148    68    66   ar
   149    69    67   ar
   150    83    82    1
   151    83    86    1
   152   139   140    2
   153    80    79    1
   154    81    79    1
   155    74    73    2
   156    66    64   ar
   157    67    65   ar
   158    79    78    2
   159    86    87    1
   160    73    72    1
   161    64    65   ar
   162    64    63    1
   163    78    77    1
   164    77    76    1
   165    76    75    1
   166    72    75    1
   167    72    71    1
   168    63    60    1
   169    59    60    1
   170    60    61    1
   171    61    62    2
