@<TRIPOS>MOLECULE
tmp/4mc5C02.pdb
 82 78 0 0 0
SMALL
GASTEIGER

@<TRIPOS>ATOM
      1  N        295.3580  186.7520   25.3670 N.3    46  LYS46      -0.1245
      2  CA       296.6010  186.3520   26.0250 C.3    46  LYS46       0.1561
      3  C        296.3350  185.4740   27.2440 C.2    46  LYS46       0.2260
      4  O        296.8440  185.7400   28.3360 O.2    46  LYS46      -0.2867
      5  CB       297.4460  187.5730   26.4010 C.3    46  LYS46       0.0271
      6  CG       298.5250  187.9030   25.3710 C.3    46  LYS46       0.0035
      7  CD       299.3250  189.1450   25.7590 C.3    46  LYS46       0.0206
      8  CE       300.2620  188.8690   26.9280 C.3    46  LYS46       0.1093
      9  NZ       301.0620  190.0690   27.3210 N.3    46  LYS46      -0.1314
     10  N        289.4290  196.0940   31.7170 N.3   108  ASN108     -0.1240
     11  CA       290.4290  195.0650   31.9910 C.3   108  ASN108      0.1653
     12  C        290.7750  195.0970   33.4780 C.2   108  ASN108      0.2266
     13  O        291.3930  196.0520   33.9600 O.2   108  ASN108     -0.2867
     14  CB       291.6870  195.3010   31.1510 C.3   108  ASN108      0.1155
     15  CG       292.7380  194.2040   31.3340 C.2   108  ASN108      0.2627
     16  OD1      292.5200  193.2160   32.0450 O.2   108  ASN108     -0.2716
     17  ND2      293.8820  194.3750   30.6800 N.am  108  ASN108     -0.0877
     18  N        294.2450  197.5030   35.8850 N.3   258  THR258     -0.1203
     19  CA       295.3810  197.0460   35.0930 C.3   258  THR258      0.1994
     20  C        295.9120  198.2370   34.3080 C.2   258  THR258      0.2619
     21  O        295.2810  199.2980   34.2810 O.2   258  THR258     -0.2717
     22  CB       294.9950  195.9200   34.1120 C.3   258  THR258      0.1784
     23  OG1      294.0340  196.4040   33.1650 O.3   258  THR258     -0.2211
     24  CG2      294.4240  194.7220   34.8660 C.3   258  THR258      0.0376
     25  N        297.0550  198.0630   33.6550 N.am  259  THR259     -0.1938
     26  CA       297.6610  199.1620   32.9100 C.3   259  THR259      0.2028
     27  C        297.1300  199.2660   31.4780 C.2   259  THR259      0.2642
     28  O        297.1500  200.3430   30.8800 O.2   259  THR259     -0.2714
     29  CB       299.2070  199.0510   32.8750 C.3   259  THR259      0.1808
     30  OG1      299.5950  197.8940   32.1180 O.3   259  THR259     -0.2208
     31  CG2      299.7710  198.9480   34.2910 C.3   259  THR259      0.0379
     32  N        296.6460  198.1510   30.9370 N.am  260  ASN260     -0.1971
     33  CA       296.2880  198.0850   29.5220 C.3   260  ASN260      0.1688
     34  C        294.7800  198.1660   29.2920 C.2   260  ASN260      0.2292
     35  O        294.0480  197.2010   29.5260 O.2   260  ASN260     -0.2864
     36  CB       296.8320  196.7950   28.9000 C.3   260  ASN260      0.1181
     37  CG       298.3550  196.7190   28.9340 C.2   260  ASN260      0.2629
     38  OD1      299.0360  197.7420   29.0480 O.2   260  ASN260     -0.2716
     39  ND2      298.8930  195.4950   28.8370 N.am  260  ASN260     -0.0877
     40  N        297.7860  192.9320   21.4680 N.3   301  ASP301     -0.1239
     41  CA       299.0610  193.0680   20.7710 C.3   301  ASP301      0.1674
     42  C        298.7710  192.8680   19.2900 C.2   301  ASP301      0.2266
     43  O        298.7060  191.7340   18.8050 O.2   301  ASP301     -0.2867
     44  CB       300.0360  192.0090   21.2950 C.3   301  ASP301      0.1410
     45  CG       301.4130  192.1120   20.6760 C.2   301  ASP301      0.3668
     46  OD1      301.7650  193.1820   20.1290 O.co2 301  ASP301     -0.2456
     47  OD2      302.1610  191.1160   20.7520 O.co2 301  ASP301     -0.2456
     48  N        306.8290  196.3700   17.0060 N.3   381  ASN381     -0.1225
     49  CA       306.6600  196.0910   18.4230 C.3   381  ASN381      0.1785
     50  C        305.8350  197.2160   19.0190 C.2   381  ASN381      0.2598
     51  O        306.3610  198.2900   19.3080 O.2   381  ASN381     -0.2718
     52  CB       308.0290  195.9990   19.1050 C.3   381  ASN381      0.1169
     53  CG       307.9250  195.7140   20.5870 C.2   381  ASN381      0.2627
     54  OD1      307.1000  194.9070   21.0190 O.2   381  ASN381     -0.2716
     55  ND2      308.7630  196.3780   21.3770 N.am  381  ASN381     -0.0877
     56  N        304.5420  196.9630   19.1990 N.am  382  THR382     -0.1939
     57  CA       303.5660  198.0390   19.3390 C.3   382  THR382      0.2028
     58  C        303.0810  198.3130   20.7510 C.2   382  THR382      0.2642
     59  O        303.1610  197.4550   21.6360 O.2   382  THR382     -0.2714
     60  CB       302.3190  197.7400   18.4890 C.3   382  THR382      0.1808
     61  OG1      301.8100  196.4420   18.8340 O.3   382  THR382     -0.2208
     62  CG2      302.6660  197.7750   17.0060 C.3   382  THR382      0.0379
     63  N        302.5310  199.5090   20.9400 N.am  383  GLN383     -0.1963
     64  CA       301.8180  199.8220   22.1640 C.3   383  GLN383      0.1733
     65  C        300.5440  198.9820   22.1830 C.2   383  GLN383      0.2616
     66  O        300.0020  198.6430   21.1280 O.2   383  GLN383     -0.2715
     67  CB       301.4950  201.3230   22.2210 C.3   383  GLN383      0.0408
     68  CG       302.7380  202.2220   22.2540 C.3   383  GLN383      0.0908
     69  CD       303.6080  201.9680   23.4700 C.2   383  GLN383      0.2608
     70  OE1      304.4920  201.1140   23.4380 O.2   383  GLN383     -0.2717
     71  NE2      303.3750  202.7240   24.5470 N.am  383  GLN383     -0.0878
     72  N        300.0880  198.6240   23.3780 N.am  384  PHE384     -0.1974
     73  CA       298.8400  197.8890   23.5470 C.3   384  PHE384      0.1639
     74  C        297.6980  198.6120   22.8230 C.2   384  PHE384      0.2290
     75  O        297.5140  199.8230   22.9790 O.2   384  PHE384     -0.2864
     76  CB       298.5250  197.7210   25.0400 C.3   384  PHE384      0.0560
     77  CG       297.3800  196.7820   25.3270 C.ar  384  PHE384     -0.0200
     78  CD1      297.6170  195.4340   25.5670 C.ar  384  PHE384     -0.0042
     79  CD2      296.0690  197.2490   25.3660 C.ar  384  PHE384     -0.0042
     80  CE1      296.5650  194.5600   25.8340 C.ar  384  PHE384     -0.0003
     81  CE2      295.0110  196.3850   25.6280 C.ar  384  PHE384     -0.0003
     82  CZ       295.2610  195.0360   25.8640 C.ar  384  PHE384     -0.0000
@<TRIPOS>BOND
     1    62    60    1
     2    48    49    1
     3    49    50    1
     4    49    52    1
     5    60    61    1
     6    60    57    1
     7    43    42    2
     8    50    56   am
     9    50    51    2
    10    52    53    1
    11    56    57    1
    12    42    41    1
    13    57    58    1
    14    46    45   ar
    15    53    54    2
    16    53    55   am
    17    45    47   ar
    18    45    44    1
    19    58    63   am
    20    58    59    2
    21    41    44    1
    22    41    40    1
    23    63    64    1
    24    66    65    2
    25    64    65    1
    26    64    67    1
    27    65    72   am
    28    67    68    1
    29    68    69    1
    30    74    75    2
    31    74    73    1
    32    72    73    1
    33    70    69    2
    34    69    71   am
    35    73    76    1
    36    76    77    1
    37    77    79   ar
    38    77    78   ar
    39    79    81   ar
    40     1     2    1
    41     6     7    1
    42     6     5    1
    43    78    80   ar
    44    81    82   ar
    45     7     8    1
    46    80    82   ar
    47     2     5    1
    48     2     3    1
    49     8     9    1
    50     3     4    2
    51    39    37   am
    52    36    37    1
    53    36    33    1
    54    37    38    2
    55    34    33    1
    56    34    35    2
    57    33    32    1
    58    17    15   am
    59    28    27    2
    60    32    27   am
    61    14    15    1
    62    14    11    1
    63    15    16    2
    64    27    26    1
    65    10    11    1
    66    11    12    1
    67    30    29    1
    68    29    26    1
    69    29    31    1
    70    26    25    1
    71    23    22    1
    72    12    13    2
    73    25    20   am
    74    22    24    1
    75    22    19    1
    76    21    20    2
    77    20    19    1
    78    19    18    1
