@<TRIPOS>MOLECULE
tmp/4mc6B00.pdb
 105 98 0 0 0
SMALL
GASTEIGER

@<TRIPOS>ATOM
      1  N          8.8930   34.0620   -1.2960 N.3     8  ARG8       -0.1245
      2  CA         9.6480   32.8250   -1.4510 C.3     8  ARG8        0.1563
      3  C         10.5570   32.9150   -2.6800 C.2     8  ARG8        0.2260
      4  O         10.1340   33.4000   -3.7400 O.2     8  ARG8       -0.2867
      5  CB         8.7040   31.6300   -1.6370 C.3     8  ARG8        0.0307
      6  CG         7.9960   31.1840   -0.3630 C.3     8  ARG8        0.0489
      7  CD         7.3500   29.8140   -0.5760 C.3     8  ARG8        0.2205
      8  NE         6.8910   29.2510    0.7080 N.pl3   8  ARG8       -0.0865
      9  CZ         6.3240   28.0520    0.8640 C.cat   8  ARG8        0.5346
     10  NH1        6.1600   27.2430   -0.1780 N.pl3   8  ARG8        0.1354
     11  NH2        5.9330   27.6470    2.0660 N.pl3   8  ARG8        0.1354
     12  N         12.0520   25.9430   -5.0980 N.3    23  LEU23      -0.1245
     13  CA        12.4880   26.8830   -4.0910 C.3    23  LEU23       0.1561
     14  C         13.9970   26.8290   -3.9070 C.2    23  LEU23       0.2260
     15  O         14.5200   25.7370   -3.6350 O.2    23  LEU23      -0.2867
     16  CB        11.7440   26.4390   -2.8170 C.3    23  LEU23       0.0270
     17  CG        11.8590   27.2550   -1.5720 C.3    23  LEU23       0.0019
     18  CD1       11.2490   28.6420   -1.7750 C.3    23  LEU23       0.0001
     19  CD2       11.1030   26.5550   -0.4670 C.3    23  LEU23       0.0001
     20  N         16.7540   26.8970   -1.6060 N.3    25  ASP25      -0.1239
     21  CA        16.7090   26.6280   -0.1940 C.3    25  ASP25       0.1674
     22  C         18.0630   26.3720    0.4530 C.2    25  ASP25       0.2266
     23  O         18.5580   25.2240    0.4560 O.2    25  ASP25      -0.2867
     24  CB        15.7750   25.4290   -0.0010 C.3    25  ASP25       0.1410
     25  CG        15.4110   25.2070    1.4160 C.2    25  ASP25       0.3668
     26  OD1       16.0130   25.8720    2.2950 O.co2  25  ASP25      -0.2456
     27  OD2       14.4760   24.4650    1.6530 O.co2  25  ASP25      -0.2456
     28  N         18.6590   26.0950    3.5470 N.3    27  GLY27      -0.1210
     29  CA        18.4940   25.2020    4.6830 C.3    27  GLY27       0.1956
     30  C         18.4340   23.7370    4.2810 C.2    27  GLY27       0.2612
     31  O         18.4830   22.8690    5.1530 O.2    27  GLY27      -0.2717
     32  N         18.3100   23.4350    2.9790 N.am   28  ALA28      -0.1965
     33  CA        18.2490   22.0550    2.4780 C.3    28  ALA28       0.1728
     34  C         19.6480   21.5990    2.0570 C.2    28  ALA28       0.2616
     35  O         20.2660   22.2020    1.1890 O.2    28  ALA28      -0.2715
     36  CB        17.2840   21.9860    1.3000 C.3    28  ALA28       0.0334
     37  N         20.1310   20.4980    2.6420 N.am   29  ASP29      -0.1957
     38  CA        21.4430   19.9940    2.2180 C.3    29  ASP29       0.1840
     39  C         21.4070   19.4320    0.7850 C.2    29  ASP29       0.2622
     40  O         22.3840   19.5400    0.0330 O.2    29  ASP29      -0.2715
     41  CB        21.8360   18.8310    3.1330 C.3    29  ASP29       0.1450
     42  CG        21.8390   19.1420    4.6140 C.2    29  ASP29       0.3671
     43  OD1       22.3550   20.2150    5.0000 O.co2  29  ASP29      -0.2456
     44  OD2       21.4360   18.2660    5.4000 O.co2  29  ASP29      -0.2456
     45  N         20.2410   18.8870    0.4200 N.am   30  ASP30      -0.1971
     46  CA        20.0320   18.1630   -0.8190 C.3    30  ASP30       0.1709
     47  C         18.8360   18.6970   -1.5820 C.2    30  ASP30       0.2293
     48  O         17.9670   19.3600   -1.0170 O.2    30  ASP30      -0.2864
     49  CB        19.8250   16.6710   -0.4860 C.3    30  ASP30       0.1436
     50  CG        20.9260   16.0460    0.3530 C.2    30  ASP30       0.3671
     51  OD1       22.1040   16.2450    0.0210 O.co2  30  ASP30      -0.2456
     52  OD2       20.6000   15.4110    1.3660 O.co2  30  ASP30      -0.2456
     53  N         15.4300   18.0530   -3.6040 N.3    32  VAL32      -0.1245
     54  CA        14.3310   17.0920   -3.5570 C.3    32  VAL32       0.1561
     55  C         13.2150   17.5720   -4.4260 C.2    32  VAL32       0.2260
     56  O         12.7370   18.7030   -4.2480 O.2    32  VAL32      -0.2867
     57  CB        13.8060   16.8660   -2.1230 C.3    32  VAL32       0.0252
     58  CG1       12.9570   15.5850   -2.0680 C.3    32  VAL32       0.0019
     59  CG2       14.9440   16.8360   -1.1090 C.3    32  VAL32       0.0019
     60  N         15.2070   11.6530    4.2680 N.3    47  ILE47      -0.1231
     61  CA        15.4330   13.0950    4.5120 C.3    47  ILE47       0.1692
     62  C         14.6410   13.4750    5.7340 C.2    47  ILE47       0.2593
     63  O         13.4080   13.3320    5.6950 O.2    47  ILE47      -0.2718
     64  CB        15.0060   14.0480    3.3520 C.3    47  ILE47       0.0266
     65  CG1       15.7850   13.8310    2.0590 C.3    47  ILE47       0.0019
     66  CG2       15.1310   15.5480    3.8000 C.3    47  ILE47       0.0020
     67  CD1       14.9630   14.3370    0.9350 C.3    47  ILE47       0.0001
     68  N         15.3130   14.0080    6.7400 N.am   48  GLY48      -0.1942
     69  CA        14.6660   14.4730    7.9560 C.3    48  GLY48       0.2014
     70  C         14.4730   15.9600    7.9260 C.2    48  GLY48       0.2639
     71  O         15.4090   16.7050    7.6750 O.2    48  GLY48      -0.2714
     72  N         13.2530   16.3740    8.2110 N.am   49  GLY49      -0.1939
     73  CA        12.9460   17.7950    8.2760 C.3    49  GLY49       0.2014
     74  C         12.0430   18.0930    9.4410 C.2    49  GLY49       0.2638
     75  O         12.0050   17.3230   10.4070 O.2    49  GLY49      -0.2714
     76  N         11.2880   19.2060    9.3550 N.am   50  ILE50      -0.1977
     77  CA        10.3010   19.5330   10.3810 C.3    50  ILE50       0.1596
     78  C          9.1380   18.5760   10.1510 C.2    50  ILE50       0.2287
     79  O          8.7210   18.3700    8.9970 O.2    50  ILE50      -0.2864
     80  CB         9.8850   21.0360   10.2680 C.3    50  ILE50       0.0276
     81  CG1       10.8580   21.9320   11.0740 C.3    50  ILE50       0.0022
     82  CG2        8.4440   21.2950   10.8170 C.3    50  ILE50       0.0022
     83  CD1       12.3010   22.0500   10.4990 C.3    50  ILE50       0.0001
     84  N          6.5720   18.3880   -0.0920 N.3    81  PRO81      -0.2102
     85  CA         5.4750   19.3460   -0.3400 C.3    81  PRO81       0.1504
     86  C          5.7680   20.3830   -1.4320 C.2    81  PRO81       0.2575
     87  O          4.8480   20.9740   -1.9860 O.2    81  PRO81      -0.2718
     88  CB         5.3070   20.0390    1.0220 C.3    81  PRO81       0.0282
     89  CG         5.8560   19.0500    2.0340 C.3    81  PRO81       0.0208
     90  CD         7.0720   18.5020    1.2890 C.3    81  PRO81       0.0893
     91  N          7.0660   20.6210   -1.7450 N.am   82  VAL82      -0.1980
     92  CA         7.4750   21.6260   -2.7160 C.3    82  VAL82       0.1595
     93  C          8.7890   21.1500   -3.3190 C.2    82  VAL82       0.2287
     94  O          9.5400   20.4480   -2.6570 O.2    82  VAL82      -0.2864
     95  CB         7.6280   23.0020   -1.9950 C.3    82  VAL82       0.0276
     96  CG1        8.7110   22.9800   -0.9410 C.3    82  VAL82       0.0022
     97  CG2        7.8450   24.1560   -2.9620 C.3    82  VAL82       0.0022
     98  N         12.5050   21.5250   -4.0720 N.3    84  ILE84      -0.1245
     99  CA        13.5520   22.2190   -3.3260 C.3    84  ILE84       0.1561
    100  C         14.8970   22.0700   -3.9890 C.2    84  ILE84       0.2260
    101  O         15.3070   20.9430   -4.2600 O.2    84  ILE84      -0.2867
    102  CB        13.6020   21.5900   -1.9010 C.3    84  ILE84       0.0252
    103  CG1       12.3120   21.9050   -1.1180 C.3    84  ILE84       0.0019
    104  CG2       14.8640   21.9930   -1.1340 C.3    84  ILE84       0.0019
    105  CD1       12.1170   21.0420    0.1390 C.3    84  ILE84       0.0001
@<TRIPOS>BOND
     1    12    13    1
     2    55    56    2
     3    55    54    1
     4   101   100    2
     5    13    14    1
     6    13    16    1
     7    98    99    1
     8   100    99    1
     9    14    15    2
    10     4     3    2
    11    53    54    1
    12    54    57    1
    13    99   102    1
    14    93    92    1
    15    93    94    2
    16    97    95    1
    17    16    17    1
    18    92    95    1
    19    92    91    1
    20     3     2    1
    21    57    58    1
    22    57    59    1
    23    95    96    1
    24    87    86    2
    25   102   104    1
    26   102   103    1
    27    18    17    1
    28    91    86   am
    29     5     2    1
    30     5     6    1
    31    20    21    1
    32    47    48    2
    33    47    46    1
    34    17    19    1
    35     2     1    1
    36    86    85    1
    37   103   105    1
    38    46    49    1
    39    46    45    1
    40     7     6    1
    41     7     8    1
    42    49    50    1
    43    85    84    1
    44    85    88    1
    45    21    24    1
    46    21    22    1
    47    10     9    1
    48    84    90    1
    49    24    25    1
    50    51    50   ar
    51    40    39    2
    52    50    52   ar
    53    45    39   am
    54    22    23    2
    55     8     9    2
    56    39    38    1
    57     9    11    1
    58    67    65    1
    59    88    89    1
    60    35    34    2
    61    90    89    1
    62    36    33    1
    63    25    27   ar
    64    25    26   ar
    65    34    33    1
    66    34    37   am
    67    65    64    1
    68    38    37    1
    69    38    41    1
    70    33    32    1
    71    32    30   am
    72    41    42    1
    73    64    66    1
    74    64    61    1
    75    28    29    1
    76    60    61    1
    77    30    29    1
    78    30    31    2
    79    61    62    1
    80    42    43   ar
    81    42    44   ar
    82    63    62    2
    83    62    68   am
    84    68    69    1
    85    71    70    2
    86    70    69    1
    87    70    72   am
    88    72    73    1
    89    73    74    1
    90    79    78    2
    91    76    74   am
    92    76    77    1
    93    74    75    2
    94    78    77    1
    95    80    77    1
    96    80    82    1
    97    80    81    1
    98    83    81    1
