@<TRIPOS>MOLECULE
tmp/4mc8A00.pdb
 157 150 0 0 0
SMALL
GASTEIGER

@<TRIPOS>ATOM
      1  N        -19.2990   23.9590   14.2780 N.3    50  ALA50      -0.1245
      2  CA       -18.2020   24.4380   13.4370 C.3    50  ALA50       0.1562
      3  C        -18.1500   23.7470   12.0740 C.2    50  ALA50       0.2260
      4  O        -17.9700   24.4130   11.0550 O.2    50  ALA50      -0.2867
      5  CB       -16.8740   24.3000   14.1630 C.3    50  ALA50       0.0290
      6  N        -21.3140   24.5300    9.8310 N.3    53  SER53      -0.1217
      7  CA       -21.0430   25.8860    9.3630 C.3    53  SER53       0.1889
      8  C        -20.3380   25.8910    8.0010 C.2    53  SER53       0.2288
      9  O        -20.7480   26.6070    7.0800 O.2    53  SER53      -0.2866
     10  CB       -20.1960   26.6220   10.4020 C.3    53  SER53       0.2089
     11  OG       -20.1010   27.9960   10.1020 O.3    53  SER53      -0.2183
     12  N        -22.3980   24.9430    4.9090 N.3    56  TYR56      -0.1227
     13  CA       -23.2620   26.0290    4.4230 C.3    56  TYR56       0.1736
     14  C        -22.4930   27.2110    3.8140 C.2    56  TYR56       0.2595
     15  O        -23.0660   27.9920    3.0490 O.2    56  TYR56      -0.2718
     16  CB       -24.2150   26.5120    5.5190 C.3    56  TYR56       0.0548
     17  CG       -25.3740   25.5550    5.8140 C.ar   56  TYR56      -0.0200
     18  CD1      -26.3440   25.2650    4.8430 C.ar   56  TYR56      -0.0009
     19  CD2      -25.4970   24.9450    7.0610 C.ar   56  TYR56      -0.0009
     20  CE1      -27.4060   24.4010    5.1120 C.ar   56  TYR56       0.0417
     21  CE2      -26.5560   24.0780    7.3370 C.ar   56  TYR56       0.0417
     22  CZ       -27.4980   23.8110    6.3590 C.ar   56  TYR56       0.1957
     23  OH       -28.5160   22.9500    6.6360 O.3    56  TYR56      -0.2866
     24  N        -21.2050   27.3360    4.1440 N.am   57  VAL57      -0.1980
     25  CA       -20.3540   28.3950    3.5710 C.3    57  VAL57       0.1595
     26  C        -19.8960   28.0150    2.1540 C.2    57  VAL57       0.2287
     27  O        -19.8420   28.8610    1.2500 O.2    57  VAL57      -0.2864
     28  CB       -19.1220   28.7100    4.4670 C.3    57  VAL57       0.0276
     29  CG1      -18.1600   29.6590    3.7540 C.3    57  VAL57       0.0022
     30  CG2      -19.5630   29.3240    5.7860 C.3    57  VAL57       0.0022
     31  N        -11.6680   26.9870    9.7570 N.3    73  ILE73      -0.1245
     32  CA       -12.6960   27.2370   10.7720 C.3    73  ILE73       0.1561
     33  C        -12.2390   26.7150   12.1470 C.2    73  ILE73       0.2260
     34  O        -12.2630   27.4520   13.1420 O.2    73  ILE73      -0.2867
     35  CB       -14.0620   26.6490   10.3480 C.3    73  ILE73       0.0252
     36  CG1      -14.5490   27.3210    9.0550 C.3    73  ILE73       0.0019
     37  CG2      -15.1030   26.8150   11.4530 C.3    73  ILE73       0.0019
     38  CD1      -15.8490   26.7590    8.5080 C.3    73  ILE73       0.0001
     39  N         -9.4660   28.8300   13.6190 N.3    76  THR76      -0.1203
     40  CA       -10.0150   30.1260   13.9960 C.3    76  THR76       0.1994
     41  C        -10.7200   30.0170   15.3470 C.2    76  THR76       0.2617
     42  O        -10.5870   30.9080   16.1960 O.2    76  THR76      -0.2717
     43  CB       -10.9800   30.6430   12.9060 C.3    76  THR76       0.1784
     44  OG1      -10.2270   30.9690   11.7330 O.3    76  THR76      -0.2211
     45  CG2      -11.7320   31.8730   13.3660 C.3    76  THR76       0.0376
     46  N        -11.4550   28.9170   15.5320 N.am   77  PHE77      -0.1975
     47  CA       -12.0620   28.5730   16.8170 C.3    77  PHE77       0.1639
     48  C        -11.0230   28.5330   17.9420 C.2    77  PHE77       0.2290
     49  O        -11.2400   29.1180   18.9990 O.2    77  PHE77      -0.2864
     50  CB       -12.7990   27.2340   16.7150 C.3    77  PHE77       0.0560
     51  CG       -13.5330   26.8410   17.9680 C.ar   77  PHE77      -0.0200
     52  CD1      -12.9020   26.0870   18.9580 C.ar   77  PHE77      -0.0042
     53  CD2      -14.8600   27.2160   18.1590 C.ar   77  PHE77      -0.0042
     54  CE1      -13.5770   25.7230   20.1140 C.ar   77  PHE77      -0.0003
     55  CE2      -15.5400   26.8520   19.3120 C.ar   77  PHE77      -0.0003
     56  CZ       -14.8980   26.1030   20.2890 C.ar   77  PHE77      -0.0000
     57  N         -9.3800   40.4260    9.7010 N.3   141  PHE141     -0.1241
     58  CA       -10.0970   39.6270   10.6930 C.3   141  PHE141      0.1605
     59  C         -9.3320   39.5660   12.0190 C.2   141  PHE141      0.2264
     60  O         -9.8740   39.8820   13.0710 O.2   141  PHE141     -0.2867
     61  CB       -10.3320   38.2150   10.1290 C.3   141  PHE141      0.0534
     62  CG       -10.8360   37.2160   11.1390 C.ar  141  PHE141     -0.0203
     63  CD1      -12.1500   37.2690   11.6030 C.ar  141  PHE141     -0.0042
     64  CD2      -10.0030   36.2000   11.6100 C.ar  141  PHE141     -0.0042
     65  CE1      -12.6120   36.3430   12.5260 C.ar  141  PHE141     -0.0003
     66  CE2      -10.4560   35.2740   12.5390 C.ar  141  PHE141     -0.0003
     67  CZ       -11.7700   35.3450   12.9920 C.ar  141  PHE141     -0.0000
     68  N        -14.6860   41.2850   10.9010 N.3   165  SER165     -0.1202
     69  CA       -14.6860   40.4350   12.1000 C.3   165  SER165      0.2020
     70  C        -15.5750   39.2000   11.9470 C.2   165  SER165      0.2618
     71  O        -15.3020   38.1610   12.5610 O.2   165  SER165     -0.2717
     72  CB       -15.0690   41.2210   13.3570 C.3   165  SER165      0.2103
     73  OG       -16.4600   41.5340   13.3680 O.3   165  SER165     -0.2182
     74  N        -16.6260   39.3100   11.1250 N.am  166  VAL166     -0.1979
     75  CA       -17.5420   38.1890   10.8800 C.3   166  VAL166      0.1595
     76  C        -16.8250   37.0810   10.1010 C.2   166  VAL166      0.2287
     77  O        -17.2160   35.9140   10.1680 O.2   166  VAL166     -0.2864
     78  CB       -18.8600   38.6370   10.1850 C.3   166  VAL166      0.0276
     79  CG1      -18.6290   39.0650    8.7400 C.3   166  VAL166      0.0022
     80  CG2      -19.9230   37.5470   10.2760 C.3   166  VAL166      0.0022
     81  N        -16.4840   36.4840    6.9010 N.3   168  MET168     -0.1245
     82  CA       -16.9550   36.1380    5.5670 C.3   168  MET168      0.1570
     83  C        -16.0400   36.4700    4.4080 C.2   168  MET168      0.2261
     84  O        -15.9570   35.6580    3.4880 O.2   168  MET168     -0.2867
     85  CB       -18.3880   36.6590    5.2390 C.3   168  MET168      0.0387
     86  CG       -19.5040   36.2110    6.1800 C.3   168  MET168      0.0595
     87  SD       -19.4270   34.5060    6.7820 S.3   168  MET168     -0.1393
     88  CE       -19.5660   33.5480    5.2770 C.3   168  MET168      0.0692
     89  N        -12.6880   36.4880    4.0900 N.3   170  TRP170     -0.1227
     90  CA       -11.6910   35.4390    3.8890 C.3   170  TRP170      0.1737
     91  C        -12.3340   34.0560    3.6620 C.2   170  TRP170      0.2595
     92  O        -11.8110   33.2650    2.8850 O.2   170  TRP170     -0.2718
     93  CB       -10.5470   35.4530    4.9470 C.3   170  TRP170      0.0564
     94  CG       -10.9760   35.1100    6.3570 C.ar  170  TRP170      0.0003
     95  CD1      -11.2260   35.9870    7.3760 C.ar  170  TRP170      0.0946
     96  CD2      -11.2010   33.7960    6.8960 C.ar  170  TRP170      0.0152
     97  NE1      -11.5810   35.3030    8.5180 N.ar  170  TRP170     -0.2442
     98  CE2      -11.5780   33.9590    8.2520 C.ar  170  TRP170      0.0810
     99  CE3      -11.1120   32.4960    6.3660 C.ar  170  TRP170      0.0012
    100  CZ2      -11.8670   32.8720    9.0900 C.ar  170  TRP170      0.0191
    101  CZ3      -11.3930   31.4140    7.1970 C.ar  170  TRP170      0.0001
    102  CH2      -11.7710   31.6100    8.5490 C.ar  170  TRP170      0.0015
    103  N        -13.4900   33.7770    4.2780 N.am  171  LEU171     -0.1980
    104  CA       -14.1910   32.5270    3.9860 C.3   171  LEU171      0.1596
    105  C        -14.5590   32.4140    2.5040 C.2   171  LEU171      0.2287
    106  O        -14.4340   31.3330    1.9140 O.2   171  LEU171     -0.2864
    107  CB       -15.4600   32.3770    4.8420 C.3   171  LEU171      0.0297
    108  CG       -15.1750   32.1930    6.3350 C.3   171  LEU171      0.0022
    109  CD1      -16.4630   32.3500    7.1410 C.3   171  LEU171      0.0001
    110  CD2      -14.5190   30.8460    6.5880 C.3   171  LEU171      0.0001
    111  N        -25.0570   38.8520    7.1280 N.3   204  ILE204     -0.1245
    112  CA       -24.7710   37.6990    7.9750 C.3   204  ILE204      0.1561
    113  C        -24.3640   38.1290    9.3890 C.2   204  ILE204      0.2260
    114  O        -24.8430   37.5690   10.3780 O.2   204  ILE204     -0.2867
    115  CB       -23.6940   36.8150    7.3210 C.3   204  ILE204      0.0252
    116  CG1      -24.2650   36.1100    6.0740 C.3   204  ILE204      0.0019
    117  CG2      -23.1010   35.8230    8.3190 C.3   204  ILE204      0.0019
    118  CD1      -23.1380   35.6070    5.1650 C.3   204  ILE204      0.0001
    119  N        -26.3620   37.5970   12.9140 N.3   208  ASN208     -0.1240
    120  CA       -25.6050   37.0630   14.0630 C.3   208  ASN208      0.1653
    121  C        -25.7200   37.8890   15.3390 C.2   208  ASN208      0.2266
    122  O        -25.8300   37.3300   16.4290 O.2   208  ASN208     -0.2867
    123  CB       -24.1360   36.8420   13.7050 C.3   208  ASN208      0.1155
    124  CG       -23.9120   35.5250   12.9980 C.2   208  ASN208      0.2627
    125  OD1      -22.9250   35.3490   12.2940 O.2   208  ASN208     -0.2716
    126  ND2      -24.8430   34.5950   13.1690 N.am  208  ASN208     -0.0877
    127  N        -25.1500   31.5330    0.9090 N.3   284  ASN284     -0.1240
    128  CA       -24.7680   31.6810    2.3190 C.3   284  ASN284      0.1653
    129  C        -25.8040   32.4170    3.1770 C.2   284  ASN284      0.2266
    130  O        -25.9940   32.0880    4.3540 O.2   284  ASN284     -0.2867
    131  CB       -23.4060   32.4160    2.4460 C.3   284  ASN284      0.1155
    132  CG       -22.2120   31.4950    2.2510 C.2   284  ASN284      0.2627
    133  OD1      -21.2900   31.4860    3.0770 O.2   284  ASN284     -0.2716
    134  ND2      -22.2010   30.7390    1.1520 N.am  284  ASN284     -0.0877
    135  N        -27.2790   30.3850    6.4740 N.3   288  GLN288     -0.1245
    136  CA       -27.0970   30.8450    7.8520 C.3   288  GLN288      0.1566
    137  C        -28.3310   30.5800    8.6860 C.2   288  GLN288      0.2260
    138  O        -28.2370   30.2050    9.8620 O.2   288  GLN288     -0.2867
    139  CB       -26.8000   32.3410    7.8930 C.3   288  GLN288      0.0367
    140  CG       -26.6460   32.8770    9.3090 C.3   288  GLN288      0.0905
    141  CD       -26.5110   34.3790    9.3740 C.2   288  GLN288      0.2608
    142  OE1      -26.9880   35.1070    8.4910 O.2   288  GLN288     -0.2717
    143  NE2      -25.8690   34.8600   10.4410 N.am  288  GLN288     -0.0878
    144  N        -28.6140   26.8400    9.5460 N.3   291  TRP291     -0.1241
    145  CA       -27.5200   26.5530   10.4720 C.3   291  TRP291      0.1605
    146  C        -27.8430   26.9840   11.9090 C.2   291  TRP291      0.2264
    147  O        -27.5850   26.2290   12.8490 O.2   291  TRP291     -0.2867
    148  CB       -26.2210   27.2000    9.9800 C.3   291  TRP291      0.0550
    149  CG       -25.0690   27.0630   10.9290 C.ar  291  TRP291      0.0003
    150  CD1      -24.4030   25.9140   11.2520 C.ar  291  TRP291      0.0946
    151  CD2      -24.4450   28.1170   11.6800 C.ar  291  TRP291      0.0152
    152  NE1      -23.4020   26.1870   12.1590 N.ar  291  TRP291     -0.2442
    153  CE2      -23.4050   27.5310   12.4380 C.ar  291  TRP291      0.0810
    154  CE3      -24.6630   29.5020   11.7830 C.ar  291  TRP291      0.0012
    155  CZ2      -22.5750   28.2840   13.2900 C.ar  291  TRP291      0.0191
    156  CZ3      -23.8430   30.2490   12.6280 C.ar  291  TRP291      0.0001
    157  CH2      -22.8080   29.6370   13.3700 C.ar  291  TRP291      0.0015
@<TRIPOS>BOND
     1   127   128    1
     2   134   132   am
     3    27    26    2
     4   106   105    2
     5    26    25    1
     6   132   131    1
     7   132   133    2
     8   128   131    1
     9   128   129    1
    10   105   104    1
    11    92    91    2
    12    15    14    2
    13   129   130    2
    14    84    83    2
    15    25    24    1
    16    25    28    1
    17    91    90    1
    18    91   103   am
    19    29    28    1
    20    14    24   am
    21    14    13    1
    22    90    89    1
    23    90    93    1
    24   104   103    1
    25   104   107    1
    26    83    82    1
    27    13    12    1
    28    13    16    1
    29    28    30    1
    30   107   108    1
    31    18    20   ar
    32    18    17   ar
    33    93    94    1
    34    20    22   ar
    35   118   116    1
    36    85    82    1
    37    85    86    1
    38    88    87    1
    39    16    17    1
    40    82    81    1
    41    17    19   ar
    42   116   115    1
    43    86    87    1
    44   108   110    1
    45   108   109    1
    46    94    96   ar
    47    94    95   ar
    48    22    23    1
    49    22    21   ar
    50    99    96   ar
    51    99   101   ar
    52   135   136    1
    53    96    98   ar
    54    19    21   ar
    55     9     8    2
    56   111   112    1
    57   101   102   ar
    58   115   112    1
    59   115   117    1
    60    95    97   ar
    61   136   139    1
    62   136   137    1
    63   139   140    1
    64   112   113    1
    65     8     7    1
    66    98    97   ar
    67    98   100   ar
    68   142   141    2
    69    38    36    1
    70   102   100   ar
    71   137   138    2
    72    79    78    1
    73    36    35    1
    74   140   141    1
    75     7     6    1
    76     7    10    1
    77   141   143   am
    78   113   114    2
    79   144   145    1
    80    57    58    1
    81    31    32    1
    82   148   145    1
    83   148   149    1
    84    76    77    2
    85    76    75    1
    86    11    10    1
    87    61    58    1
    88    61    62    1
    89    78    80    1
    90    78    75    1
    91    35    32    1
    92    35    37    1
    93   145   146    1
    94    58    59    1
    95    32    33    1
    96    75    74    1
    97    68    69    1
    98   149   150   ar
    99   149   151   ar
   100     4     3    2
   101    74    70   am
   102    62    63   ar
   103    62    64   ar
   104   150   152   ar
   105    63    65   ar
   106    64    66   ar
   107   151   154   ar
   108   151   153   ar
   109    44    43    1
   110   154   156   ar
   111   146   147    2
   112    70    69    1
   113    70    71    2
   114    59    60    2
   115     3     2    1
   116    69    72    1
   117    33    34    2
   118   152   153   ar
   119   125   124    2
   120   153   155   ar
   121    65    67   ar
   122    66    67   ar
   123   156   157   ar
   124    43    45    1
   125    43    40    1
   126   119   120    1
   127   124   126   am
   128   124   123    1
   129   155   157   ar
   130    72    73    1
   131     2     5    1
   132     2     1    1
   133    39    40    1
   134   123   120    1
   135    40    41    1
   136   120   121    1
   137   121   122    2
   138    41    46   am
   139    41    42    2
   140    46    47    1
   141    50    47    1
   142    50    51    1
   143    47    48    1
   144    48    49    2
   145    51    53   ar
   146    51    52   ar
   147    53    55   ar
   148    52    54   ar
   149    55    56   ar
   150    54    56   ar
