@<TRIPOS>MOLECULE
tmp/4mc9B00.pdb
 105 98 0 0 0
SMALL
GASTEIGER

@<TRIPOS>ATOM
      1  N          8.8410   34.0880   -1.3020 N.3     8  ARG8       -0.1245
      2  CA         9.5980   32.8510   -1.4400 C.3     8  ARG8        0.1563
      3  C         10.4990   32.9430   -2.6730 C.2     8  ARG8        0.2260
      4  O         10.0620   33.4170   -3.7390 O.2     8  ARG8       -0.2867
      5  CB         8.6690   31.6560   -1.6270 C.3     8  ARG8        0.0307
      6  CG         7.9370   31.2370   -0.3660 C.3     8  ARG8        0.0489
      7  CD         7.2370   29.8950   -0.5750 C.3     8  ARG8        0.2205
      8  NE         6.7730   29.3370    0.7060 N.pl3   8  ARG8       -0.0865
      9  CZ         6.1610   28.1590    0.8580 C.cat   8  ARG8        0.5346
     10  NH1        5.9280   27.3780   -0.1950 N.pl3   8  ARG8        0.1354
     11  NH2        5.7880   27.7480    2.0650 N.pl3   8  ARG8        0.1354
     12  N         12.0080   25.9670   -5.0900 N.3    23  LEU23      -0.1245
     13  CA        12.4350   26.9120   -4.0790 C.3    23  LEU23       0.1561
     14  C         13.9250   26.8500   -3.8730 C.2    23  LEU23       0.2260
     15  O         14.4390   25.7430   -3.6010 O.2    23  LEU23      -0.2867
     16  CB        11.6800   26.4900   -2.8000 C.3    23  LEU23       0.0270
     17  CG        11.8380   27.2780   -1.5390 C.3    23  LEU23       0.0019
     18  CD1       11.2550   28.6760   -1.7100 C.3    23  LEU23       0.0001
     19  CD2       11.0830   26.5740   -0.4530 C.3    23  LEU23       0.0001
     20  N         16.6540   26.8870   -1.5500 N.3    25  ASP25      -0.1239
     21  CA        16.5690   26.6220   -0.1410 C.3    25  ASP25       0.1674
     22  C         17.9120   26.3660    0.5270 C.2    25  ASP25       0.2266
     23  O         18.4220   25.2210    0.5080 O.2    25  ASP25      -0.2867
     24  CB        15.6310   25.4210    0.0160 C.3    25  ASP25       0.1410
     25  CG        15.2390   25.1460    1.4220 C.2    25  ASP25       0.3668
     26  OD1       15.8450   25.7460    2.3380 O.co2  25  ASP25      -0.2456
     27  OD2       14.3210   24.3890    1.6240 O.co2  25  ASP25      -0.2456
     28  N         18.5300   26.1550    3.5740 N.3    27  GLY27      -0.1210
     29  CA        18.3760   25.2500    4.7000 C.3    27  GLY27       0.1956
     30  C         18.2850   23.7770    4.3330 C.2    27  GLY27       0.2612
     31  O         18.1870   22.9270    5.2260 O.2    27  GLY27      -0.2717
     32  N         18.2390   23.4720    3.0310 N.am   28  ALA28      -0.1965
     33  CA        18.1580   22.0910    2.5500 C.3    28  ALA28       0.1728
     34  C         19.5410   21.6410    2.1130 C.2    28  ALA28       0.2616
     35  O         20.1430   22.2280    1.2180 O.2    28  ALA28      -0.2715
     36  CB        17.2040   22.0210    1.3740 C.3    28  ALA28       0.0334
     37  N         20.0370   20.5370    2.7140 N.am   29  ASP29      -0.1957
     38  CA        21.3340   20.0230    2.2760 C.3    29  ASP29       0.1840
     39  C         21.2750   19.5030    0.8490 C.2    29  ASP29       0.2622
     40  O         22.2400   19.6240    0.0950 O.2    29  ASP29      -0.2715
     41  CB        21.7550   18.8450    3.1660 C.3    29  ASP29       0.1450
     42  CG        21.8740   19.1260    4.6530 C.2    29  ASP29       0.3671
     43  OD1       22.3200   20.2390    5.0180 O.co2  29  ASP29      -0.2456
     44  OD2       21.7250   18.1660    5.4490 O.co2  29  ASP29      -0.2456
     45  N         20.1260   18.9310    0.5040 N.am   30  ASP30      -0.1971
     46  CA        19.9240   18.2240   -0.7430 C.3    30  ASP30       0.1709
     47  C         18.7580   18.7710   -1.5270 C.2    30  ASP30       0.2293
     48  O         17.9420   19.5270   -1.0180 O.2    30  ASP30      -0.2864
     49  CB        19.7250   16.7250   -0.4410 C.3    30  ASP30       0.1436
     50  CG        20.8120   16.0790    0.4060 C.2    30  ASP30       0.3671
     51  OD1       21.9810   16.2880    0.1090 O.co2  30  ASP30      -0.2456
     52  OD2       20.4700   15.4570    1.4290 O.co2  30  ASP30      -0.2456
     53  N         15.3460   18.0300   -3.5540 N.3    32  VAL32      -0.1245
     54  CA        14.2800   17.0410   -3.5480 C.3    32  VAL32       0.1561
     55  C         13.1310   17.5650   -4.3650 C.2    32  VAL32       0.2260
     56  O         12.6720   18.7130   -4.1750 O.2    32  VAL32      -0.2867
     57  CB        13.8860   16.5770   -2.1210 C.3    32  VAL32       0.0252
     58  CG1       13.4280   17.7200   -1.2460 C.3    32  VAL32       0.0019
     59  CG2       12.8450   15.4630   -2.1510 C.3    32  VAL32       0.0019
     60  N         15.2800   11.6920    4.2750 N.3    47  ILE47      -0.1231
     61  CA        15.5430   13.0820    4.5470 C.3    47  ILE47       0.1692
     62  C         14.6700   13.5340    5.7130 C.2    47  ILE47       0.2593
     63  O         13.4390   13.3550    5.7070 O.2    47  ILE47      -0.2718
     64  CB        15.5490   13.9800    3.2890 C.3    47  ILE47       0.0266
     65  CG1       14.2630   13.7880    2.4750 C.3    47  ILE47       0.0019
     66  CG2       16.8200   13.7290    2.4270 C.3    47  ILE47       0.0020
     67  CD1       14.0040   14.8230    1.4560 C.3    47  ILE47       0.0001
     68  N         15.3480   14.1360    6.6760 N.am   48  GLY48      -0.1942
     69  CA        14.7480   14.6490    7.8870 C.3    48  GLY48       0.2014
     70  C         14.4640   16.1180    7.7080 C.2    48  GLY48       0.2639
     71  O         15.2790   16.8610    7.1660 O.2    48  GLY48      -0.2714
     72  N         13.2720   16.4930    8.1020 N.am   49  GLY49      -0.1939
     73  CA        12.8430   17.8740    8.0420 C.3    49  GLY49       0.2014
     74  C         12.0440   18.2100    9.2660 C.2    49  GLY49       0.2638
     75  O         12.1430   17.5080   10.2820 O.2    49  GLY49      -0.2714
     76  N         11.2410   19.2640    9.1810 N.am   50  ILE50      -0.1977
     77  CA        10.5000   19.7370   10.3290 C.3    50  ILE50       0.1596
     78  C          9.6070   18.7780   11.1050 C.2    50  ILE50       0.2287
     79  O          9.8070   18.6750   12.3090 O.2    50  ILE50      -0.2864
     80  CB         9.9340   21.1580   10.1650 C.3    50  ILE50       0.0276
     81  CG1       10.3310   21.9650   11.4290 C.3    50  ILE50       0.0022
     82  CG2        8.4190   21.2800    9.8660 C.3    50  ILE50       0.0022
     83  CD1        9.9680   23.3300   11.4610 C.3    50  ILE50       0.0001
     84  N          6.5620   18.4410   -0.0920 N.3    81  PRO81      -0.2102
     85  CA         5.4600   19.3920   -0.3330 C.3    81  PRO81       0.1504
     86  C          5.7290   20.4170   -1.4360 C.2    81  PRO81       0.2575
     87  O          4.7890   20.9870   -1.9830 O.2    81  PRO81      -0.2718
     88  CB         5.3080   20.1010    1.0180 C.3    81  PRO81       0.0282
     89  CG         5.8870   19.1380    2.0250 C.3    81  PRO81       0.0208
     90  CD         7.0860   18.5820    1.2790 C.3    81  PRO81       0.0893
     91  N          7.0200   20.6820   -1.7440 N.am   82  VAL82      -0.1980
     92  CA         7.4200   21.6530   -2.7490 C.3    82  VAL82       0.1595
     93  C          8.7130   21.1550   -3.3450 C.2    82  VAL82       0.2287
     94  O          9.4740   20.4600   -2.6730 O.2    82  VAL82      -0.2864
     95  CB         7.5990   23.0410   -2.0590 C.3    82  VAL82       0.0276
     96  CG1        8.7150   23.0360   -1.0350 C.3    82  VAL82       0.0022
     97  CG2        7.7890   24.1770   -3.0480 C.3    82  VAL82       0.0022
     98  N         12.4260   21.5140   -4.0410 N.3    84  ILE84      -0.1245
     99  CA        13.4710   22.1930   -3.2840 C.3    84  ILE84       0.1561
    100  C         14.8150   22.0370   -3.9470 C.2    84  ILE84       0.2260
    101  O         15.2620   20.9030   -4.1910 O.2    84  ILE84      -0.2867
    102  CB        13.5020   21.5710   -1.8620 C.3    84  ILE84       0.0252
    103  CG1       12.2280   21.9110   -1.0810 C.3    84  ILE84       0.0019
    104  CG2       14.7650   21.9280   -1.0800 C.3    84  ILE84       0.0019
    105  CD1       12.0290   21.0890    0.1750 C.3    84  ILE84       0.0001
@<TRIPOS>BOND
     1    12    13    1
     2    55    56    2
     3    55    54    1
     4   101   100    2
     5    13    14    1
     6    13    16    1
     7    98    99    1
     8   100    99    1
     9    14    15    2
    10     4     3    2
    11    53    54    1
    12    54    57    1
    13    93    92    1
    14    93    94    2
    15    99   102    1
    16    97    95    1
    17    16    17    1
    18    92    95    1
    19    92    91    1
    20     3     2    1
    21    59    57    1
    22    57    58    1
    23    95    96    1
    24    87    86    2
    25   102   103    1
    26   102   104    1
    27    91    86   am
    28    18    17    1
    29     5     2    1
    30     5     6    1
    31    20    21    1
    32    17    19    1
    33    47    48    2
    34    47    46    1
    35     2     1    1
    36    86    85    1
    37   103   105    1
    38    46    49    1
    39    46    45    1
    40     7     6    1
    41     7     8    1
    42    49    50    1
    43    85    84    1
    44    85    88    1
    45    10     9    1
    46    21    24    1
    47    21    22    1
    48    84    90    1
    49    24    25    1
    50    40    39    2
    51    51    50   ar
    52    50    52   ar
    53    45    39   am
    54    23    22    2
    55     8     9    2
    56    39    38    1
    57     9    11    1
    58    88    89    1
    59    35    34    2
    60    90    89    1
    61    36    33    1
    62    25    27   ar
    63    25    26   ar
    64    67    65    1
    65    34    33    1
    66    34    37   am
    67    38    37    1
    68    38    41    1
    69    66    64    1
    70    65    64    1
    71    33    32    1
    72    32    30   am
    73    41    42    1
    74    64    61    1
    75    28    29    1
    76    60    61    1
    77    30    29    1
    78    30    31    2
    79    61    62    1
    80    42    43   ar
    81    42    44   ar
    82    63    62    2
    83    62    68   am
    84    68    69    1
    85    71    70    2
    86    70    69    1
    87    70    72   am
    88    73    72    1
    89    73    74    1
    90    76    74   am
    91    76    77    1
    92    74    75    2
    93    82    80    1
    94    80    77    1
    95    80    81    1
    96    77    78    1
    97    78    79    2
    98    81    83    1
