@<TRIPOS>MOLECULE
tmp/4mcbB01.pdb
 161 163 0 0 0
SMALL
GASTEIGER

@<TRIPOS>ATOM
      1  N        -12.0790   29.6460    9.6020 N.3    58  PRO58      -0.2116
      2  CA       -11.6160   31.0150    9.8410 C.3    58  PRO58       0.1372
      3  C        -11.0290   31.6790    8.5990 C.2    58  PRO58       0.2244
      4  O        -10.6030   31.0070    7.6490 O.2    58  PRO58      -0.2868
      5  CB       -10.5670   30.8380   10.9390 C.3    58  PRO58       0.0268
      6  CG        -9.9920   29.4940   10.6780 C.3    58  PRO58       0.0207
      7  CD       -11.1080   28.6520   10.1080 C.3    58  PRO58       0.0892
      8  N          0.7560   36.0190   -9.4030 N.3    86  TYR86      -0.1227
      9  CA         0.1270   36.1450   -8.1020 C.3    86  TYR86       0.1736
     10  C          1.1900   35.9250   -7.0250 C.2    86  TYR86       0.2595
     11  O          1.8400   34.8680   -6.9870 O.2    86  TYR86      -0.2718
     12  CB        -1.0420   35.1720   -7.9270 C.3    86  TYR86       0.0548
     13  CG        -1.6920   35.2160   -6.5630 C.ar   86  TYR86      -0.0200
     14  CD1       -1.9770   34.0470   -5.8690 C.ar   86  TYR86      -0.0009
     15  CD2       -2.0620   36.4280   -5.9820 C.ar   86  TYR86      -0.0009
     16  CE1       -2.6010   34.0810   -4.6270 C.ar   86  TYR86       0.0417
     17  CE2       -2.6470   36.4740   -4.7200 C.ar   86  TYR86       0.0417
     18  CZ        -2.8980   35.2990   -4.0420 C.ar   86  TYR86       0.1957
     19  OH        -3.5410   35.3340   -2.8430 O.3    86  TYR86      -0.2866
     20  N          1.3930   36.9300   -6.1680 N.am   87  LEU87      -0.1966
     21  CA         2.3440   36.8180   -5.0590 C.3    87  LEU87       0.1728
     22  C          1.6380   36.0040   -3.9750 C.2    87  LEU87       0.2617
     23  O          0.5810   36.4050   -3.5060 O.2    87  LEU87      -0.2715
     24  CB         2.7960   38.2310   -4.5440 C.3    87  LEU87       0.0311
     25  CG         3.8890   39.0080   -5.3520 C.3    87  LEU87       0.0022
     26  CD1        5.1530   38.1450   -5.5950 C.3    87  LEU87       0.0001
     27  CD2        3.3480   39.5750   -6.6790 C.3    87  LEU87       0.0001
     28  N          2.1380   34.8200   -3.6210 N.am   88  SER88      -0.1936
     29  CA         1.4550   34.0350   -2.5850 C.3    88  SER88       0.2040
     30  C          2.4740   33.2900   -1.7380 C.2    88  SER88       0.2485
     31  O          3.5000   32.8800   -2.2780 O.2    88  SER88      -0.2729
     32  CB         0.4630   33.0460   -3.1930 C.3    88  SER88       0.2129
     33  OG         1.1250   32.1120   -4.0260 O.3    88  SER88      -0.2179
     34  N          2.2020   33.0720   -0.4390 N.am   89  PRO89      -0.2726
     35  CA         3.1870   32.3650    0.4020 C.3    89  PRO89       0.1402
     36  C          3.5280   30.9480   -0.0580 C.2    89  PRO89       0.2269
     37  O          4.6320   30.4900    0.2150 O.2    89  PRO89      -0.2865
     38  CB         2.5790   32.4000    1.8010 C.3    89  PRO89       0.0296
     39  CG         1.1490   32.7420    1.6180 C.3    89  PRO89       0.0237
     40  CD         1.0190   33.4900    0.3400 C.3    89  PRO89       0.0939
     41  N         -2.1430   40.0240   -2.7490 N.3   113  GLY113     -0.1210
     42  CA        -3.2710   39.6310   -1.9330 C.3   113  GLY113      0.1956
     43  C         -3.0510   39.9890   -0.4700 C.2   113  GLY113      0.2612
     44  O         -1.9070   40.1820    0.0040 O.2   113  GLY113     -0.2717
     45  N         -4.2010   40.0900    0.2260 N.am  114  ARG114     -0.1965
     46  CA        -4.3930   40.3150    1.6540 C.3   114  ARG114      0.1729
     47  C         -5.2740   39.1480    2.1150 C.2   114  ARG114      0.2616
     48  O         -5.6610   38.3060    1.2910 O.2   114  ARG114     -0.2715
     49  CB        -5.1330   41.6460    1.8790 C.3   114  ARG114      0.0348
     50  CG        -4.2830   42.8710    1.5630 C.3   114  ARG114      0.0492
     51  CD        -3.4770   43.2560    2.7550 C.3   114  ARG114      0.2205
     52  NE        -2.1250   43.6700    2.3850 N.pl3 114  ARG114     -0.0865
     53  CZ        -1.2090   44.0140    3.2760 C.cat 114  ARG114      0.5346
     54  NH1       -1.4960   43.9860    4.5710 N.pl3 114  ARG114      0.1354
     55  NH2        0.0050   44.4000    2.8800 N.pl3 114  ARG114      0.1354
     56  N         -5.6240   39.1020    3.4230 N.am  115  TYR115     -0.1960
     57  CA        -6.4730   38.0550    4.0390 C.3   115  TYR115      0.1771
     58  C         -5.8910   36.6740    3.7980 C.2   115  TYR115      0.2619
     59  O         -4.6640   36.5350    3.8010 O.2   115  TYR115     -0.2715
     60  CB        -7.9650   38.1810    3.6040 C.3   115  TYR115      0.0574
     61  CG        -8.4080   39.6200    3.5580 C.ar  115  TYR115     -0.0198
     62  CD1       -8.5680   40.2820    2.3410 C.ar  115  TYR115     -0.0009
     63  CD2       -8.5360   40.3660    4.7270 C.ar  115  TYR115     -0.0009
     64  CE1       -8.8840   41.6360    2.2880 C.ar  115  TYR115      0.0417
     65  CE2       -8.8700   41.7170    4.6880 C.ar  115  TYR115      0.0417
     66  CZ        -9.0360   42.3480    3.4650 C.ar  115  TYR115      0.1957
     67  OH        -9.3740   43.6740    3.4230 O.3   115  TYR115     -0.2866
     68  N         -6.7390   35.6620    3.5770 N.am  116  GLU116     -0.1963
     69  CA        -6.2640   34.3080    3.3140 C.3   116  GLU116      0.1733
     70  C         -5.9310   34.0880    1.8530 C.2   116  GLU116      0.2616
     71  O         -5.3510   33.0530    1.5050 O.2   116  GLU116     -0.2715
     72  CB        -7.2230   33.2290    3.8580 C.3   116  GLU116      0.0429
     73  CG        -7.1680   33.1000    5.3770 C.3   116  GLU116      0.1163
     74  CD        -5.7800   32.9360    5.9800 C.2   116  GLU116      0.3649
     75  OE1       -5.4750   33.6460    6.9640 O.co2 116  GLU116     -0.2457
     76  OE2       -4.9690   32.1570    5.4270 O.co2 116  GLU116     -0.2457
     77  N         -6.2490   35.0730    1.0190 N.am  117  GLY117     -0.1955
     78  CA        -5.8970   35.0150   -0.3860 C.3   117  GLY117      0.1869
     79  C         -7.0420   35.2350   -1.3400 C.2   117  GLY117      0.2309
     80  O         -7.9680   36.0050   -1.0650 O.2   117  GLY117     -0.2863
     81  N          4.2410   33.0110   -7.1590 N.3   131  TRP131     -0.1227
     82  CA         5.6030   33.1780   -6.6470 C.3   131  TRP131      0.1737
     83  C          5.6180   33.6700   -5.2030 C.2   131  TRP131      0.2596
     84  O          4.7860   34.4860   -4.7970 O.2   131  TRP131     -0.2718
     85  CB         6.3970   34.1590   -7.5210 C.3   131  TRP131      0.0564
     86  CG         6.7300   33.6800   -8.9010 C.ar  131  TRP131      0.0003
     87  CD1        5.9040   33.6780   -9.9870 C.ar  131  TRP131      0.0946
     88  CD2        8.0030   33.1950   -9.3650 C.ar  131  TRP131      0.0152
     89  NE1        6.5730   33.2080  -11.0910 N.ar  131  TRP131     -0.2442
     90  CE2        7.8650   32.9120  -10.7410 C.ar  131  TRP131      0.0810
     91  CE3        9.2430   32.9640   -8.7510 C.ar  131  TRP131      0.0012
     92  CZ2        8.9260   32.4270  -11.5190 C.ar  131  TRP131      0.0191
     93  CZ3       10.2910   32.4680   -9.5180 C.ar  131  TRP131      0.0001
     94  CH2       10.1350   32.2200  -10.8870 C.ar  131  TRP131      0.0015
     95  N          6.5920   33.1840   -4.4390 N.am  132  SER132     -0.1938
     96  CA         6.8550   33.5280   -3.0450 C.3   132  SER132      0.2055
     97  C          8.2740   34.1050   -3.0210 C.2   132  SER132      0.2643
     98  O          9.0500   33.8080   -3.9270 O.2   132  SER132     -0.2714
     99  CB         6.8130   32.2530   -2.1990 C.3   132  SER132      0.2130
    100  OG         7.3170   32.4590   -0.8890 O.3   132  SER132     -0.2179
    101  N          8.6190   34.9390   -2.0190 N.am  133  ILE133     -0.1963
    102  CA        10.0040   35.4870   -1.9330 C.3   133  ILE133      0.1727
    103  C         10.8350   34.8020   -0.8320 C.2   133  ILE133      0.2616
    104  O         12.0070   35.1250   -0.6510 O.2   133  ILE133     -0.2715
    105  CB        10.0740   37.0350   -1.8130 C.3   133  ILE133      0.0290
    106  CG1        9.3880   37.5470   -0.4940 C.3   133  ILE133      0.0022
    107  CG2        9.5340   37.7140   -3.1050 C.3   133  ILE133      0.0023
    108  CD1        9.9150   38.9480    0.0210 C.3   133  ILE133      0.0001
    109  N         10.2220   33.8860   -0.0930 N.am  134  GLY134     -0.1955
    110  CA        10.9300   33.1960    0.9840 C.3   134  GLY134      0.1869
    111  C         10.0390   32.4870    1.9700 C.2   134  GLY134      0.2309
    112  O          8.8310   32.7530    2.0390 O.2   134  GLY134     -0.2863
    113  N          9.0210   32.6010    5.0190 N.3   136  TYR136     -0.1227
    114  CA         8.6950   33.4340    6.1660 C.3   136  TYR136      0.1736
    115  C          7.3270   34.0440    5.9530 C.2   136  TYR136      0.2595
    116  O          6.9130   34.2430    4.8110 O.2   136  TYR136     -0.2718
    117  CB         9.7670   34.5060    6.4550 C.3   136  TYR136      0.0548
    118  CG        10.3930   35.1500    5.2380 C.ar  136  TYR136     -0.0200
    119  CD1        9.7630   36.2050    4.5800 C.ar  136  TYR136     -0.0009
    120  CD2       11.6260   34.7240    4.7590 C.ar  136  TYR136     -0.0009
    121  CE1       10.3370   36.8010    3.4560 C.ar  136  TYR136      0.0417
    122  CE2       12.2260   35.3360    3.6610 C.ar  136  TYR136      0.0417
    123  CZ        11.5780   36.3780    3.0140 C.ar  136  TYR136      0.1957
    124  OH        12.1710   36.9690    1.9340 O.3   136  TYR136     -0.2866
    125  N          6.6220   34.3170    7.0410 N.am  137  VAL137     -0.1966
    126  CA         5.2670   34.8380    6.9850 C.3   137  VAL137      0.1727
    127  C          5.2490   36.3750    7.0280 C.2   137  VAL137      0.2616
    128  O          5.7650   36.9770    7.9640 O.2   137  VAL137     -0.2715
    129  CB         4.3640   34.2090    8.0860 C.3   137  VAL137      0.0290
    130  CG1        2.9160   34.6770    7.9510 C.3   137  VAL137      0.0023
    131  CG2        4.4320   32.6740    8.0510 C.3   137  VAL137      0.0023
    132  N          4.6220   36.9770    6.0220 N.am  138  LEU138     -0.1963
    133  CA         4.4220   38.4180    5.8660 C.3   138  LEU138      0.1728
    134  C          2.9260   38.7390    5.9530 C.2   138  LEU138      0.2617
    135  O          2.1150   37.8190    5.9380 O.2   138  LEU138     -0.2715
    136  CB         5.0060   38.9090    4.5300 C.3   138  LEU138      0.0311
    137  CG         6.5030   38.6550    4.3110 C.3   138  LEU138      0.0022
    138  CD1        6.9300   39.1340    2.9450 C.3   138  LEU138      0.0001
    139  CD2        7.3710   39.2960    5.4170 C.3   138  LEU138      0.0001
    140  N          2.5600   40.0300    6.0540 N.am  139  THR139     -0.1937
    141  CA         1.1530   40.4530    6.1680 C.3   139  THR139      0.2028
    142  C          0.4420   40.5930    4.8040 C.2   139  THR139      0.2643
    143  O         -0.7750   40.7950    4.7580 O.2   139  THR139     -0.2714
    144  CB         1.0560   41.7640    6.9650 C.3   139  THR139      0.1808
    145  OG1        1.7220   42.8010    6.2320 O.3   139  THR139     -0.2208
    146  CG2        1.6250   41.6470    8.3670 C.3   139  THR139      0.0379
    147  N          1.1990   40.5280    3.7200 N.am  140  GLY140     -0.1939
    148  CA         0.6400   40.6770    2.3760 C.3   140  GLY140      0.2014
    149  C          1.6630   40.5160    1.2720 C.2   140  GLY140      0.2639
    150  O          2.8500   40.3140    1.5460 O.2   140  GLY140     -0.2714
    151  N          1.1990   40.6480    0.0340 N.am  141  GLY141     -0.1954
    152  CA         2.0330   40.4670   -1.1480 C.3   141  GLY141      0.1869
    153  C          2.8020   41.6770   -1.6520 C.2   141  GLY141      0.2309
    154  O          3.5800   41.5520   -2.5990 O.2   141  GLY141     -0.2863
    155  N          6.7910   41.4740   -1.1550 N.3   144  PRO144     -0.2116
    156  CA         7.2380   40.5250   -2.1950 C.3   144  PRO144      0.1372
    157  C          7.2060   41.0730   -3.6300 C.2   144  PRO144      0.2244
    158  O          8.1760   40.8830   -4.3620 O.2   144  PRO144     -0.2868
    159  CB         6.2530   39.3580   -2.0270 C.3   144  PRO144      0.0268
    160  CG         5.9440   39.3770   -0.5750 C.3   144  PRO144      0.0207
    161  CD         5.7650   40.8410   -0.2920 C.3   144  PRO144      0.0892
@<TRIPOS>BOND
     1    92    94   ar
     2    92    90   ar
     3    89    90   ar
     4    89    87   ar
     5    94    93   ar
     6    90    88   ar
     7    87    86   ar
     8    93    91   ar
     9     8     9    1
    10    88    86   ar
    11    88    91   ar
    12    86    85    1
    13     9    12    1
    14     9    10    1
    15    12    13    1
    16    85    82    1
    17    81    82    1
    18    10    11    2
    19    10    20   am
    20    27    25    1
    21    82    83    1
    22    13    15   ar
    23    13    14   ar
    24    20    21    1
    25    15    17   ar
    26    14    16   ar
    27    26    25    1
    28    25    24    1
    29    83    84    2
    30    83    95   am
    31    21    24    1
    32    21    22    1
    33    17    18   ar
    34    16    18   ar
    35    95    96    1
    36   158   157    2
    37    18    19    1
    38    33    32    1
    39    22    28   am
    40    22    23    2
    41    98    97    2
    42   157   156    1
    43    28    29    1
    44    32    29    1
    45   107   105    1
    46    96    97    1
    47    96    99    1
    48    97   101   am
    49    41    42    1
    50   154   153    2
    51    29    30    1
    52    31    30    2
    53    99   100    1
    54   156   159    1
    55   156   155    1
    56   159   160    1
    57   101   102    1
    58    42    43    1
    59   102   105    1
    60   102   103    1
    61   105   106    1
    62    30    34   am
    63   153   152    1
    64    79    80    2
    65    79    78    1
    66   155   161    1
    67   152   151    1
    68   103   104    2
    69   103   109   am
    70   160   161    1
    71   106   108    1
    72    43    44    2
    73    43    45   am
    74    34    40    1
    75    34    35    1
    76    78    77    1
    77   109   110    1
    78    36    37    2
    79    36    35    1
    80   151   149   am
    81    45    46    1
    82    40    39    1
    83    35    38    1
    84   110   111    1
    85    77    70   am
    86   149   150    2
    87   149   148    1
    88    48    47    2
    89    71    70    2
    90    50    49    1
    91    50    51    1
    92    39    38    1
    93    46    49    1
    94    46    47    1
    95    70    69    1
    96   124   123    1
    97   111   112    2
    98    47    56   am
    99    64    62   ar
   100    64    66   ar
   101    62    61   ar
   102   148   147    1
   103    52    51    1
   104    52    53    2
   105    55    53    1
   106   138   137    1
   107   123   121   ar
   108   123   122   ar
   109    53    54    1
   110    69    68    1
   111    69    72    1
   112    67    66    1
   113    56    57    1
   114   121   119   ar
   115    66    65   ar
   116    61    60    1
   117    61    63   ar
   118    68    58   am
   119    60    57    1
   120   122   120   ar
   121   147   142   am
   122    58    59    2
   123    58    57    1
   124    72    73    1
   125   137   136    1
   126   137   139    1
   127   136   133    1
   128   119   118   ar
   129    65    63   ar
   130   143   142    2
   131   120   118   ar
   132   142   141    1
   133   116   115    2
   134   113   114    1
   135   118   117    1
   136    73    74    1
   137    76    74   ar
   138   133   134    1
   139   133   132    1
   140   135   134    2
   141   134   140   am
   142   115   114    1
   143   115   125   am
   144    74    75   ar
   145   132   127   am
   146   140   141    1
   147   114   117    1
   148   141   144    1
   149   145   144    1
   150   144   146    1
   151   126   127    1
   152   126   125    1
   153   126   129    1
   154   127   128    2
   155     4     3    2
   156   130   129    1
   157   131   129    1
   158     3     2    1
   159     1     2    1
   160     1     7    1
   161     2     5    1
   162     7     6    1
   163     6     5    1
