@<TRIPOS>MOLECULE
tmp/4mccB00.pdb
 163 165 0 0 0
SMALL
GASTEIGER

@<TRIPOS>ATOM
      1  N          0.5840   36.1200   -9.3770 N.3    86  TYR86      -0.1227
      2  CA        -0.0510   36.2500   -8.0780 C.3    86  TYR86       0.1736
      3  C          1.0350   36.0680   -6.9920 C.2    86  TYR86       0.2595
      4  O          1.6970   35.0250   -6.9550 O.2    86  TYR86      -0.2718
      5  CB        -1.1910   35.2280   -7.8970 C.3    86  TYR86       0.0548
      6  CG        -1.8320   35.2630   -6.5280 C.ar   86  TYR86      -0.0200
      7  CD1       -2.0460   34.0940   -5.8090 C.ar   86  TYR86      -0.0009
      8  CD2       -2.2420   36.4650   -5.9600 C.ar   86  TYR86      -0.0009
      9  CE1       -2.6330   34.1210   -4.5480 C.ar   86  TYR86       0.0417
     10  CE2       -2.8220   36.5040   -4.6960 C.ar   86  TYR86       0.0417
     11  CZ        -2.9980   35.3320   -3.9910 C.ar   86  TYR86       0.1957
     12  OH        -3.5840   35.3780   -2.7630 O.3    86  TYR86      -0.2866
     13  N          1.2310   37.0730   -6.1300 N.am   87  LEU87      -0.1966
     14  CA         2.2110   36.9750   -5.0450 C.3    87  LEU87       0.1728
     15  C          1.5210   36.1640   -3.9510 C.2    87  LEU87       0.2617
     16  O          0.5070   36.6020   -3.4140 O.2    87  LEU87      -0.2715
     17  CB         2.6690   38.3830   -4.5410 C.3    87  LEU87       0.0311
     18  CG         3.7800   39.1420   -5.3410 C.3    87  LEU87       0.0022
     19  CD1        5.0450   38.2790   -5.5570 C.3    87  LEU87       0.0001
     20  CD2        3.2700   39.7000   -6.6620 C.3    87  LEU87       0.0001
     21  N          2.0040   34.9520   -3.6710 N.am   88  SER88      -0.1936
     22  CA         1.3490   34.0620   -2.6980 C.3    88  SER88       0.2040
     23  C          2.3820   33.4090   -1.7710 C.2    88  SER88       0.2485
     24  O          3.4480   33.0480   -2.2690 O.2    88  SER88      -0.2729
     25  CB         0.5700   32.9770   -3.4440 C.3    88  SER88       0.2129
     26  OG         0.3500   31.8170   -2.6580 O.3    88  SER88      -0.2179
     27  N          2.0740   33.1840   -0.4690 N.am   89  PRO89      -0.2715
     28  CA         3.0650   32.5510    0.4280 C.3    89  PRO89       0.1536
     29  C          3.4050   31.1180    0.0510 C.2    89  PRO89       0.2598
     30  O          4.4650   30.6300    0.4440 O.2    89  PRO89      -0.2715
     31  CB         2.4100   32.6250    1.8100 C.3    89  PRO89       0.0310
     32  CG         0.9760   32.7750    1.5440 C.3    89  PRO89       0.0237
     33  CD         0.8400   33.5270    0.2680 C.3    89  PRO89       0.0939
     34  N          2.5350   30.4640   -0.7470 N.am   90  GLN90      -0.1978
     35  CA         2.7880   29.0980   -1.1910 C.3    90  GLN90       0.1601
     36  C          3.2060   28.9570   -2.6620 C.2    90  GLN90       0.2287
     37  O          3.2750   27.8300   -3.1600 O.2    90  GLN90      -0.2864
     38  CB         1.6270   28.1740   -0.8120 C.3    90  GLN90       0.0394
     39  CG         1.5620   27.9020    0.6910 C.3    90  GLN90       0.0908
     40  CD         0.3320   27.1490    1.1300 C.2    90  GLN90       0.2608
     41  OE1        0.1620   26.8420    2.3180 O.2    90  GLN90      -0.2717
     42  NE2       -0.5520   26.8280    0.1910 N.am   90  GLN90      -0.0878
     43  N         -2.3100   39.9670   -2.7710 N.3   113  GLY113     -0.1210
     44  CA        -3.4470   39.5020   -1.9970 C.3   113  GLY113      0.1956
     45  C         -3.2730   39.8570   -0.5290 C.2   113  GLY113      0.2612
     46  O         -2.1310   40.0270   -0.0530 O.2   113  GLY113     -0.2717
     47  N         -4.4200   39.9880    0.1810 N.am  114  ARG114     -0.1965
     48  CA        -4.5610   40.2350    1.6230 C.3   114  ARG114      0.1729
     49  C         -5.5340   39.1260    2.1300 C.2   114  ARG114      0.2616
     50  O         -5.9820   38.2840    1.3290 O.2   114  ARG114     -0.2715
     51  CB        -5.0800   41.6710    1.9100 C.3   114  ARG114      0.0348
     52  CG        -4.0390   42.7930    1.5980 C.3   114  ARG114      0.0492
     53  CD        -3.1490   43.1100    2.7790 C.3   114  ARG114      0.2205
     54  NE        -1.8590   43.6990    2.4030 N.pl3 114  ARG114     -0.0865
     55  CZ        -0.9570   44.1120    3.2920 C.cat 114  ARG114      0.5346
     56  NH1       -1.2030   44.0110    4.5940 N.pl3 114  ARG114      0.1354
     57  NH2        0.2020   44.6330    2.8850 N.pl3 114  ARG114      0.1354
     58  N         -5.8460   39.1060    3.4490 N.am  115  TYR115     -0.1960
     59  CA        -6.7180   38.0860    4.0790 C.3   115  TYR115      0.1771
     60  C         -6.1510   36.6760    3.8640 C.2   115  TYR115      0.2619
     61  O         -4.9270   36.5340    3.8490 O.2   115  TYR115     -0.2715
     62  CB        -8.2120   38.2340    3.6510 C.3   115  TYR115      0.0574
     63  CG        -8.6810   39.6680    3.6860 C.ar  115  TYR115     -0.0198
     64  CD1       -8.8170   40.4080    2.5110 C.ar  115  TYR115     -0.0009
     65  CD2       -8.9050   40.3180    4.8980 C.ar  115  TYR115     -0.0009
     66  CE1       -9.1690   41.7560    2.5410 C.ar  115  TYR115      0.0417
     67  CE2       -9.2930   41.6570    4.9390 C.ar  115  TYR115      0.0417
     68  CZ        -9.4160   42.3750    3.7570 C.ar  115  TYR115      0.1957
     69  OH        -9.7980   43.6950    3.7970 O.3   115  TYR115     -0.2866
     70  N         -7.0050   35.6420    3.6900 N.am  116  GLU116     -0.1963
     71  CA        -6.5190   34.2760    3.4510 C.3   116  GLU116      0.1733
     72  C         -6.1690   33.9970    1.9950 C.2   116  GLU116      0.2616
     73  O         -5.6790   32.9060    1.6830 O.2   116  GLU116     -0.2715
     74  CB        -7.4750   33.1930    3.9990 C.3   116  GLU116      0.0429
     75  CG        -7.5390   33.1050    5.5170 C.3   116  GLU116      0.1163
     76  CD        -6.2160   33.1030    6.2610 C.2   116  GLU116      0.3649
     77  OE1       -6.0740   33.9180    7.2010 O.co2 116  GLU116     -0.2457
     78  OE2       -5.3090   32.3220    5.8850 O.co2 116  GLU116     -0.2457
     79  N         -6.3840   34.9800    1.1260 N.am  117  GLY117     -0.1955
     80  CA        -6.0490   34.8280   -0.2770 C.3   117  GLY117      0.1869
     81  C         -7.1920   35.1260   -1.2210 C.2   117  GLY117      0.2309
     82  O         -8.1060   35.8920   -0.8980 O.2   117  GLY117     -0.2863
     83  N          4.1050   33.1410   -7.1290 N.3   131  TRP131     -0.1227
     84  CA         5.4650   33.2920   -6.6100 C.3   131  TRP131      0.1737
     85  C          5.4920   33.7920   -5.1740 C.2   131  TRP131      0.2596
     86  O          4.6850   34.6370   -4.7890 O.2   131  TRP131     -0.2718
     87  CB         6.2790   34.2650   -7.4800 C.3   131  TRP131      0.0564
     88  CG         6.6240   33.7780   -8.8510 C.ar  131  TRP131      0.0003
     89  CD1        5.8290   33.8100   -9.9560 C.ar  131  TRP131      0.0946
     90  CD2        7.9050   33.3120   -9.2910 C.ar  131  TRP131      0.0152
     91  NE1        6.5220   33.3490  -11.0520 N.ar  131  TRP131     -0.2442
     92  CE2        7.7990   33.0370  -10.6710 C.ar  131  TRP131      0.0810
     93  CE3        9.1250   33.0560   -8.6440 C.ar  131  TRP131      0.0012
     94  CZ2        8.8750   32.5490  -11.4230 C.ar  131  TRP131      0.0191
     95  CZ3       10.1890   32.5610   -9.3900 C.ar  131  TRP131      0.0001
     96  CH2       10.0600   32.3150  -10.7610 C.ar  131  TRP131      0.0015
     97  N          6.4810   33.3100   -4.4060 N.am  132  SER132     -0.1938
     98  CA         6.7660   33.6580   -3.0180 C.3   132  SER132      0.2055
     99  C          8.1880   34.2160   -2.9960 C.2   132  SER132      0.2643
    100  O          8.9690   33.8730   -3.8780 O.2   132  SER132     -0.2714
    101  CB         6.7170   32.3940   -2.1570 C.3   132  SER132      0.2130
    102  OG         7.1400   32.6410   -0.8260 O.3   132  SER132     -0.2179
    103  N          8.5390   35.0550   -1.9880 N.am  133  ILE133     -0.1963
    104  CA         9.9170   35.5970   -1.8550 C.3   133  ILE133      0.1727
    105  C         10.7640   34.8830   -0.7750 C.2   133  ILE133      0.2616
    106  O         11.9340   35.2320   -0.5670 O.2   133  ILE133     -0.2715
    107  CB         9.9720   37.1450   -1.7120 C.3   133  ILE133      0.0290
    108  CG1        9.2650   37.6310   -0.4140 C.3   133  ILE133      0.0022
    109  CG2        9.4590   37.8340   -2.9910 C.3   133  ILE133      0.0023
    110  CD1        9.7890   38.9740    0.1250 C.3   133  ILE133      0.0001
    111  N         10.1660   33.9150   -0.0930 N.am  134  GLY134     -0.1955
    112  CA        10.8530   33.1500    0.9410 C.3   134  GLY134      0.1869
    113  C          9.9250   32.4530    1.9120 C.2   134  GLY134      0.2309
    114  O          8.7240   32.7600    1.9760 O.2   134  GLY134     -0.2863
    115  N          8.8930   32.5780    4.9930 N.3   136  TYR136     -0.1227
    116  CA         8.5730   33.4180    6.1400 C.3   136  TYR136      0.1736
    117  C          7.2080   34.0480    5.9140 C.2   136  TYR136      0.2595
    118  O          6.7920   34.2080    4.7660 O.2   136  TYR136     -0.2718
    119  CB         9.6580   34.4720    6.4320 C.3   136  TYR136      0.0548
    120  CG        10.2510   35.1550    5.2200 C.ar  136  TYR136     -0.0200
    121  CD1        9.6400   36.2730    4.6550 C.ar  136  TYR136     -0.0009
    122  CD2       11.4630   34.7360    4.6860 C.ar  136  TYR136     -0.0009
    123  CE1       10.1970   36.9220    3.5530 C.ar  136  TYR136      0.0417
    124  CE2       12.0400   35.3880    3.6000 C.ar  136  TYR136      0.0417
    125  CZ        11.4010   36.4820    3.0340 C.ar  136  TYR136      0.1957
    126  OH        11.9640   37.1020    1.9470 O.3   136  TYR136     -0.2866
    127  N          6.5110   34.3730    7.0010 N.am  137  VAL137     -0.1966
    128  CA         5.1580   34.9080    6.9410 C.3   137  VAL137      0.1727
    129  C          5.1430   36.4480    7.0020 C.2   137  VAL137      0.2616
    130  O          5.6620   37.0450    7.9480 O.2   137  VAL137     -0.2715
    131  CB         4.2370   34.2570    8.0200 C.3   137  VAL137      0.0290
    132  CG1        2.7910   34.7370    7.8740 C.3   137  VAL137      0.0023
    133  CG2        4.2940   32.7230    7.9460 C.3   137  VAL137      0.0023
    134  N          4.5150   37.0570    5.9990 N.am  138  LEU138     -0.1963
    135  CA         4.3230   38.4970    5.8970 C.3   138  LEU138      0.1728
    136  C          2.8250   38.8420    6.0050 C.2   138  LEU138      0.2617
    137  O          2.0020   37.9370    6.0020 O.2   138  LEU138     -0.2715
    138  CB         4.9120   39.0240    4.5830 C.3   138  LEU138      0.0311
    139  CG         6.4090   38.7690    4.3420 C.3   138  LEU138      0.0022
    140  CD1        6.8270   39.2940    2.9880 C.3   138  LEU138      0.0001
    141  CD2        7.2770   39.3850    5.4490 C.3   138  LEU138      0.0001
    142  N          2.4780   40.1400    6.1240 N.am  139  THR139     -0.1937
    143  CA         1.0810   40.5820    6.2500 C.3   139  THR139      0.2028
    144  C          0.3560   40.6850    4.8930 C.2   139  THR139      0.2643
    145  O         -0.8710   40.8290    4.8560 O.2   139  THR139     -0.2714
    146  CB         0.9850   41.8960    7.0380 C.3   139  THR139      0.1808
    147  OG1        1.6400   42.9530    6.3130 O.3   139  THR139     -0.2208
    148  CG2        1.5280   41.7660    8.4570 C.3   139  THR139      0.0379
    149  N          1.1100   40.6190    3.8040 N.am  140  GLY140     -0.1939
    150  CA         0.5610   40.7430    2.4560 C.3   140  GLY140      0.2014
    151  C          1.5970   40.6120    1.3650 C.2   140  GLY140      0.2639
    152  O          2.7860   40.4360    1.6430 O.2   140  GLY140     -0.2714
    153  N          1.1340   40.7100    0.1310 N.am  141  GLY141     -0.1954
    154  CA         1.9710   40.5380   -1.0510 C.3   141  GLY141      0.1869
    155  C          2.6840   41.7720   -1.5640 C.2   141  GLY141      0.2309
    156  O          3.4370   41.6720   -2.5360 O.2   141  GLY141     -0.2863
    157  N          6.6690   41.5490   -1.1250 N.3   144  PRO144     -0.2116
    158  CA         7.1160   40.6120   -2.1710 C.3   144  PRO144      0.1372
    159  C          7.0670   41.1810   -3.5890 C.2   144  PRO144      0.2244
    160  O          8.0200   40.9750   -4.3390 O.2   144  PRO144     -0.2868
    161  CB         6.1220   39.4540   -2.0280 C.3   144  PRO144      0.0268
    162  CG         5.7970   39.4530   -0.5890 C.3   144  PRO144      0.0207
    163  CD         5.6520   40.9100   -0.2650 C.3   144  PRO144      0.0892
@<TRIPOS>BOND
     1    94    96   ar
     2    94    92   ar
     3    91    92   ar
     4    91    89   ar
     5    96    95   ar
     6    92    90   ar
     7    89    88   ar
     8    95    93   ar
     9     1     2    1
    10    90    88   ar
    11    90    93   ar
    12    88    87    1
    13     2     5    1
    14     2     3    1
    15     5     6    1
    16    87    84    1
    17    83    84    1
    18     3     4    2
    19     3    13   am
    20    20    18    1
    21    84    85    1
    22     6     8   ar
    23     6     7   ar
    24    13    14    1
    25     8    10   ar
    26     7     9   ar
    27    19    18    1
    28    18    17    1
    29    85    86    2
    30    85    97   am
    31    14    17    1
    32    14    15    1
    33    10    11   ar
    34     9    11   ar
    35    97    98    1
    36   160   159    2
    37    11    12    1
    38    15    21   am
    39    15    16    2
    40   100    99    2
    41    21    22    1
    42   159   158    1
    43    25    22    1
    44    25    26    1
    45    37    36    2
    46    98    99    1
    47    98   101    1
    48    99   103   am
    49   109   107    1
    50    43    44    1
    51    22    23    1
    52    36    35    1
    53   156   155    2
    54    24    23    2
    55   158   161    1
    56   158   157    1
    57   101   102    1
    58   161   162    1
    59    44    45    1
    60   103   104    1
    61   104   107    1
    62   104   105    1
    63    23    27   am
    64   107   108    1
    65   155   154    1
    66    81    82    2
    67    81    80    1
    68    35    38    1
    69    35    34    1
    70   157   163    1
    71   154   153    1
    72    38    39    1
    73   105   106    2
    74   105   111   am
    75    34    29   am
    76   162   163    1
    77    45    46    2
    78    45    47   am
    79    27    33    1
    80    27    28    1
    81   108   110    1
    82    80    79    1
    83   111   112    1
    84    29    28    1
    85    29    30    2
    86   153   151   am
    87    47    48    1
    88    42    40   am
    89    33    32    1
    90    28    31    1
    91    39    40    1
    92   112   113    1
    93    79    72   am
    94    40    41    2
    95    50    49    2
    96   151   152    2
    97   151   150    1
    98    32    31    1
    99    52    51    1
   100    52    53    1
   101    48    51    1
   102    48    49    1
   103    73    72    2
   104   113   114    2
   105   126   125    1
   106    72    71    1
   107    49    58   am
   108    54    53    1
   109    54    55    2
   110   150   149    1
   111    64    66   ar
   112    64    63   ar
   113    66    68   ar
   114    57    55    1
   115   140   139    1
   116   125   123   ar
   117   125   124   ar
   118    55    56    1
   119    58    59    1
   120    71    70    1
   121    71    74    1
   122   123   121   ar
   123   124   122   ar
   124    62    63    1
   125    62    59    1
   126    63    65   ar
   127    70    60   am
   128    68    69    1
   129    68    67   ar
   130   149   144   am
   131    61    60    2
   132    60    59    1
   133    74    75    1
   134   139   138    1
   135   139   141    1
   136   138   135    1
   137   121   120   ar
   138   122   120   ar
   139   118   117    2
   140   145   144    2
   141   144   143    1
   142    65    67   ar
   143   115   116    1
   144   120   119    1
   145    75    76    1
   146    78    76   ar
   147   135   134    1
   148   135   136    1
   149   117   116    1
   150   117   127   am
   151   134   129   am
   152   137   136    2
   153   136   142   am
   154   142   143    1
   155   116   119    1
   156   143   146    1
   157    76    77   ar
   158   147   146    1
   159   128   127    1
   160   128   129    1
   161   128   131    1
   162   129   130    2
   163   146   148    1
   164   132   131    1
   165   133   131    1
