@<TRIPOS>MOLECULE
tmp/4mcdA00.pdb
 154 156 0 0 0
SMALL
GASTEIGER

@<TRIPOS>ATOM
      1  N         29.2310   69.5210   73.6290 N.3    86  TYR86      -0.1227
      2  CA        28.1560   68.5370   73.6550 C.3    86  TYR86       0.1736
      3  C         27.2890   68.7930   72.4320 C.2    86  TYR86       0.2595
      4  O         26.8100   69.9150   72.2370 O.2    86  TYR86      -0.2718
      5  CB        27.3020   68.6230   74.9170 C.3    86  TYR86       0.0548
      6  CG        26.1900   67.5890   74.9650 C.ar   86  TYR86      -0.0200
      7  CD1       24.8770   67.9550   75.2720 C.ar   86  TYR86      -0.0009
      8  CD2       26.4420   66.2510   74.6730 C.ar   86  TYR86      -0.0009
      9  CE1       23.8580   67.0210   75.3020 C.ar   86  TYR86       0.0417
     10  CE2       25.4130   65.3030   74.7050 C.ar   86  TYR86       0.0417
     11  CZ        24.1300   65.7120   75.0130 C.ar   86  TYR86       0.1957
     12  OH        23.1190   64.7990   75.0400 O.3    86  TYR86      -0.2866
     13  N         27.0910   67.7650   71.6130 N.am   87  LEU87      -0.1966
     14  CA        26.1930   67.8870   70.4680 C.3    87  LEU87       0.1728
     15  C         24.7620   67.6260   70.9230 C.2    87  LEU87       0.2617
     16  O         24.4850   66.5680   71.5030 O.2    87  LEU87      -0.2715
     17  CB        26.5760   66.9010   69.3520 C.3    87  LEU87       0.0311
     18  CG        27.8500   67.1270   68.5260 C.3    87  LEU87       0.0022
     19  CD1       27.9260   68.5640   67.9900 C.3    87  LEU87       0.0001
     20  CD2       29.0700   66.7750   69.2920 C.3    87  LEU87       0.0001
     21  N         23.8540   68.5750   70.6810 N.am   88  SER88      -0.1936
     22  CA        22.4550   68.3670   71.0470 C.3    88  SER88       0.2040
     23  C         21.5050   69.2690   70.2850 C.2    88  SER88       0.2489
     24  O         21.8930   70.3250   69.8140 O.2    88  SER88      -0.2729
     25  CB        22.2220   68.5640   72.5600 C.3    88  SER88       0.2129
     26  OG        21.5980   69.8130   72.8270 O.3    88  SER88      -0.2179
     27  N         20.2400   68.8520   70.1830 N.am   89  PRO89      -0.2650
     28  CA        19.2770   69.6780   69.4630 C.3    89  PRO89       0.1628
     29  C         18.9830   71.0160   70.1530 C.2    89  PRO89       0.2315
     30  O         18.4550   71.9090   69.5090 O.2    89  PRO89      -0.2861
     31  CB        18.0230   68.8000   69.3690 C.2    89  PRO89      -0.0016
     32  CG        18.2980   67.5650   70.1200 C.2    89  PRO89      -0.0072
     33  CD        19.6480   67.6170   70.7270 C.3    89  PRO89       0.1203
     34  N         25.9450   61.9930   72.7190 N.3   113  GLY113     -0.1210
     35  CA        24.8480   61.4730   73.5190 C.3   113  GLY113      0.1956
     36  C         24.0870   60.3600   72.8320 C.2   113  GLY113      0.2612
     37  O         24.0770   60.2600   71.6170 O.2   113  GLY113     -0.2717
     38  N         23.4790   59.5050   73.6460 N.am  114  ARG114     -0.1965
     39  CA        22.6060   58.4330   73.1980 C.3   114  ARG114      0.1729
     40  C         21.4350   58.4780   74.1840 C.2   114  ARG114      0.2616
     41  O         21.4460   59.2910   75.1330 O.2   114  ARG114     -0.2715
     42  CB        23.3280   57.0780   73.2110 C.3   114  ARG114      0.0348
     43  CG        24.2700   56.8600   72.0000 C.3   114  ARG114      0.0492
     44  CD        23.4630   56.3130   70.8370 C.3   114  ARG114      0.2205
     45  NE        24.0900   56.5490   69.5510 N.pl3 114  ARG114     -0.0865
     46  CZ        23.6810   55.9950   68.4140 C.cat 114  ARG114      0.5346
     47  NH1       22.6680   55.1220   68.4000 N.pl3 114  ARG114      0.1354
     48  NH2       24.3190   56.2890   67.2880 N.pl3 114  ARG114      0.1354
     49  N         20.4110   57.6800   73.9050 N.am  115  TYR115     -0.1960
     50  CA        19.1950   57.6510   74.7100 C.3   115  TYR115      0.1771
     51  C         18.5590   59.0590   74.7820 C.2   115  TYR115      0.2619
     52  O         18.4990   59.7610   73.7600 O.2   115  TYR115     -0.2715
     53  CB        19.5200   57.0340   76.0880 C.3   115  TYR115      0.0574
     54  CG        20.5220   55.8970   76.0480 C.ar  115  TYR115     -0.0198
     55  CD1       21.7190   55.9650   76.7710 C.ar  115  TYR115     -0.0009
     56  CD2       20.2960   54.7590   75.2910 C.ar  115  TYR115     -0.0009
     57  CE1       22.6460   54.9290   76.7490 C.ar  115  TYR115      0.0417
     58  CE2       21.2390   53.7130   75.2570 C.ar  115  TYR115      0.0417
     59  CZ        22.4040   53.8110   76.0040 C.ar  115  TYR115      0.1957
     60  OH        23.3490   52.8000   75.9930 O.3   115  TYR115     -0.2866
     61  N         18.0860   59.4960   75.9490 N.am  116  GLU116     -0.1963
     62  CA        17.4950   60.8400   76.0600 C.3   116  GLU116      0.1733
     63  C         18.5350   61.9420   76.2840 C.2   116  GLU116      0.2616
     64  O         18.1790   63.1270   76.3970 O.2   116  GLU116     -0.2715
     65  CB        16.4370   60.8810   77.1780 C.3   116  GLU116      0.0429
     66  CG        15.3220   59.8580   77.0270 C.3   116  GLU116      0.1163
     67  CD        14.5950   59.9600   75.6850 C.2   116  GLU116      0.3649
     68  OE1       14.4460   58.9170   75.0110 O.co2 116  GLU116     -0.2457
     69  OE2       14.2010   61.0840   75.2880 O.co2 116  GLU116     -0.2457
     70  N         19.8090   61.5700   76.3710 N.am  117  GLY117     -0.1955
     71  CA        20.8910   62.5410   76.4210 C.3   117  GLY117      0.1869
     72  C         21.6600   62.4230   77.7220 C.2   117  GLY117      0.2309
     73  O         21.8050   61.3330   78.2790 O.2   117  GLY117     -0.2863
     74  N         26.1190   72.4540   70.5060 N.3   131  TRP131     -0.1227
     75  CA        25.8500   72.6610   69.0800 C.3   131  TRP131      0.1737
     76  C         24.8950   71.6000   68.5310 C.2   131  TRP131      0.2596
     77  O         24.9640   70.4520   68.9250 O.2   131  TRP131     -0.2718
     78  CB        27.1530   72.5980   68.2950 C.3   131  TRP131      0.0564
     79  CG        28.0590   73.7420   68.5170 C.ar  131  TRP131      0.0003
     80  CD1       28.9110   73.9360   69.5780 C.ar  131  TRP131      0.0946
     81  CD2       28.2350   74.8680   67.6470 C.ar  131  TRP131      0.0152
     82  NE1       29.5930   75.1350   69.4190 N.ar  131  TRP131     -0.2442
     83  CE2       29.2060   75.7060   68.2320 C.ar  131  TRP131      0.0810
     84  CE3       27.6820   75.2340   66.4150 C.ar  131  TRP131      0.0012
     85  CZ2       29.6240   76.8970   67.6280 C.ar  131  TRP131      0.0191
     86  CZ3       28.1060   76.4120   65.8200 C.ar  131  TRP131      0.0001
     87  CH2       29.0620   77.2250   66.4280 C.ar  131  TRP131      0.0015
     88  N         23.9810   72.0350   67.6520 N.am  132  SER132     -0.1938
     89  CA        23.0560   71.1900   66.9130 C.3   132  SER132      0.2055
     90  C         23.4700   71.1730   65.4480 C.2   132  SER132      0.2643
     91  O         24.0260   72.1410   64.9370 O.2   132  SER132     -0.2714
     92  CB        21.6440   71.7750   66.9680 C.3   132  SER132      0.2130
     93  OG        20.7360   71.0130   66.1850 O.3   132  SER132     -0.2179
     94  N         23.1720   70.0940   64.7400 N.am  133  ILE133     -0.1963
     95  CA        23.4280   70.0930   63.2910 C.3   133  ILE133      0.1727
     96  C         22.1730   70.4380   62.4910 C.2   133  ILE133      0.2616
     97  O         22.2260   70.6070   61.2680 O.2   133  ILE133     -0.2715
     98  CB        24.0930   68.7710   62.7510 C.3   133  ILE133      0.0290
     99  CG1       23.1930   67.5560   62.9740 C.3   133  ILE133      0.0022
    100  CG2       25.5020   68.5850   63.3290 C.3   133  ILE133      0.0023
    101  CD1       23.4750   66.4830   61.9460 C.3   133  ILE133      0.0001
    102  N         21.0360   70.5320   63.1750 N.am  134  GLY134     -0.1955
    103  CA        19.7920   70.8990   62.5010 C.3   134  GLY134      0.1869
    104  C         18.5800   70.5850   63.3270 C.2   134  GLY134      0.2309
    105  O         18.6600   69.8950   64.3600 O.2   134  GLY134     -0.2863
    106  N         16.0910   68.5590   63.4560 N.3   136  TYR136     -0.1227
    107  CA        15.5260   67.2420   63.3000 C.3   136  TYR136      0.1736
    108  C         16.0800   66.3280   64.3810 C.2   136  TYR136      0.2595
    109  O         17.0930   66.6430   64.9760 O.2   136  TYR136     -0.2718
    110  CB        15.8120   66.6710   61.9020 C.3   136  TYR136      0.0548
    111  CG        17.1910   67.0040   61.3540 C.ar  136  TYR136     -0.0200
    112  CD1       18.2920   66.2300   61.6930 C.ar  136  TYR136     -0.0009
    113  CD2       17.3860   68.0900   60.5090 C.ar  136  TYR136     -0.0009
    114  CE1       19.5380   66.5140   61.2030 C.ar  136  TYR136      0.0417
    115  CE2       18.6530   68.4000   60.0220 C.ar  136  TYR136      0.0417
    116  CZ        19.7160   67.5980   60.3690 C.ar  136  TYR136      0.1957
    117  OH        20.9480   67.9010   59.8770 O.3   136  TYR136     -0.2866
    118  N         15.3950   65.2140   64.6130 N.am  137  VAL137     -0.1966
    119  CA        15.6780   64.3210   65.7280 C.3   137  VAL137      0.1727
    120  C         16.3800   63.0740   65.2410 C.2   137  VAL137      0.2616
    121  O         15.9270   62.4160   64.3100 O.2   137  VAL137     -0.2715
    122  CB        14.3760   63.9150   66.4730 C.3   137  VAL137      0.0290
    123  CG1       14.6910   63.0090   67.6580 C.3   137  VAL137      0.0023
    124  CG2       13.6230   65.1760   66.9150 C.3   137  VAL137      0.0023
    125  N         17.4930   62.7640   65.8910 N.am  138  LEU138     -0.1963
    126  CA        18.3080   61.6290   65.5500 C.3   138  LEU138      0.1728
    127  C         18.4310   60.7060   66.7530 C.2   138  LEU138      0.2617
    128  O         18.0420   61.0510   67.8820 O.2   138  LEU138     -0.2715
    129  CB        19.6890   62.1290   65.1290 C.3   138  LEU138      0.0311
    130  CG        19.7430   63.0780   63.9200 C.3   138  LEU138      0.0022
    131  CD1       21.1720   63.5870   63.7080 C.3   138  LEU138      0.0001
    132  CD2       19.2210   62.3930   62.6610 C.3   138  LEU138      0.0001
    133  N         19.0300   59.5480   66.5310 N.am  139  THR139     -0.1937
    134  CA        19.1450   58.5500   67.5770 C.3   139  THR139      0.2028
    135  C         20.3960   58.6850   68.4630 C.2   139  THR139      0.2643
    136  O         20.4750   58.0620   69.5270 O.2   139  THR139     -0.2714
    137  CB        19.0890   57.1160   66.9930 C.3   139  THR139      0.1808
    138  OG1       20.2630   56.8330   66.2440 O.3   139  THR139     -0.2208
    139  CG2       17.8450   56.9180   66.0930 C.3   139  THR139      0.0379
    140  N         21.3630   59.4810   68.0330 N.am  140  GLY140     -0.1939
    141  CA        22.6070   59.6490   68.7780 C.3   140  GLY140      0.2014
    142  C         23.3980   60.8040   68.2360 C.2   140  GLY140      0.2639
    143  O         23.1170   61.2980   67.1510 O.2   140  GLY140     -0.2714
    144  N         24.3960   61.2250   69.0020 N.am  141  GLY141     -0.1954
    145  CA        25.2550   62.3390   68.6340 C.3   141  GLY141      0.1869
    146  C         26.4210   62.0250   67.7080 C.2   141  GLY141      0.2309
    147  O         27.1320   62.9250   67.2870 O.2   141  GLY141     -0.2863
    148  N         26.0630   63.5100   64.1080 N.3   144  PRO144     -0.2116
    149  CA        26.3540   64.9410   64.2280 C.3   144  PRO144      0.1372
    150  C         27.8410   65.2610   64.4500 C.2   144  PRO144      0.2244
    151  O         28.3860   66.2080   63.8300 O.2   144  PRO144     -0.2868
    152  CB        25.4960   65.3550   65.4220 C.3   144  PRO144      0.0268
    153  CG        24.3060   64.4370   65.3160 C.3   144  PRO144      0.0207
    154  CD        24.8680   63.1330   64.8980 C.3   144  PRO144      0.0892
@<TRIPOS>BOND
     1   117   116    1
     2   115   116   ar
     3   115   113   ar
     4   116   114   ar
     5   113   111   ar
     6   114   112   ar
     7    97    96    2
     8   111   112   ar
     9   111   110    1
    10   110   107    1
    11   101    99    1
    12    96   102   am
    13    96    95    1
    14   103   102    1
    15   103   104    1
    16   132   130    1
    17    98    99    1
    18    98    95    1
    19    98   100    1
    20    95    94    1
    21   107   106    1
    22   107   108    1
    23   104   105    2
    24   131   130    1
    25   151   150    2
    26   130   129    1
    27   148   149    1
    28   148   154    1
    29   149   150    1
    30   149   152    1
    31   121   120    2
    32   108   118   am
    33   108   109    2
    34   118   119    1
    35    94    90   am
    36   154   153    1
    37    91    90    2
    38   129   126    1
    39   120   119    1
    40   120   125   am
    41   153   152    1
    42    90    89    1
    43   126   125    1
    44   126   127    1
    45   119   122    1
    46    86    84   ar
    47    86    87   ar
    48   139   137    1
    49    93    92    1
    50   138   137    1
    51    84    81   ar
    52    87    85   ar
    53   122   124    1
    54   122   123    1
    55   133   127   am
    56   133   134    1
    57   127   128    2
    58    89    92    1
    59    89    88    1
    60   137   134    1
    61   143   142    2
    62   147   146    2
    63    48    46    1
    64   134   135    1
    65    85    83   ar
    66    81    83   ar
    67    81    79   ar
    68    88    76   am
    69   146   145    1
    70    19    18    1
    71   140   135   am
    72   140   141    1
    73    83    82   ar
    74   142   141    1
    75   142   144   am
    76    78    79    1
    77    78    75    1
    78    47    46    1
    79    46    45    2
    80   135   136    2
    81    79    80   ar
    82    18    20    1
    83    18    17    1
    84    76    77    2
    85    76    75    1
    86   145   144    1
    87    75    74    1
    88    17    14    1
    89    31    28    1
    90    31    32    2
    91    82    80   ar
    92    28    29    1
    93    28    27    1
    94    30    29    2
    95    45    44    1
    96    24    23    2
    97    32    33    1
    98    27    23   am
    99    27    33    1
   100    23    22    1
   101    14    15    1
   102    14    13    1
   103    21    15   am
   104    21    22    1
   105    44    43    1
   106    15    16    2
   107    22    25    1
   108    13     3   am
   109    37    36    2
   110    43    42    1
   111     4     3    2
   112     3     2    1
   113    25    26    1
   114    34    35    1
   115    36    35    1
   116    36    38   am
   117    39    42    1
   118    39    38    1
   119    39    40    1
   120     1     2    1
   121     2     5    1
   122    52    51    2
   123    49    40   am
   124    49    50    1
   125    40    41    2
   126     8    10   ar
   127     8     6   ar
   128    10    11   ar
   129    50    51    1
   130    50    53    1
   131    51    61   am
   132     5     6    1
   133     6     7   ar
   134    68    67   ar
   135    11    12    1
   136    11     9   ar
   137    58    56   ar
   138    58    59   ar
   139     7     9   ar
   140    69    67   ar
   141    56    54   ar
   142    67    66    1
   143    61    62    1
   144    60    59    1
   145    59    57   ar
   146    54    53    1
   147    54    55   ar
   148    62    63    1
   149    62    65    1
   150    63    70   am
   151    63    64    2
   152    70    71    1
   153    71    72    1
   154    57    55   ar
   155    66    65    1
   156    72    73    2
