@<TRIPOS>MOLECULE
tmp/4mcoC00.pdb
 108 102 0 0 0
SMALL
GASTEIGER

@<TRIPOS>ATOM
      1  N         20.2530  -17.7260   41.9750 N.3     9  PHE9       -0.1241
      2  CA        20.9100  -18.3540   43.1120 C.3     9  PHE9        0.1605
      3  C         20.1650  -18.2950   44.4470 C.2     9  PHE9        0.2264
      4  O         19.2180  -17.5200   44.6180 O.2     9  PHE9       -0.2867
      5  CB        22.3340  -17.8040   43.2030 C.3     9  PHE9        0.0534
      6  CG        23.0320  -17.7610   41.8540 C.ar    9  PHE9       -0.0203
      7  CD1       23.5370  -18.9240   41.2830 C.ar    9  PHE9       -0.0042
      8  CD2       23.1490  -16.5790   41.1510 C.ar    9  PHE9       -0.0042
      9  CE1       24.1760  -18.9000   40.0510 C.ar    9  PHE9       -0.0003
     10  CE2       23.7510  -16.5520   39.9100 C.ar    9  PHE9       -0.0003
     11  CZ        24.2680  -17.7240   39.3680 C.ar    9  PHE9       -0.0000
     12  N         26.9540  -14.3710   45.5770 N.3    20  ARG20      -0.1245
     13  CA        26.3300  -13.5120   44.5780 C.3    20  ARG20       0.1563
     14  C         25.1080  -12.8250   45.1670 C.2    20  ARG20       0.2260
     15  O         24.8700  -11.6380   44.9180 O.2    20  ARG20      -0.2867
     16  CB        25.9750  -14.3270   43.3310 C.3    20  ARG20       0.0307
     17  CG        27.2710  -14.8070   42.6060 C.3    20  ARG20       0.0489
     18  CD        27.0300  -16.0140   41.6980 C.3    20  ARG20       0.2205
     19  NE        26.6950  -17.2130   42.4560 N.pl3  20  ARG20      -0.0865
     20  CZ        26.7870  -18.4440   41.9610 C.cat  20  ARG20       0.5346
     21  NH1       27.2390  -18.6210   40.7140 N.pl3  20  ARG20       0.1354
     22  NH2       26.4920  -19.4910   42.7070 N.pl3  20  ARG20       0.1354
     23  N         25.0300  -15.4490   34.6800 N.3    70  PRO70      -0.2116
     24  CA        26.0770  -15.9190   33.7730 C.3    70  PRO70       0.1372
     25  C         25.8740  -15.3130   32.3720 C.2    70  PRO70       0.2244
     26  O         24.8210  -15.4670   31.7330 O.2    70  PRO70      -0.2868
     27  CB        25.9030  -17.4490   33.8100 C.3    70  PRO70       0.0268
     28  CG        25.2830  -17.6810   35.1400 C.3    70  PRO70       0.0207
     29  CD        24.3240  -16.5660   35.3300 C.3    70  PRO70       0.0892
     30  N         24.9800  -17.3240   28.9560 N.3    73  TYR73      -0.1241
     31  CA        23.6390  -17.8960   28.7910 C.3    73  TYR73       0.1605
     32  C         22.9270  -17.2480   27.6180 C.2    73  TYR73       0.2264
     33  O         21.9970  -17.8340   27.0680 O.2    73  TYR73      -0.2867
     34  CB        22.7590  -17.6960   30.0180 C.3    73  TYR73       0.0534
     35  CG        23.0160  -18.5790   31.2320 C.ar   73  TYR73      -0.0201
     36  CD1       24.0050  -19.5560   31.2620 C.ar   73  TYR73      -0.0009
     37  CD2       22.2360  -18.4080   32.3690 C.ar   73  TYR73      -0.0009
     38  CE1       24.1950  -20.3300   32.4170 C.ar   73  TYR73       0.0417
     39  CE2       22.4240  -19.1540   33.5000 C.ar   73  TYR73       0.0417
     40  CZ        23.3850  -20.1320   33.5190 C.ar   73  TYR73       0.1957
     41  OH        23.5480  -20.8740   34.6710 O.3    73  TYR73      -0.2866
     42  N         26.8770  -31.8030   31.7600 N.3   148  ARG148     -0.1245
     43  CA        26.5670  -30.3880   31.5460 C.3   148  ARG148      0.1563
     44  C         27.8160  -29.5240   31.6770 C.2   148  ARG148      0.2260
     45  O         28.4290  -29.4950   32.7390 O.2   148  ARG148     -0.2867
     46  CB        25.5380  -29.9420   32.5780 C.3   148  ARG148      0.0307
     47  CG        25.0400  -28.5230   32.4210 C.3   148  ARG148      0.0489
     48  CD        25.6860  -27.5540   33.3890 C.3   148  ARG148      0.2205
     49  NE        25.0500  -26.2540   33.2790 N.pl3 148  ARG148     -0.0865
     50  CZ        25.4950  -25.1410   33.8550 C.cat 148  ARG148      0.5346
     51  NH1       26.5980  -25.1590   34.5900 N.pl3 148  ARG148      0.1354
     52  NH2       24.8450  -24.0100   33.6710 N.pl3 148  ARG148      0.1354
     53  N         22.1850  -23.4420   35.8280 N.3   170  SER170     -0.1217
     54  CA        22.7980  -24.1990   36.8980 C.3   170  SER170      0.1889
     55  C         21.8420  -24.5120   38.0290 C.2   170  SER170      0.2288
     56  O         22.0560  -25.4720   38.7970 O.2   170  SER170     -0.2866
     57  CB        24.0540  -23.5030   37.4240 C.3   170  SER170      0.2089
     58  OG        23.7620  -22.1740   37.8430 O.3   170  SER170     -0.2183
     59  N         30.1720  -26.4070   37.1160 N.3   187  THR187     -0.1203
     60  CA        29.6450  -25.1350   37.5660 C.3   187  THR187      0.1994
     61  C         30.7080  -24.5590   38.4970 C.2   187  THR187      0.2618
     62  O         31.8120  -25.1040   38.5790 O.2   187  THR187     -0.2717
     63  CB        28.2720  -25.2670   38.2360 C.3   187  THR187      0.1784
     64  OG1       27.7230  -23.9660   38.5150 O.3   187  THR187     -0.2211
     65  CG2       28.3860  -26.0640   39.5320 C.3   187  THR187      0.0376
     66  N         30.4140  -23.4210   39.1160 N.am  188  SER188     -0.1951
     67  CA        31.3590  -22.7260   39.9620 C.3   188  SER188      0.1924
     68  C         31.4740  -23.3700   41.3300 C.2   188  SER188      0.2314
     69  O         30.5730  -24.0720   41.7770 O.2   188  SER188     -0.2863
     70  CB        30.8940  -21.2880   40.1430 C.3   188  SER188      0.2116
     71  OG        29.6750  -21.2300   40.8690 O.3   188  SER188     -0.2180
     72  N         28.5060  -22.4190   43.4200 N.3   191  SER191     -0.1217
     73  CA        27.3140  -23.1700   43.0960 C.3   191  SER191      0.1889
     74  C         27.3600  -24.6110   43.5660 C.2   191  SER191      0.2288
     75  O         26.3530  -25.1600   43.9840 O.2   191  SER191     -0.2866
     76  CB        27.0990  -23.1420   41.5890 C.3   191  SER191      0.2089
     77  OG        26.6690  -21.8450   41.2290 O.3   191  SER191     -0.2183
     78  N         37.9460  -23.9860   33.7980 N.3   213  TRP213     -0.1241
     79  CA        36.5920  -23.4120   33.7790 C.3   213  TRP213      0.1605
     80  C         36.5160  -22.1130   34.5980 C.2   213  TRP213      0.2264
     81  O         36.7230  -22.1040   35.8240 O.2   213  TRP213     -0.2867
     82  CB        35.6300  -24.4510   34.3600 C.3   213  TRP213      0.0550
     83  CG        34.1390  -24.2890   34.1640 C.ar  213  TRP213      0.0003
     84  CD1       33.3790  -25.0240   33.3120 C.ar  213  TRP213      0.0946
     85  CD2       33.2190  -23.4280   34.8840 C.ar  213  TRP213      0.0152
     86  NE1       32.0550  -24.6810   33.4250 N.ar  213  TRP213     -0.2442
     87  CE2       31.9300  -23.7010   34.3780 C.ar  213  TRP213      0.0810
     88  CE3       33.3560  -22.4390   35.8890 C.ar  213  TRP213      0.0012
     89  CZ2       30.7910  -23.0630   34.8560 C.ar  213  TRP213      0.0191
     90  CZ3       32.2100  -21.7800   36.3440 C.ar  213  TRP213      0.0001
     91  CH2       30.9500  -22.1030   35.8310 C.ar  213  TRP213      0.0015
     92  N         33.8540  -18.7300   34.5940 N.3   215  MET215     -0.1245
     93  CA        32.6350  -18.1740   34.0080 C.3   215  MET215      0.1570
     94  C         32.4440  -16.7410   34.4710 C.2   215  MET215      0.2261
     95  O         32.6690  -16.4010   35.6280 O.2   215  MET215     -0.2867
     96  CB        31.4170  -19.0170   34.3780 C.3   215  MET215      0.0387
     97  CG        30.2180  -18.7990   33.4550 C.3   215  MET215      0.0595
     98  SD        28.8430  -19.9080   33.7890 S.3   215  MET215     -0.1393
     99  CE        28.0580  -19.9890   32.1800 C.3   215  MET215      0.0692
    100  N         30.0150  -13.8940   35.4070 N.3   217  GLU217     -0.1245
    101  CA        28.6470  -13.8780   35.9590 C.3   217  GLU217      0.1567
    102  C         28.3510  -12.4890   36.5150 C.2   217  GLU217      0.2260
    103  O         28.1350  -12.3200   37.7190 O.2   217  GLU217     -0.2867
    104  CB        28.4820  -14.9610   37.0440 C.3   217  GLU217      0.0388
    105  CG        29.0520  -16.3240   36.6230 C.3   217  GLU217      0.1160
    106  CD        28.5740  -17.5140   37.4820 C.2   217  GLU217      0.3649
    107  OE1       27.4500  -17.4840   38.0460 O.co2 217  GLU217     -0.2457
    108  OE2       29.3130  -18.5390   37.5380 O.co2 217  GLU217     -0.2457
@<TRIPOS>BOND
     1    33    32    2
     2    32    31    1
     3    31    30    1
     4    31    34    1
     5    34    35    1
     6    35    36   ar
     7    35    37   ar
     8    36    38   ar
     9    43    44    1
    10    43    42    1
    11    43    46    1
    12    44    45    2
    13    26    25    2
    14    99    98    1
    15    37    39   ar
    16    25    24    1
    17    38    40   ar
    18    47    46    1
    19    47    48    1
    20    49    48    1
    21    49    50    2
    22    84    86   ar
    23    84    83   ar
    24    86    87   ar
    25    97    98    1
    26    97    96    1
    27    39    40   ar
    28    40    41    1
    29    52    50    1
    30    24    27    1
    31    24    23    1
    32    79    78    1
    33    79    82    1
    34    79    80    1
    35    27    28    1
    36    50    51    1
    37    93    96    1
    38    93    94    1
    39    93    92    1
    40    83    82    1
    41    83    85   ar
    42    87    89   ar
    43    87    85   ar
    44    94    95    2
    45    80    81    2
    46    23    29    1
    47    89    91   ar
    48    85    88   ar
    49    28    29    1
    50   100   101    1
    51    53    54    1
    52    91    90   ar
    53    88    90   ar
    54   101   102    1
    55   101   104    1
    56   102   103    2
    57   105   104    1
    58   105   106    1
    59    54    57    1
    60    54    55    1
    61    59    60    1
    62    57    58    1
    63   106   108   ar
    64   106   107   ar
    65    60    63    1
    66    60    61    1
    67    55    56    2
    68    63    64    1
    69    63    65    1
    70    61    62    2
    71    61    66   am
    72    66    67    1
    73    11    10   ar
    74    11     9   ar
    75    10     8   ar
    76    67    70    1
    77    67    68    1
    78     9     7   ar
    79    70    71    1
    80    21    20    1
    81     8     6   ar
    82    77    76    1
    83     7     6   ar
    84    68    69    2
    85    76    73    1
    86    18    19    1
    87    18    17    1
    88     6     5    1
    89    20    19    2
    90    20    22    1
    91     1     2    1
    92    17    16    1
    93    73    72    1
    94    73    74    1
    95     2     5    1
    96     2     3    1
    97    16    13    1
    98    74    75    2
    99     3     4    2
   100    13    14    1
   101    13    12    1
   102    15    14    2
