@<TRIPOS>MOLECULE
tmp/4mcsA07.pdb
 135 129 0 0 0
SMALL
GASTEIGER

@<TRIPOS>ATOM
      1  N         20.5770   37.4710   47.9450 N.3   333  ASP333     -0.1239
      2  CA        19.4980   38.3710   47.5830 C.3   333  ASP333      0.1674
      3  C         18.1450   37.6410   47.4190 C.2   333  ASP333      0.2266
      4  O         17.9380   36.9500   46.4190 O.2   333  ASP333     -0.2867
      5  CB        19.9360   39.0250   46.2880 C.3   333  ASP333      0.1410
      6  CG        18.9190   40.0070   45.7600 C.2   333  ASP333      0.3668
      7  OD1       18.0210   40.3940   46.5070 O.co2 333  ASP333     -0.2456
      8  OD2       19.0490   40.3890   44.5790 O.co2 333  ASP333     -0.2456
      9  N          9.5950   42.0770   44.6220 N.3   370  GLU370     -0.1231
     10  CA        10.5620   43.1470   44.4620 C.3   370  GLU370      0.1699
     11  C         11.3200   42.9330   43.1630 C.2   370  GLU370      0.2592
     12  O         11.6260   43.9230   42.4170 O.2   370  GLU370     -0.2718
     13  CB        11.4640   43.2000   45.6750 C.3   370  GLU370      0.0402
     14  CG        12.4580   44.3700   45.6760 C.3   370  GLU370      0.1161
     15  CD        13.7810   44.1770   44.9100 C.2   370  GLU370      0.3649
     16  OE1       14.1270   43.0420   44.4400 O.co2 370  GLU370     -0.2457
     17  OE2       14.5010   45.2280   44.7330 O.co2 370  GLU370     -0.2457
     18  N         11.6000   41.6700   42.8250 N.am  371  GLU371     -0.1979
     19  CA        12.4560   41.4220   41.6490 C.3   371  GLU371      0.1602
     20  C         11.7910   41.8410   40.3550 C.2   371  GLU371      0.2287
     21  O         12.4730   42.0560   39.3530 O.2   371  GLU371     -0.2864
     22  CB        12.9490   39.9700   41.5730 C.3   371  GLU371      0.0415
     23  CG        13.8350   39.5440   42.7690 C.3   371  GLU371      0.1163
     24  CD        15.2160   40.2310   42.8320 C.2   371  GLU371      0.3649
     25  OE1       15.5020   41.1560   42.0380 O.co2 371  GLU371     -0.2457
     26  OE2       16.0220   39.8520   43.6910 O.co2 371  GLU371     -0.2457
     27  N         16.9580   44.5160   52.3170 N.3   399  ASP399     -0.1225
     28  CA        17.3980   43.5120   51.3390 C.3   399  ASP399      0.1805
     29  C         18.7700   42.9730   51.8180 C.2   399  ASP399      0.2598
     30  O         19.1070   43.1260   52.9870 O.2   399  ASP399     -0.2718
     31  CB        17.4610   44.1440   49.9500 C.3   399  ASP399      0.1424
     32  CG        17.3250   43.1130   48.8090 C.2   399  ASP399      0.3668
     33  OD1       17.4670   41.9190   49.0770 O.co2 399  ASP399     -0.2456
     34  OD2       17.1520   43.5170   47.6330 O.co2 399  ASP399     -0.2456
     35  N         19.4860   42.2750   50.9370 N.am  400  SER400     -0.1952
     36  CA        20.7880   41.6460   51.2360 C.3   400  SER400      0.1924
     37  C         21.6050   42.3610   52.3300 C.2   400  SER400      0.2314
     38  O         21.8400   43.5710   52.2700 O.2   400  SER400     -0.2863
     39  CB        21.5950   41.4790   49.9550 C.3   400  SER400      0.2116
     40  OG        20.7530   41.0170   48.8940 O.3   400  SER400     -0.2180
     41  N         27.1060   42.0970   50.7050 N.3   403  GLU403     -0.1245
     42  CA        27.4490   41.9150   49.2930 C.3   403  GLU403      0.1567
     43  C         28.9670   41.8140   49.1920 C.2   403  GLU403      0.2260
     44  O         29.5560   41.8840   48.1110 O.2   403  GLU403     -0.2867
     45  CB        26.8990   43.0680   48.4370 C.3   403  GLU403      0.0388
     46  CG        27.4570   44.4170   48.8260 C.3   403  GLU403      0.1160
     47  CD        26.7540   45.6030   48.1500 C.2   403  GLU403      0.3649
     48  OE1       25.7020   45.4440   47.5120 O.co2 403  GLU403     -0.2457
     49  OE2       27.2760   46.7140   48.2750 O.co2 403  GLU403     -0.2457
     50  N         17.4590   54.4170   43.7040 N.3   463  SER463     -0.1202
     51  CA        16.3470   53.5050   43.7660 C.3   463  SER463      0.2020
     52  C         16.7810   52.0860   43.3770 C.2   463  SER463      0.2619
     53  O         17.9520   51.7110   43.5320 O.2   463  SER463     -0.2717
     54  CB        15.2100   54.0390   42.9540 C.3   463  SER463      0.2103
     55  OG        14.1570   53.1120   42.8300 O.3   463  SER463     -0.2182
     56  N         15.8580   51.2890   42.8640 N.am  464  GLY464     -0.1942
     57  CA        16.1830   49.8860   42.5640 C.3   464  GLY464      0.2014
     58  C         15.9970   49.0100   43.8100 C.2   464  GLY464      0.2638
     59  O         16.5510   47.9050   43.8710 O.2   464  GLY464     -0.2714
     60  N         15.2590   49.5120   44.8090 N.am  465  ASN465     -0.1972
     61  CA        14.8910   48.6560   45.9370 C.3   465  ASN465      0.1688
     62  C         13.6640   49.2040   46.6540 C.2   465  ASN465      0.2292
     63  O         13.1950   50.2740   46.2700 O.2   465  ASN465     -0.2864
     64  CB        16.0760   48.4440   46.8640 C.3   465  ASN465      0.1181
     65  CG        16.1600   47.0010   47.3200 C.2   465  ASN465      0.2629
     66  OD1       15.3110   46.5530   48.0840 O.2   465  ASN465     -0.2716
     67  ND2       17.1700   46.2650   46.8330 N.am  465  ASN465     -0.0877
     68  N         19.1930   52.6600   54.5890 N.3   480  ARG480     -0.1245
     69  CA        19.5650   51.2380   54.3920 C.3   480  ARG480      0.1563
     70  C         21.0360   51.0610   54.7910 C.2   480  ARG480      0.2260
     71  O         21.7870   52.0260   54.7210 O.2   480  ARG480     -0.2867
     72  CB        19.3830   50.8100   52.9220 C.3   480  ARG480      0.0307
     73  CG        20.3010   51.5800   51.9100 C.3   480  ARG480      0.0489
     74  CD        19.8020   51.4150   50.4380 C.3   480  ARG480      0.2205
     75  NE        19.6310   50.0000   50.0450 N.pl3 480  ARG480     -0.0865
     76  CZ        19.6910   49.5360   48.7860 C.cat 480  ARG480      0.5346
     77  NH1       19.5410   48.2340   48.5710 N.pl3 480  ARG480      0.1354
     78  NH2       19.8910   50.3530   47.7510 N.pl3 480  ARG480      0.1354
     79  N         24.3090   47.8040   54.8120 N.3   482  ARG482     -0.1245
     80  CA        24.6890   46.4110   54.5360 C.3   482  ARG482      0.1563
     81  C         26.2070   46.3410   54.6050 C.2   482  ARG482      0.2260
     82  O         26.8370   47.3740   54.5570 O.2   482  ARG482     -0.2867
     83  CB        24.1930   45.9720   53.1260 C.3   482  ARG482      0.0307
     84  CG        24.4790   46.9560   51.9700 C.3   482  ARG482      0.0489
     85  CD        23.2980   47.8990   51.7360 C.3   482  ARG482      0.2205
     86  NE        23.3010   48.5580   50.4210 N.pl3 482  ARG482     -0.0865
     87  CZ        23.4340   49.8690   50.2560 C.cat 482  ARG482      0.5346
     88  NH1       23.5900   50.6380   51.3270 N.pl3 482  ARG482      0.1354
     89  NH2       23.3820   50.4030   49.0460 N.pl3 482  ARG482      0.1354
     90  N         27.7110   41.8250   43.0210 N.3   492  TYR492     -0.1241
     91  CA        28.7740   40.8650   43.3180 C.3   492  TYR492      0.1605
     92  C         28.7360   39.7630   42.2040 C.2   492  TYR492      0.2264
     93  O         27.7760   39.7010   41.4340 O.2   492  TYR492     -0.2867
     94  CB        28.5780   40.2940   44.7360 C.3   492  TYR492      0.0534
     95  CG        27.1380   39.9050   44.9650 C.ar  492  TYR492     -0.0201
     96  CD1       26.6830   38.6010   44.7030 C.ar  492  TYR492     -0.0009
     97  CD2       26.2180   40.8680   45.4120 C.ar  492  TYR492     -0.0009
     98  CE1       25.3040   38.2740   44.8790 C.ar  492  TYR492      0.0417
     99  CE2       24.8970   40.5470   45.5970 C.ar  492  TYR492      0.0417
    100  CZ        24.4510   39.2470   45.3260 C.ar  492  TYR492      0.1957
    101  OH        23.0870   39.0210   45.5100 O.3   492  TYR492     -0.2866
    102  N         25.4790   37.5010   41.5810 N.3   495  TYR495     -0.1227
    103  CA        24.2290   38.2460   41.6880 C.3   495  TYR495      0.1736
    104  C         23.1660   37.7430   40.7100 C.2   495  TYR495      0.2595
    105  O         23.4240   37.7030   39.5010 O.2   495  TYR495     -0.2718
    106  CB        24.5750   39.7010   41.3880 C.3   495  TYR495      0.0548
    107  CG        23.3900   40.6400   41.2680 C.ar  495  TYR495     -0.0200
    108  CD1       22.5220   40.8420   42.3460 C.ar  495  TYR495     -0.0009
    109  CD2       23.1810   41.3560   40.0900 C.ar  495  TYR495     -0.0009
    110  CE1       21.4130   41.7210   42.2310 C.ar  495  TYR495      0.0417
    111  CE2       22.0940   42.2930   39.9790 C.ar  495  TYR495      0.0417
    112  CZ        21.2540   42.4410   41.0340 C.ar  495  TYR495      0.1957
    113  OH        20.2160   43.3190   40.9100 O.3   495  TYR495     -0.2866
    114  N         22.0120   37.3200   41.2330 N.am  496  HIS496     -0.1975
    115  CA        20.8410   36.8890   40.4150 C.3   496  HIS496      0.1656
    116  C         21.1080   35.6400   39.5690 C.2   496  HIS496      0.2291
    117  O         20.3930   35.3650   38.5640 O.2   496  HIS496     -0.2864
    118  CB        20.2870   38.0230   39.5280 C.3   496  HIS496      0.0771
    119  CG        19.5280   39.0930   40.2850 C.ar  496  HIS496      0.0820
    120  ND1       18.9350   40.1560   39.6400 N.ar  496  HIS496     -0.2267
    121  CD2       19.2850   39.2760   41.6080 C.ar  496  HIS496      0.1154
    122  CE1       18.3350   40.9430   40.5240 C.ar  496  HIS496      0.1986
    123  NE2       18.5360   40.4350   41.7260 N.ar  496  HIS496     -0.2212
    124  N         19.7650   52.9880   39.8310 N.3   641  TYR641     -0.1241
    125  CA        20.4200   52.6490   41.1040 C.3   641  TYR641      0.1605
    126  C         21.0410   53.8680   41.7980 C.2   641  TYR641      0.2264
    127  O         21.2630   53.8320   42.9910 O.2   641  TYR641     -0.2867
    128  CB        21.5520   51.6410   40.8910 C.3   641  TYR641      0.0534
    129  CG        21.1120   50.2170   40.5200 C.ar  641  TYR641     -0.0201
    130  CD1       19.9920   49.6190   41.1370 C.ar  641  TYR641     -0.0009
    131  CD2       21.8520   49.4740   39.5880 C.ar  641  TYR641     -0.0009
    132  CE1       19.5660   48.2830   40.7640 C.ar  641  TYR641      0.0417
    133  CE2       21.4780   48.1410   39.2230 C.ar  641  TYR641      0.0417
    134  CZ        20.3300   47.5680   39.8220 C.ar  641  TYR641      0.1957
    135  OH        19.9980   46.2920   39.4500 O.3   641  TYR641     -0.2866
@<TRIPOS>BOND
     1   117   116    2
     2   133   131   ar
     3   133   134   ar
     4    21    20    2
     5   135   134    1
     6   105   104    2
     7   118   119    1
     8   118   115    1
     9   116   115    1
    10   131   129   ar
    11   120   119   ar
    12   120   122   ar
    13   134   132   ar
    14   124   125    1
    15   111   109   ar
    16   111   112   ar
    17   109   107   ar
    18   119   121   ar
    19    20    19    1
    20   115   114    1
    21   129   128    1
    22   129   130   ar
    23   122   123   ar
    24   104   114   am
    25   104   103    1
    26   132   130   ar
    27   128   125    1
    28   113   112    1
    29   112   110   ar
    30   125   126    1
    31   107   106    1
    32   107   108   ar
    33   106   103    1
    34    93    92    2
    35    22    19    1
    36    22    23    1
    37   102   103    1
    38   121   123   ar
    39    19    18    1
    40   126   127    2
    41    25    24   ar
    42    92    91    1
    43   110   108   ar
    44    12    11    2
    45    57    56    1
    46    57    58    1
    47    23    24    1
    48    18    11   am
    49    55    54    1
    50    24    26   ar
    51    56    52   am
    52    54    51    1
    53    90    91    1
    54    11    10    1
    55    91    94    1
    56    52    53    2
    57    52    51    1
    58    50    51    1
    59    58    59    2
    60    58    60   am
    61    16    15   ar
    62    10     9    1
    63    10    13    1
    64     8     6   ar
    65    96    98   ar
    66    96    95   ar
    67    17    15   ar
    68    94    95    1
    69    60    61    1
    70    98   100   ar
    71    15    14    1
    72    95    97   ar
    73   100   101    1
    74   100    99   ar
    75    97    99   ar
    76    13    14    1
    77     6     5    1
    78     6     7   ar
    79    61    62    1
    80    61    64    1
    81    63    62    2
    82     5     2    1
    83     4     3    2
    84    67    65   am
    85    64    65    1
    86    65    66    2
    87     3     2    1
    88    48    47   ar
    89     2     1    1
    90    34    32   ar
    91    78    76    1
    92    44    43    2
    93    47    49   ar
    94    47    46    1
    95    45    46    1
    96    45    42    1
    97    77    76    1
    98    76    75    2
    99    32    33   ar
   100    32    31    1
   101    40    39    1
   102    89    87    1
   103    43    42    1
   104    42    41    1
   105    31    28    1
   106    39    36    1
   107    75    74    1
   108    87    86    2
   109    87    88    1
   110    86    85    1
   111    74    73    1
   112    35    36    1
   113    35    29   am
   114    36    37    1
   115    28    29    1
   116    28    27    1
   117    85    84    1
   118    29    30    2
   119    73    72    1
   120    84    83    1
   121    38    37    2
   122    72    69    1
   123    83    80    1
   124    69    68    1
   125    69    70    1
   126    80    81    1
   127    80    79    1
   128    82    81    2
   129    71    70    2
