@<TRIPOS>MOLECULE
tmp/4mcvB00.pdb
 182 170 0 0 0
SMALL
GASTEIGER

@<TRIPOS>ATOM
      1  N         95.3060   46.9810   -1.3060 N.3    17  LEU17      -0.1231
      2  CA        95.2880   46.2320   -2.5570 C.3    17  LEU17       0.1693
      3  C         94.1940   46.7420   -3.4890 C.2    17  LEU17       0.2592
      4  O         94.3980   46.8600   -4.6980 O.2    17  LEU17      -0.2718
      5  CB        95.0910   44.7410   -2.2760 C.3    17  LEU17       0.0284
      6  CG        96.1720   44.0880   -1.4100 C.3    17  LEU17       0.0019
      7  CD1       95.7510   42.6950   -0.9670 C.3    17  LEU17       0.0001
      8  CD2       97.4920   44.0370   -2.1600 C.3    17  LEU17       0.0001
      9  N         93.0330   47.0460   -2.9200 N.am   18  GLY18      -0.1957
     10  CA        91.9180   47.5620   -3.6910 C.3    18  GLY18       0.1869
     11  C         90.8260   48.1050   -2.7930 C.2    18  GLY18       0.2309
     12  O         90.8740   47.9390   -1.5750 O.2    18  GLY18      -0.2863
     13  N         90.4280   46.3090    0.7440 N.3    25  VAL25      -0.1245
     14  CA        91.1680   45.0710    0.9520 C.3    25  VAL25       0.1561
     15  C         92.6640   45.3420    1.1330 C.2    25  VAL25       0.2260
     16  O         93.2920   46.0000    0.3030 O.2    25  VAL25      -0.2867
     17  CB        90.9200   44.0480   -0.1840 C.3    25  VAL25       0.0252
     18  CG1       91.0590   44.7070   -1.5470 C.3    25  VAL25       0.0019
     19  CG2       91.8600   42.8570   -0.0490 C.3    25  VAL25       0.0019
     20  N         95.2990   38.4020    3.8330 N.3    37  ALA37      -0.1245
     21  CA        94.6040   39.5110    3.1970 C.3    37  ALA37       0.1562
     22  C         93.4030   39.8800    4.0590 C.2    37  ALA37       0.2260
     23  O         92.7070   39.0040    4.5710 O.2    37  ALA37      -0.2867
     24  CB        94.1610   39.1310    1.7930 C.3    37  ALA37       0.0290
     25  N         89.7540   42.0490    4.6180 N.3    39  LYS39      -0.1245
     26  CA        88.6260   42.7800    4.0540 C.3    39  LYS39       0.1561
     27  C         88.0060   43.6900    5.1030 C.2    39  LYS39       0.2260
     28  O         87.6650   43.2450    6.2000 O.2    39  LYS39      -0.2867
     29  CB        87.5650   41.8240    3.5110 C.3    39  LYS39       0.0271
     30  CG        87.7140   41.4990    2.0380 C.3    39  LYS39       0.0035
     31  CD        86.4740   40.7990    1.5140 C.3    39  LYS39       0.0206
     32  CE        85.2410   41.6800    1.6500 C.3    39  LYS39       0.1093
     33  NZ        84.0140   41.0120    1.1300 N.3    39  LYS39      -0.1314
     34  N         78.8260   36.8130    3.4220 N.3    53  GLU53      -0.1196
     35  CA        79.7050   36.1680    2.4540 C.3    53  GLU53       0.1783
     36  C         80.6970   35.2350    3.1390 C.2    53  GLU53       0.2306
     37  O         81.2300   34.3180    2.5160 O.2    53  GLU53      -0.2863
     38  CB        80.4550   37.2160    1.6290 C.2    53  GLU53       0.0071
     39  CG        81.5330   36.8490    0.7390 C.2    53  GLU53       0.0834
     40  CD        82.4200   38.0060    0.2350 C.2    53  GLU53       0.3877
     41  OE1       82.3820   39.1370    0.7390 O.co2  53  GLU53      -0.2406
     42  OE2       83.2200   37.7320   -0.6630 O.co2  53  GLU53      -0.2406
     43  N         82.0110   30.5440    3.5260 N.3    57  MET57      -0.1245
     44  CA        83.4510   30.3200    3.4500 C.3    57  MET57       0.1570
     45  C         83.9350   29.4530    4.6070 C.2    57  MET57       0.2261
     46  O         85.1170   29.1210    4.6960 O.2    57  MET57      -0.2867
     47  CB        84.2090   31.6500    3.4260 C.3    57  MET57       0.0387
     48  CG        83.8660   32.5320    2.2370 C.3    57  MET57       0.0595
     49  SD        84.8770   34.0230    2.1280 S.3    57  MET57      -0.1393
     50  CE        86.4910   33.3140    1.8090 C.3    57  MET57       0.0692
     51  N         89.3100   30.3980   -2.7500 N.3    66  VAL66      -0.1231
     52  CA        90.0200   31.3030   -1.8540 C.3    66  VAL66       0.1692
     53  C         89.5920   31.0360   -0.4150 C.2    66  VAL66       0.2592
     54  O         88.4140   31.1540   -0.0730 O.2    66  VAL66      -0.2718
     55  CB        89.7670   32.7770   -2.2120 C.3    66  VAL66       0.0266
     56  CG1       90.7130   33.6730   -1.4360 C.3    66  VAL66       0.0020
     57  CG2       89.9500   32.9930   -3.7030 C.3    66  VAL66       0.0020
     58  N         90.5550   30.6670    0.4220 N.am   67  GLN67      -0.1966
     59  CA        90.2530   30.1730    1.7600 C.3    67  GLN67       0.1733
     60  C         90.0640   31.2800    2.7960 C.2    67  GLN67       0.2616
     61  O         90.7730   32.2860    2.7920 O.2    67  GLN67      -0.2715
     62  CB        91.3340   29.1920    2.2250 C.3    67  GLN67       0.0408
     63  CG        90.9610   28.4050    3.4720 C.3    67  GLN67       0.0908
     64  CD        89.6880   27.5980    3.2900 C.2    67  GLN67       0.2608
     65  OE1       89.4340   27.0490    2.2170 O.2    67  GLN67      -0.2717
     66  NE2       88.8760   27.5300    4.3390 N.am   67  GLN67      -0.0878
     67  N         89.0910   31.0780    3.6770 N.am   68  LEU68      -0.1977
     68  CA        88.8740   31.9600    4.8140 C.3    68  LEU68       0.1596
     69  C         89.7500   31.5060    5.9760 C.2    68  LEU68       0.2287
     70  O         89.8190   30.3150    6.2820 O.2    68  LEU68      -0.2864
     71  CB        87.4030   31.9280    5.2300 C.3    68  LEU68       0.0297
     72  CG        87.0010   32.7560    6.4520 C.3    68  LEU68       0.0022
     73  CD1       87.0490   34.2390    6.1320 C.3    68  LEU68       0.0001
     74  CD2       85.6200   32.3510    6.9460 C.3    68  LEU68       0.0001
     75  N         87.6270   40.7740    7.7900 N.3    79  ILE79      -0.1245
     76  CA        87.6110   39.4020    7.2920 C.3    79  ILE79       0.1561
     77  C         89.0000   38.9830    6.8200 C.2    79  ILE79       0.2260
     78  O         89.5770   39.6050    5.9300 O.2    79  ILE79      -0.2867
     79  CB        86.6050   39.2210    6.1410 C.3    79  ILE79       0.0252
     80  CG1       85.1720   39.2900    6.6720 C.3    79  ILE79       0.0019
     81  CG2       86.8380   37.8940    5.4370 C.3    79  ILE79       0.0019
     82  CD1       84.1190   39.0000    5.6240 C.3    79  ILE79       0.0001
     83  N         91.6790   36.2120    5.1920 N.3    81  GLY81      -0.1210
     84  CA        91.7270   35.0810    4.2870 C.3    81  GLY81       0.1956
     85  C         93.0010   34.9840    3.4700 C.2    81  GLY81       0.2612
     86  O         93.9650   35.7120    3.7070 O.2    81  GLY81      -0.2717
     87  N         92.9920   34.0760    2.4990 N.am   82  GLU82      -0.1965
     88  CA        94.1530   33.8090    1.6560 C.3    82  GLU82       0.1733
     89  C         94.5210   35.0020    0.7750 C.2    82  GLU82       0.2616
     90  O         93.6500   35.6640    0.2110 O.2    82  GLU82      -0.2715
     91  CB        93.8940   32.5750    0.7880 C.3    82  GLU82       0.0429
     92  CG        95.0550   32.1770   -0.1050 C.3    82  GLU82       0.1163
     93  CD        94.7640   30.9260   -0.9110 C.2    82  GLU82       0.3649
     94  OE1       93.6640   30.3550   -0.7520 O.co2  82  GLU82      -0.2457
     95  OE2       95.6350   30.5130   -1.7060 O.co2  82  GLU82      -0.2457
     96  N         95.8190   35.2670    0.6620 N.am   83  TYR83      -0.1960
     97  CA        96.3100   36.3850   -0.1350 C.3    83  TYR83       0.1771
     98  C         96.6100   35.9750   -1.5740 C.2    83  TYR83       0.2619
     99  O         97.3940   35.0570   -1.8190 O.2    83  TYR83      -0.2715
    100  CB        97.5580   36.9910    0.5130 C.3    83  TYR83       0.0574
    101  CG        98.2620   38.0230   -0.3380 C.ar   83  TYR83      -0.0198
    102  CD1       97.6370   39.2170   -0.6750 C.ar   83  TYR83      -0.0009
    103  CD2       99.5580   37.8110   -0.7900 C.ar   83  TYR83      -0.0009
    104  CE1       98.2780   40.1650   -1.4500 C.ar   83  TYR83       0.0417
    105  CE2      100.2090   38.7540   -1.5640 C.ar   83  TYR83       0.0417
    106  CZ        99.5640   39.9300   -1.8910 C.ar   83  TYR83       0.1957
    107  OH       100.2050   40.8740   -2.6620 O.3    83  TYR83      -0.2866
    108  N         95.9790   36.6630   -2.5210 N.am   84  MET84      -0.1963
    109  CA        96.1950   36.4060   -3.9420 C.3    84  MET84       0.1736
    110  C         96.9450   37.5750   -4.5720 C.2    84  MET84       0.2617
    111  O         96.3600   38.6160   -4.8610 O.2    84  MET84      -0.2715
    112  CB        94.8590   36.1840   -4.6500 C.3    84  MET84       0.0427
    113  CG        93.9730   35.1460   -3.9730 C.3    84  MET84       0.0599
    114  SD        94.7090   33.4980   -3.9350 S.3    84  MET84      -0.1393
    115  CE        94.6990   33.0770   -5.6770 C.3    84  MET84       0.0692
    116  N         98.2410   37.3830   -4.7970 N.am   85  SER85      -0.1936
    117  CA        99.1510   38.4760   -5.1360 C.3    85  SER85       0.2055
    118  C         98.8710   39.2200   -6.4460 C.2    85  SER85       0.2643
    119  O         99.3200   40.3530   -6.6180 O.2    85  SER85      -0.2714
    120  CB       100.5960   37.9690   -5.1330 C.3    85  SER85       0.2130
    121  OG       100.7560   36.8900   -6.0370 O.3    85  SER85      -0.2179
    122  N         98.1400   38.5970   -7.3660 N.am   86  LYS86      -0.1963
    123  CA        97.9530   39.1830   -8.6950 C.3    86  LYS86       0.1728
    124  C         96.6080   39.8840   -8.8900 C.2    86  LYS86       0.2617
    125  O         96.3480   40.4540   -9.9520 O.2    86  LYS86      -0.2715
    126  CB        98.1650   38.1320   -9.7860 C.3    86  LYS86       0.0311
    127  CG        99.5770   37.5760   -9.8360 C.3    86  LYS86       0.0038
    128  CD       100.5960   38.6890  -10.0230 C.3    86  LYS86       0.0206
    129  CE       102.0150   38.1440  -10.0470 C.3    86  LYS86       0.1093
    130  NZ       103.0180   39.2210  -10.2770 N.3    86  LYS86      -0.1314
    131  N         95.7620   39.8440   -7.8660 N.am   87  GLY87      -0.1940
    132  CA        94.4620   40.4870   -7.9310 C.3    87  GLY87       0.2014
    133  C         93.4610   39.6980   -8.7540 C.2    87  GLY87       0.2639
    134  O         93.6060   38.4870   -8.9280 O.2    87  GLY87      -0.2714
    135  N         92.4460   40.3860   -9.2690 N.am   88  SER88      -0.1949
    136  CA        91.3960   39.7280  -10.0360 C.3    88  SER88       0.1924
    137  C         91.8960   39.2620  -11.3990 C.2    88  SER88       0.2314
    138  O         92.8370   39.8270  -11.9550 O.2    88  SER88      -0.2863
    139  CB        90.1910   40.6530  -10.2160 C.3    88  SER88       0.2116
    140  OG        90.4470   41.6270  -11.2110 O.3    88  SER88      -0.2180
    141  N         91.6600   42.0560  -14.2080 N.3    91  ASP91      -0.1239
    142  CA        92.7430   43.0330  -14.1810 C.3    91  ASP91       0.1674
    143  C         94.0280   42.4080  -14.7080 C.2    91  ASP91       0.2266
    144  O         94.8250   43.0640  -15.3780 O.2    91  ASP91      -0.2867
    145  CB        92.9630   43.5530  -12.7590 C.3    91  ASP91       0.1410
    146  CG        91.7060   44.1520  -12.1540 C.2    91  ASP91       0.3668
    147  OD1       90.8560   44.6610  -12.9170 O.co2  91  ASP91      -0.2456
    148  OD2       91.5660   44.1100  -10.9120 O.co2  91  ASP91      -0.2456
    149  N         85.8990   38.8810  -13.1040 N.3   133  ALA133     -0.1231
    150  CA        86.0510   39.8860  -12.0610 C.3   133  ALA133      0.1694
    151  C         86.0640   39.2310  -10.6860 C.2   133  ALA133      0.2592
    152  O         86.7520   39.6890   -9.7760 O.2   133  ALA133     -0.2718
    153  CB        84.9350   40.9170  -12.1500 C.3   133  ALA133      0.0304
    154  N         85.3070   38.1480  -10.5460 N.am  134  ASN134     -0.1974
    155  CA        85.2240   37.4340   -9.2780 C.3   134  ASN134      0.1688
    156  C         86.1720   36.2420   -9.2130 C.2   134  ASN134      0.2292
    157  O         85.9220   35.2830   -8.4830 O.2   134  ASN134     -0.2864
    158  CB        83.7910   36.9710   -9.0140 C.3   134  ASN134      0.1181
    159  CG        82.7970   38.1150   -9.0350 C.2   134  ASN134      0.2629
    160  OD1       83.1600   39.2740   -8.8300 O.2   134  ASN134     -0.2716
    161  ND2       81.5340   37.7940   -9.2810 N.am  134  ASN134     -0.0877
    162  N         90.2010   35.3650   -8.4940 N.3   136  LEU136     -0.1245
    163  CA        91.4820   35.8700   -8.0160 C.3   136  LEU136      0.1561
    164  C         92.6490   35.0450   -8.5470 C.2   136  LEU136      0.2260
    165  O         92.5630   33.8210   -8.6530 O.2   136  LEU136     -0.2867
    166  CB        91.5080   35.8900   -6.4880 C.3   136  LEU136      0.0270
    167  CG        90.5690   36.8880   -5.8110 C.3   136  LEU136      0.0019
    168  CD1       90.5470   36.6600   -4.3120 C.3   136  LEU136      0.0001
    169  CD2       90.9970   38.3080   -6.1320 C.3   136  LEU136      0.0001
    170  N         86.3110   33.4490   -6.0560 N.3   146  ALA146     -0.1231
    171  CA        86.3750   34.4410   -4.9830 C.3   146  ALA146      0.1694
    172  C         85.0240   34.8130   -4.3680 C.2   146  ALA146      0.2592
    173  O         84.5750   34.1740   -3.4180 O.2   146  ALA146     -0.2718
    174  CB        87.0980   35.6930   -5.4660 C.3   146  ALA146      0.0304
    175  N         84.3950   35.8550   -4.9110 N.am  147  ASP147     -0.1974
    176  CA        83.2000   36.4590   -4.3150 C.3   147  ASP147      0.1709
    177  C         82.0660   35.4670   -4.0570 C.2   147  ASP147      0.2293
    178  O         81.3300   35.0950   -4.9710 O.2   147  ASP147     -0.2864
    179  CB        82.6960   37.6150   -5.1850 C.3   147  ASP147      0.1436
    180  CG        81.6130   38.4310   -4.5020 C.2   147  ASP147      0.3671
    181  OD1       81.7380   38.6910   -3.2860 O.co2 147  ASP147     -0.2456
    182  OD2       80.6350   38.8120   -5.1800 O.co2 147  ASP147     -0.2456
@<TRIPOS>BOND
     1   144   143    2
     2   143   142    1
     3   141   142    1
     4   142   145    1
     5   149   150    1
     6   147   146   ar
     7   145   146    1
     8   146   148   ar
     9   153   150    1
    10   150   151    1
    11   138   137    2
    12   137   136    1
    13   140   139    1
    14   151   154   am
    15   151   152    2
    16   154   155    1
    17   130   129    1
    18   139   136    1
    19   129   128    1
    20   136   135    1
    21   128   127    1
    22   125   124    2
    23   127   126    1
    24   126   123    1
    25   161   159   am
    26   155   156    1
    27   155   158    1
    28   135   133   am
    29   156   157    2
    30   159   158    1
    31   159   160    2
    32   134   133    2
    33   124   123    1
    34   124   131   am
    35   133   132    1
    36   123   122    1
    37   165   164    2
    38   164   163    1
    39   162   163    1
    40   163   166    1
    41   132   131    1
    42   122   118   am
    43   119   118    2
    44   166   167    1
    45   118   117    1
    46   169   167    1
    47   170   171    1
    48   121   120    1
    49   167   168    1
    50   115   114    1
    51   174   171    1
    52   179   180    1
    53   179   176    1
    54   182   180   ar
    55   117   120    1
    56   117   116    1
    57   171   172    1
    58   178   177    2
    59   175   172   am
    60   175   176    1
    61   111   110    2
    62   116   110   am
    63     4     3    2
    64   112   113    1
    65   112   109    1
    66   110   109    1
    67   180   181   ar
    68   172   173    2
    69   176   177    1
    70   113   114    1
    71   109   108    1
    72    57    55    1
    73    10     9    1
    74    10    11    1
    75     3     9   am
    76     3     2    1
    77    11    12    2
    78    51    52    1
    79   107   106    1
    80     2     5    1
    81     2     1    1
    82   108    98   am
    83     5     6    1
    84    55    52    1
    85    55    56    1
    86     8     6    1
    87   106   105   ar
    88   106   104   ar
    89    52    53    1
    90    99    98    2
    91    95    93   ar
    92    98    97    1
    93   105   103   ar
    94    18    17    1
    95   104   102   ar
    96     6     7    1
    97    93    94   ar
    98    93    92    1
    99   103   101   ar
   100   102   101   ar
   101    42    40   ar
   102    53    54    2
   103    53    58   am
   104   101   100    1
   105    17    19    1
   106    17    14    1
   107    97   100    1
   108    97    96    1
   109    92    91    1
   110    90    89    2
   111    40    41   ar
   112    40    39    1
   113    16    15    2
   114    58    59    1
   115    96    89   am
   116    39    38    2
   117    13    14    1
   118    89    88    1
   119    91    88    1
   120    14    15    1
   121    33    32    1
   122    31    32    1
   123    31    30    1
   124    38    35    1
   125    88    87    1
   126    59    62    1
   127    59    60    1
   128    24    21    1
   129    50    49    1
   130    30    29    1
   131    49    48    1
   132    65    64    2
   133    62    63    1
   134    48    47    1
   135    35    36    1
   136    35    34    1
   137    87    85   am
   138    37    36    2
   139    61    60    2
   140    60    67   am
   141    21    20    1
   142    21    22    1
   143    64    63    1
   144    64    66   am
   145    47    44    1
   146    44    43    1
   147    44    45    1
   148    85    86    2
   149    85    84    1
   150    29    26    1
   151    67    68    1
   152    26    25    1
   153    26    27    1
   154    22    23    2
   155    84    83    1
   156    45    46    2
   157    68    71    1
   158    68    69    1
   159    27    28    2
   160    71    72    1
   161    81    79    1
   162    82    80    1
   163    78    77    2
   164    69    70    2
   165    73    72    1
   166    79    80    1
   167    79    76    1
   168    72    74    1
   169    77    76    1
   170    76    75    1
