@<TRIPOS>MOLECULE
tmp/4md2A09.pdb
 80 75 0 0 0
SMALL
GASTEIGER

@<TRIPOS>ATOM
      1  N         -8.2230   17.1550   63.6030 N.3   134  TRP134     -0.1241
      2  CA        -7.4630   16.1330   62.8920 C.3   134  TRP134      0.1605
      3  C         -8.2790   15.5450   61.7340 C.2   134  TRP134      0.2264
      4  O         -7.7840   15.3600   60.6250 O.2   134  TRP134     -0.2867
      5  CB        -7.0340   15.0200   63.8610 C.3   134  TRP134      0.0550
      6  CG        -6.2830   13.8680   63.1970 C.ar  134  TRP134      0.0003
      7  CD1       -4.9310   13.7610   63.0140 C.ar  134  TRP134      0.0946
      8  CD2       -6.8650   12.6660   62.6230 C.ar  134  TRP134      0.0152
      9  NE1       -4.6340   12.5780   62.3690 N.ar  134  TRP134     -0.2442
     10  CE2       -5.7950   11.8980   62.1220 C.ar  134  TRP134      0.0810
     11  CE3       -8.1700   12.1850   62.5010 C.ar  134  TRP134      0.0012
     12  CZ2       -6.0020   10.6430   61.4940 C.ar  134  TRP134      0.0191
     13  CZ3       -8.3750   10.9420   61.8770 C.ar  134  TRP134      0.0001
     14  CH2       -7.2960   10.1940   61.3790 C.ar  134  TRP134      0.0015
     15  N         -7.4820   15.9220   57.8530 N.3   138  THR138     -0.1218
     16  CA        -7.2960   14.7040   57.0840 C.3   138  THR138      0.1862
     17  C         -8.2180   14.7130   55.8620 C.2   138  THR138      0.2287
     18  O         -7.8020   14.3040   54.7820 O.2   138  THR138     -0.2866
     19  CB        -7.4780   13.4620   57.9840 C.3   138  THR138      0.1770
     20  OG1       -6.4330   13.4550   58.9660 O.3   138  THR138     -0.2211
     21  CG2       -7.4800   12.1150   57.1930 C.3   138  THR138      0.0375
     22  N         -6.5670   16.7230   53.3500 N.3   141  MET141     -0.1230
     23  CA        -5.4640   15.9810   52.7370 C.3   141  MET141      0.1702
     24  C         -6.0070   14.9980   51.7080 C.2   141  MET141      0.2592
     25  O         -5.4440   14.8390   50.6260 O.2   141  MET141     -0.2718
     26  CB        -4.6140   15.2140   53.7550 C.3   141  MET141      0.0401
     27  CG        -3.3710   14.5720   53.1130 C.3   141  MET141      0.0596
     28  SD        -2.6400   13.3530   54.2070 S.3   141  MET141     -0.1393
     29  CE        -3.8930   12.0860   54.0850 C.3   141  MET141      0.0692
     30  N         -7.0950   14.3240   52.0410 N.am  142  LEU142     -0.1980
     31  CA        -7.6440   13.3520   51.1030 C.3   142  LEU142      0.1596
     32  C         -8.1450   14.0160   49.8160 C.2   142  LEU142      0.2287
     33  O         -8.0180   13.4480   48.7320 O.2   142  LEU142     -0.2864
     34  CB        -8.7330   12.5040   51.7460 C.3   142  LEU142      0.0297
     35  CG        -8.2350   11.5640   52.8360 C.3   142  LEU142      0.0022
     36  CD1       -9.4520   11.0170   53.6030 C.3   142  LEU142      0.0001
     37  CD2       -7.3150   10.4540   52.2600 C.3   142  LEU142      0.0001
     38  N         -5.0160   14.6140   47.7990 N.3   145  LEU145     -0.1245
     39  CA        -4.5710   13.3890   47.1440 C.3   145  LEU145      0.1561
     40  C         -5.5010   13.0090   45.9770 C.2   145  LEU145      0.2260
     41  O         -5.0410   12.5230   44.9500 O.2   145  LEU145     -0.2867
     42  CB        -4.4100   12.2520   48.1580 C.3   145  LEU145      0.0270
     43  CG        -3.3670   12.5400   49.2490 C.3   145  LEU145      0.0019
     44  CD1       -3.1880   11.3250   50.1960 C.3   145  LEU145      0.0001
     45  CD2       -2.0330   13.0330   48.6390 C.3   145  LEU145      0.0001
     46  N          2.1350   10.8930   47.8690 N.3   169  VAL169     -0.1245
     47  CA         1.1080   10.1150   48.5590 C.3   169  VAL169      0.1561
     48  C          1.6450    9.3080   49.7320 C.2   169  VAL169      0.2260
     49  O          1.0710    9.3100   50.8200 O.2   169  VAL169     -0.2867
     50  CB         0.3650    9.1750   47.6310 C.3   169  VAL169      0.0252
     51  CG1       -0.5300    8.2050   48.4540 C.3   169  VAL169      0.0019
     52  CG2       -0.4290    9.9950   46.6420 C.3   169  VAL169      0.0019
     53  N          0.8100   10.9210   53.5130 N.3   173  SER173     -0.1217
     54  CA        -0.2060   10.1290   54.2090 C.3   173  SER173      0.1889
     55  C          0.2410    9.6420   55.5830 C.2   173  SER173      0.2288
     56  O         -0.5710    9.3240   56.4450 O.2   173  SER173     -0.2866
     57  CB        -0.6720    8.9570   53.3420 C.3   173  SER173      0.2089
     58  OG        -1.2290    9.4460   52.1390 O.3   173  SER173     -0.2183
     59  N         -0.5750   12.3690   59.1500 N.3   176  PRO176     -0.2102
     60  CA        -1.7210   12.2830   60.0530 C.3   176  PRO176      0.1504
     61  C         -1.6080   11.1040   61.0100 C.2   176  PRO176      0.2575
     62  O         -2.0830   11.1540   62.1400 O.2   176  PRO176     -0.2718
     63  CB        -2.9230   12.1260   59.0850 C.3   176  PRO176      0.0282
     64  CG        -2.3030   11.7640   57.7430 C.3   176  PRO176      0.0208
     65  CD        -1.0100   12.5550   57.7660 C.3   176  PRO176      0.0893
     66  N         -0.9360   10.0430   60.5760 N.am  177  VAL177     -0.1980
     67  CA        -0.7740    8.8980   61.4530 C.3   177  VAL177      0.1595
     68  C          0.1780    9.2100   62.6070 C.2   177  VAL177      0.2287
     69  O         -0.1020    8.9000   63.7630 O.2   177  VAL177     -0.2864
     70  CB        -0.2700    7.6820   60.6880 C.3   177  VAL177      0.0276
     71  CG1       -0.1750    6.4840   61.6190 C.3   177  VAL177      0.0022
     72  CG2       -1.1910    7.3910   59.5250 C.3   177  VAL177      0.0022
     73  N         -1.5340   11.4900   64.9920 N.3   180  LEU180     -0.1245
     74  CA        -2.5290   10.7850   65.7630 C.3   180  LEU180      0.1561
     75  C         -1.9640    9.9470   66.9240 C.2   180  LEU180      0.2260
     76  O         -2.5440    9.9310   68.0040 O.2   180  LEU180     -0.2867
     77  CB        -3.3480    9.9140   64.8280 C.3   180  LEU180      0.0270
     78  CG        -4.6500    9.3390   65.3530 C.3   180  LEU180      0.0019
     79  CD1       -5.6340   10.4860   65.6100 C.3   180  LEU180      0.0001
     80  CD2       -5.1620    8.3180   64.3340 C.3   180  LEU180      0.0001
@<TRIPOS>BOND
     1    41    40    2
     2    40    39    1
     3    52    50    1
     4    39    38    1
     5    39    42    1
     6    50    51    1
     7    50    47    1
     8    46    47    1
     9    42    43    1
    10    47    48    1
    11    45    43    1
    12    33    32    2
    13    43    44    1
    14    48    49    2
    15    32    31    1
    16    25    24    2
    17    31    34    1
    18    31    30    1
    19    24    30   am
    20    24    23    1
    21    34    35    1
    22    58    57    1
    23    37    35    1
    24    23    22    1
    25    23    26    1
    26    35    36    1
    27    27    26    1
    28    27    28    1
    29    57    54    1
    30    53    54    1
    31    29    28    1
    32    54    55    1
    33    18    17    2
    34    55    56    2
    35    17    16    1
    36    16    15    1
    37    16    19    1
    38    21    19    1
    39    64    65    1
    40    64    63    1
    41    65    59    1
    42    19    20    1
    43    63    60    1
    44    59    60    1
    45    72    70    1
    46    60    61    1
    47    66    61   am
    48    66    67    1
    49     4     3    2
    50    70    67    1
    51    70    71    1
    52    61    62    2
    53    14    12   ar
    54    14    13   ar
    55    67    68    1
    56    12    10   ar
    57     3     2    1
    58    13    11   ar
    59    10     9   ar
    60    10     8   ar
    61     9     7   ar
    62    11     8   ar
    63    68    69    2
    64     8     6   ar
    65     2     1    1
    66     2     5    1
    67     7     6   ar
    68     6     5    1
    69    80    78    1
    70    77    78    1
    71    77    74    1
    72    73    74    1
    73    78    79    1
    74    74    75    1
    75    75    76    2
