@<TRIPOS>MOLECULE
tmp/4md5B00.pdb
 162 158 0 0 0
SMALL
GASTEIGER

@<TRIPOS>ATOM
      1  N         45.2000   30.4790   -8.1470 N.3    10  VAL10      -0.1245
      2  CA        45.9790   29.4450   -8.8040 C.3    10  VAL10       0.1561
      3  C         45.1970   28.1490   -8.6800 C.2    10  VAL10       0.2260
      4  O         44.6690   27.8410   -7.6130 O.2    10  VAL10      -0.2867
      5  CB        47.3710   29.2610   -8.1660 C.3    10  VAL10       0.0252
      6  CG1       48.1940   28.3110   -9.0100 C.3    10  VAL10       0.0019
      7  CG2       48.0940   30.5850   -8.0530 C.3    10  VAL10       0.0019
      8  N         45.8110   24.1220   -9.5480 N.3    12  HIS12      -0.1241
      9  CA        46.6610   23.0590  -10.0560 C.3    12  HIS12       0.1621
     10  C         45.7320   21.8660  -10.2250 C.2    12  HIS12       0.2264
     11  O         45.2650   21.3070   -9.2330 O.2    12  HIS12      -0.2867
     12  CB        47.7780   22.7180   -9.0610 C.3    12  HIS12       0.0745
     13  CG        48.4200   23.9060   -8.3930 C.ar   12  HIS12       0.0817
     14  ND1       49.5540   24.5220   -8.8930 N.ar   12  HIS12      -0.2268
     15  CD2       48.1290   24.5530   -7.2390 C.ar   12  HIS12       0.1154
     16  CE1       49.9220   25.4980   -8.0830 C.ar   12  HIS12       0.1986
     17  NE2       49.0770   25.5410   -7.0680 N.ar   12  HIS12      -0.2212
     18  N         47.4650   17.0860  -16.5340 N.3    25  PHE25      -0.1241
     19  CA        47.7490   18.0520  -15.4860 C.3    25  PHE25       0.1605
     20  C         47.7120   19.4460  -16.0870 C.2    25  PHE25       0.2264
     21  O         48.3250   19.6860  -17.1280 O.2    25  PHE25      -0.2867
     22  CB        49.1330   17.7650  -14.8870 C.3    25  PHE25       0.0534
     23  CG        49.6780   18.8860  -14.0380 C.ar   25  PHE25      -0.0203
     24  CD1       49.0880   19.2070  -12.8240 C.ar   25  PHE25      -0.0042
     25  CD2       50.7730   19.6230  -14.4630 C.ar   25  PHE25      -0.0042
     26  CE1       49.5800   20.2440  -12.0470 C.ar   25  PHE25      -0.0003
     27  CE2       51.2750   20.6630  -13.6850 C.ar   25  PHE25      -0.0003
     28  CZ        50.6840   20.9690  -12.4770 C.ar   25  PHE25      -0.0000
     29  N         48.3360   23.5130  -14.8700 N.3    27  ASP27      -0.1239
     30  CA        48.7660   24.4530  -13.8350 C.3    27  ASP27       0.1674
     31  C         48.2750   25.8200  -14.2790 C.2    27  ASP27       0.2266
     32  O         48.7790   26.3480  -15.2550 O.2    27  ASP27      -0.2867
     33  CB        50.2980   24.4620  -13.7570 C.3    27  ASP27       0.1410
     34  CG        50.8240   24.7860  -12.3710 C.2    27  ASP27       0.3668
     35  OD1       50.2380   24.2980  -11.3740 O.co2  27  ASP27      -0.2456
     36  OD2       51.8470   25.5040  -12.2750 O.co2  27  ASP27      -0.2456
     37  N         47.0000   29.9150  -13.7270 N.3    29  TYR29      -0.1241
     38  CA        47.0940   31.1500  -12.9390 C.3    29  TYR29       0.1605
     39  C         46.0770   32.1850  -13.4070 C.2    29  TYR29       0.2264
     40  O         45.8780   32.3550  -14.6080 O.2    29  TYR29      -0.2867
     41  CB        48.5110   31.7300  -13.0400 C.3    29  TYR29       0.0534
     42  CG        49.5290   30.9410  -12.2550 C.ar   29  TYR29      -0.0201
     43  CD1       49.9860   29.7090  -12.7040 C.ar   29  TYR29      -0.0009
     44  CD2       50.0320   31.4390  -11.0630 C.ar   29  TYR29      -0.0009
     45  CE1       50.9250   28.9840  -11.9590 C.ar   29  TYR29       0.0417
     46  CE2       50.9630   30.7340  -10.3250 C.ar   29  TYR29       0.0417
     47  CZ        51.3990   29.5170  -10.7730 C.ar   29  TYR29       0.1957
     48  OH        52.3150   28.8320  -10.0100 O.3    29  TYR29      -0.2866
     49  N         54.8650   26.1450  -20.3470 N.3    46  TYR46      -0.1241
     50  CA        53.8620   27.1680  -20.0710 C.3    46  TYR46       0.1605
     51  C         53.5130   27.9130  -21.3480 C.2    46  TYR46       0.2264
     52  O         54.3610   28.1160  -22.2170 O.2    46  TYR46      -0.2867
     53  CB        54.3510   28.1530  -18.9940 C.3    46  TYR46       0.0534
     54  CG        54.2740   27.5900  -17.5960 C.ar   46  TYR46      -0.0201
     55  CD1       55.3450   26.9000  -17.0380 C.ar   46  TYR46      -0.0009
     56  CD2       53.1110   27.7410  -16.8350 C.ar   46  TYR46      -0.0009
     57  CE1       55.2680   26.3770  -15.7520 C.ar   46  TYR46       0.0417
     58  CE2       53.0190   27.2200  -15.5530 C.ar   46  TYR46       0.0417
     59  CZ        54.0990   26.5330  -15.0230 C.ar   46  TYR46       0.1957
     60  OH        53.9940   26.0140  -13.7560 O.3    46  TYR46      -0.2866
     61  N         54.9430   37.5590  -19.9740 N.3    55  PRO55      -0.2102
     62  CA        56.2430   37.5860  -19.3010 C.3    55  PRO55       0.1504
     63  C         56.5010   36.3410  -18.4700 C.2    55  PRO55       0.2575
     64  O         57.6270   35.8440  -18.4500 O.2    55  PRO55      -0.2718
     65  CB        56.1360   38.8170  -18.3930 C.3    55  PRO55       0.0282
     66  CG        55.1610   39.6990  -19.0840 C.3    55  PRO55       0.0208
     67  CD        54.1430   38.7570  -19.6460 C.3    55  PRO55       0.0893
     68  N         55.4710   35.8370  -17.8010 N.am   56  ASP56      -0.1974
     69  CA        55.6320   34.6400  -16.9790 C.3    56  ASP56       0.1708
     70  C         55.8830   33.3890  -17.8010 C.2    56  ASP56       0.2293
     71  O         56.7200   32.5680  -17.4310 O.2    56  ASP56      -0.2864
     72  CB        54.4140   34.4510  -16.0710 C.3    56  ASP56       0.1436
     73  CG        54.3120   35.5310  -15.0280 C.2    56  ASP56       0.3671
     74  OD1       55.3660   36.0120  -14.5760 O.co2  56  ASP56      -0.2456
     75  OD2       53.1890   35.9150  -14.6660 O.co2  56  ASP56      -0.2456
     76  N         59.5440   33.5450  -18.8160 N.3    59  TYR59      -0.1227
     77  CA        60.4360   33.3990  -17.6640 C.3    59  TYR59       0.1736
     78  C         60.4120   31.9700  -17.1340 C.2    59  TYR59       0.2595
     79  O         61.4550   31.3600  -16.9050 O.2    59  TYR59      -0.2718
     80  CB        60.0460   34.3960  -16.5670 C.3    59  TYR59       0.0548
     81  CG        60.8820   34.3280  -15.3030 C.ar   59  TYR59      -0.0200
     82  CD1       62.2650   34.3700  -15.3570 C.ar   59  TYR59      -0.0009
     83  CD2       60.2760   34.2560  -14.0520 C.ar   59  TYR59      -0.0009
     84  CE1       63.0310   34.3240  -14.2020 C.ar   59  TYR59       0.0417
     85  CE2       61.0310   34.2180  -12.8890 C.ar   59  TYR59       0.0417
     86  CZ        62.4080   34.2470  -12.9740 C.ar   59  TYR59       0.1957
     87  OH        63.1660   34.2030  -11.8270 O.3    59  TYR59      -0.2866
     88  N         59.2180   31.4300  -16.9530 N.am   60  TRP60      -0.1976
     89  CA        59.1000   30.0920  -16.4000 C.3    60  TRP60       0.1640
     90  C         59.6520   29.0330  -17.3540 C.2    60  TRP60       0.2290
     91  O         60.2790   28.0580  -16.9170 O.2    60  TRP60      -0.2864
     92  CB        57.6440   29.8190  -16.0290 C.3    60  TRP60       0.0576
     93  CG        57.1750   30.7180  -14.9230 C.ar   60  TRP60       0.0006
     94  CD1       57.9410   31.5380  -14.1390 C.ar   60  TRP60       0.0946
     95  CD2       55.8230   30.9060  -14.5020 C.ar   60  TRP60       0.0152
     96  NE1       57.1400   32.2200  -13.2440 N.ar   60  TRP60      -0.2442
     97  CE2       55.8380   31.8350  -13.4420 C.ar   60  TRP60       0.0810
     98  CE3       54.6020   30.3580  -14.9060 C.ar   60  TRP60       0.0012
     99  CZ2       54.6740   32.2430  -12.7950 C.ar   60  TRP60       0.0191
    100  CZ3       53.4460   30.7720  -14.2580 C.ar   60  TRP60       0.0001
    101  CH2       53.4950   31.6830  -13.2070 C.ar   60  TRP60       0.0015
    102  N         63.2960   28.1080  -17.1580 N.3    63  GLN63      -0.1245
    103  CA        63.7480   27.3520  -15.9960 C.3    63  GLN63       0.1566
    104  C         63.5610   25.8570  -16.2280 C.2    63  GLN63       0.2260
    105  O         62.4800   25.3200  -16.0000 O.2    63  GLN63      -0.2867
    106  CB        62.9920   27.8050  -14.7490 C.3    63  GLN63       0.0367
    107  CG        63.1090   29.3110  -14.4670 C.3    63  GLN63       0.0905
    108  CD        62.2700   29.7240  -13.2770 C.2    63  GLN63       0.2608
    109  OE1       62.1530   28.9810  -12.2990 O.2    63  GLN63      -0.2717
    110  NE2       61.6620   30.9030  -13.3580 N.am   63  GLN63      -0.0878
    111  N         62.1990   23.7600  -13.3150 N.3    66  LEU66      -0.1245
    112  CA        60.7750   23.9720  -13.1320 C.3    66  LEU66       0.1561
    113  C         59.9820   23.1860  -14.1620 C.2    66  LEU66       0.2260
    114  O         59.0090   22.5160  -13.8210 O.2    66  LEU66      -0.2867
    115  CB        60.4360   25.4640  -13.2470 C.3    66  LEU66       0.0270
    116  CG        58.9350   25.7680  -13.3390 C.3    66  LEU66       0.0019
    117  CD1       58.2230   25.4120  -12.0360 C.3    66  LEU66       0.0001
    118  CD2       58.7350   27.2390  -13.6510 C.3    66  LEU66       0.0001
    119  N         59.9310   19.5180  -13.3730 N.3    69  GLN69      -0.1231
    120  CA        59.0120   19.2660  -12.2640 C.3    69  GLN69       0.1698
    121  C         57.5860   19.1560  -12.7790 C.2    69  GLN69       0.2592
    122  O         56.8620   18.2180  -12.4470 O.2    69  GLN69      -0.2718
    123  CB        59.0900   20.3780  -11.2130 C.3    69  GLN69       0.0381
    124  CG        60.2660   20.2630  -10.2740 C.3    69  GLN69       0.0905
    125  CD        60.2470   18.9690   -9.4760 C.2    69  GLN69       0.2608
    126  OE1       59.2020   18.5360   -8.9960 O.2    69  GLN69      -0.2717
    127  NE2       61.4070   18.3430   -9.3410 N.am   69  GLN69      -0.0878
    128  N         57.1850   20.1230  -13.5940 N.am   70  ARG70      -0.1980
    129  CA        55.8310   20.1550  -14.1210 C.3    70  ARG70       0.1597
    130  C         55.5600   18.9890  -15.0680 C.2    70  ARG70       0.2287
    131  O         54.4600   18.4460  -15.0740 O.2    70  ARG70      -0.2864
    132  CB        55.5610   21.4950  -14.8060 C.3    70  ARG70       0.0334
    133  CG        55.6170   22.7030  -13.8650 C.3    70  ARG70       0.0492
    134  CD        54.5390   22.6090  -12.7820 C.3    70  ARG70       0.2205
    135  NE        54.6020   23.7550  -11.8700 N.pl3  70  ARG70      -0.0865
    136  CZ        55.1900   23.7410  -10.6760 C.cat  70  ARG70       0.5346
    137  NH1       55.7600   22.6380  -10.2170 N.pl3  70  ARG70       0.1354
    138  NH2       55.1970   24.8330   -9.9310 N.pl3  70  ARG70       0.1354
    139  N         54.6530   15.9520  -13.1060 N.3    73  ALA73      -0.1245
    140  CA        53.5400   16.1210  -12.1770 C.3    73  ALA73       0.1562
    141  C         52.4390   15.0840  -12.3500 C.2    73  ALA73       0.2260
    142  O         51.8320   14.6600  -11.3640 O.2    73  ALA73      -0.2867
    143  CB        52.9560   17.5410  -12.2740 C.3    73  ALA73       0.0290
    144  N         54.1020   12.3290  -10.1630 N.3    76  THR76      -0.1203
    145  CA        54.5360   12.6210   -8.8010 C.3    76  THR76       0.1994
    146  C         53.4970   13.3850   -8.0000 C.2    76  THR76       0.2617
    147  O         53.5780   13.4540   -6.7770 O.2    76  THR76      -0.2717
    148  CB        55.8260   13.4570   -8.7950 C.3    76  THR76       0.1784
    149  OG1       55.5630   14.7200   -9.4110 O.3    76  THR76      -0.2211
    150  CG2       56.9470   12.7440   -9.5540 C.3    76  THR76       0.0376
    151  N         52.5230   13.9600   -8.6950 N.am   77  TYR77      -0.1975
    152  CA        51.5110   14.7910   -8.0520 C.3    77  TYR77       0.1639
    153  C         50.1260   14.1850   -8.2770 C.2    77  TYR77       0.2290
    154  O         49.4700   13.7480   -7.3320 O.2    77  TYR77      -0.2864
    155  CB        51.6000   16.2100   -8.6090 C.3    77  TYR77       0.0560
    156  CG        50.5400   17.1840   -8.1200 C.ar   77  TYR77      -0.0198
    157  CD1       50.4540   17.5410   -6.7820 C.ar   77  TYR77      -0.0009
    158  CD2       49.6780   17.7940   -9.0190 C.ar   77  TYR77      -0.0009
    159  CE1       49.4990   18.4620   -6.3460 C.ar   77  TYR77       0.0417
    160  CE2       48.7120   18.7050   -8.5960 C.ar   77  TYR77       0.0417
    161  CZ        48.6380   19.0370   -7.2630 C.ar   77  TYR77       0.1957
    162  OH        47.6950   19.9540   -6.8520 O.3    77  TYR77      -0.2866
@<TRIPOS>BOND
     1    52    51    2
     2    51    50    1
     3    49    50    1
     4    50    53    1
     5    61    67    1
     6    61    62    1
     7    67    66    1
     8    62    63    1
     9    62    65    1
    10    66    65    1
    11    53    54    1
    12    76    77    1
    13    63    64    2
    14    63    68   am
    15    68    69    1
    16    70    71    2
    17    70    69    1
    18    77    78    1
    19    77    80    1
    20    54    55   ar
    21    54    56   ar
    22    90    91    2
    23    90    89    1
    24   102   103    1
    25    78    88   am
    26    78    79    2
    27    21    20    2
    28    55    57   ar
    29    69    72    1
    30    88    89    1
    31    56    58   ar
    32    80    81    1
    33    18    19    1
    34    89    92    1
    35   104   105    2
    36   104   103    1
    37    20    19    1
    38    72    73    1
    39    92    93    1
    40   103   106    1
    41    57    59   ar
    42    58    59   ar
    43    19    22    1
    44    82    81   ar
    45    82    84   ar
    46    81    83   ar
    47    32    31    2
    48   131   130    2
    49   130   129    1
    50    73    75   ar
    51    73    74   ar
    52    59    60    1
    53    93    95   ar
    54    93    94   ar
    55    98    95   ar
    56    98   100   ar
    57    22    23    1
    58    29    30    1
    59   132   129    1
    60   132   133    1
    61   106   107    1
    62    40    39    2
    63    95    97   ar
    64   107   108    1
    65    25    23   ar
    66    25    27   ar
    67    31    30    1
    68   100   101   ar
    69    84    86   ar
    70   113   114    2
    71   113   112    1
    72    94    96   ar
    73   129   128    1
    74    83    85   ar
    75    23    24   ar
    76   133   134    1
    77    30    33    1
    78    33    34    1
    79    37    38    1
    80    27    28   ar
    81   118   116    1
    82   128   121   am
    83    97    96   ar
    84    97    99   ar
    85    39    38    1
    86   119   120    1
    87   110   108   am
    88   116   115    1
    89   116   117    1
    90   111   112    1
    91   108   109    2
    92   115   112    1
    93   101    99   ar
    94   139   140    1
    95    41    38    1
    96    41    42    1
    97    86    85   ar
    98    86    87    1
    99    24    26   ar
   100   134   135    1
   101   121   122    2
   102   121   120    1
   103    43    42   ar
   104    43    45   ar
   105    28    26   ar
   106    34    36   ar
   107    34    35   ar
   108   141   140    1
   109   141   142    2
   110   143   140    1
   111   120   123    1
   112    42    44   ar
   113    45    47   ar
   114   135   136    2
   115   123   124    1
   116    44    46   ar
   117    47    46   ar
   118    47    48    1
   119   136   137    1
   120   136   138    1
   121   124   125    1
   122    10     9    1
   123    10    11    2
   124   144   145    1
   125     9     8    1
   126     9    12    1
   127   150   148    1
   128   125   127   am
   129   125   126    2
   130   149   148    1
   131    12    13    1
   132   158   160   ar
   133   158   156   ar
   134     6     5    1
   135    14    13   ar
   136    14    16   ar
   137     2     3    1
   138     2     5    1
   139     2     1    1
   140   145   148    1
   141   145   146    1
   142   151   152    1
   143   151   146   am
   144     3     4    2
   145   155   156    1
   146   155   152    1
   147   160   161   ar
   148    13    15   ar
   149   153   152    1
   150   153   154    2
   151     5     7    1
   152   156   157   ar
   153    16    17   ar
   154   146   147    2
   155   161   162    1
   156   161   159   ar
   157    15    17   ar
   158   157   159   ar
