@<TRIPOS>MOLECULE
tmp/4md6A00.pdb
 150 143 0 0 0
SMALL
GASTEIGER

@<TRIPOS>ATOM
      1  N         52.0870   13.0990   54.9150 N.3    78  TYR78      -0.1227
      2  CA        50.7940   13.6700   55.2790 C.3    78  TYR78       0.1736
      3  C         49.8800   12.8190   56.1640 C.2    78  TYR78       0.2595
      4  O         49.3310   13.3190   57.1480 O.2    78  TYR78      -0.2718
      5  CB        50.0120   14.0770   54.0240 C.3    78  TYR78       0.0548
      6  CG        48.7320   14.7990   54.3610 C.ar   78  TYR78      -0.0200
      7  CD1       48.7620   16.0990   54.8550 C.ar   78  TYR78      -0.0009
      8  CD2       47.5000   14.1560   54.2790 C.ar   78  TYR78      -0.0009
      9  CE1       47.6020   16.7420   55.2730 C.ar   78  TYR78       0.0417
     10  CE2       46.3240   14.7930   54.6940 C.ar   78  TYR78       0.0417
     11  CZ        46.3880   16.0860   55.1960 C.ar   78  TYR78       0.1957
     12  OH        45.2530   16.7160   55.6570 O.3    78  TYR78      -0.2866
     13  N         49.6860   11.5500   55.8160 N.am   79  HIS79      -0.1975
     14  CA        48.8040   10.7060   56.6200 C.3    79  HIS79       0.1656
     15  C         49.5170   10.2370   57.8860 C.2    79  HIS79       0.2291
     16  O         49.9500    9.0900   57.9960 O.2    79  HIS79      -0.2864
     17  CB        48.2990    9.5160   55.7910 C.3    79  HIS79       0.0771
     18  CG        47.4790    9.9230   54.6050 C.ar   79  HIS79       0.0820
     19  ND1       47.9860    9.9440   53.3230 N.ar   79  HIS79      -0.2267
     20  CD2       46.2090   10.3870   54.5140 C.ar   79  HIS79       0.1154
     21  CE1       47.0640   10.4040   52.4940 C.ar   79  HIS79       0.1986
     22  NE2       45.9760   10.6800   53.1920 N.ar   79  HIS79      -0.2212
     23  N         50.3030    6.7040   50.7340 N.3   126  VAL126     -0.1245
     24  CA        49.4950    6.3440   49.5740 C.3   126  VAL126      0.1561
     25  C         50.2220    5.4470   48.5720 C.2   126  VAL126      0.2260
     26  O         49.6180    4.5480   47.9840 O.2   126  VAL126     -0.2867
     27  CB        48.9970    7.6040   48.8390 C.3   126  VAL126      0.0252
     28  CG1       48.0270    8.3720   49.7290 C.3   126  VAL126      0.0019
     29  CG2       50.1770    8.4850   48.4570 C.3   126  VAL126      0.0019
     30  N         37.0430    7.5510   50.5410 N.3   181  LEU181     -0.1245
     31  CA        36.4270    8.4210   49.5390 C.3   181  LEU181      0.1561
     32  C         35.5010    7.7130   48.5560 C.2   181  LEU181      0.2260
     33  O         34.6040    8.3370   47.9970 O.2   181  LEU181     -0.2867
     34  CB        37.4960    9.2160   48.7810 C.3   181  LEU181      0.0270
     35  CG        38.0740   10.4080   49.5550 C.3   181  LEU181      0.0019
     36  CD1       39.0900   11.1390   48.6910 C.3   181  LEU181      0.0001
     37  CD2       36.9460   11.3560   49.9560 C.3   181  LEU181      0.0001
     38  N         38.8870   16.0380   55.0440 N.3   221  LEU221     -0.1245
     39  CA        39.4370   16.8540   53.9580 C.3   221  LEU221      0.1561
     40  C         39.6500   18.3260   54.3050 C.2   221  LEU221      0.2260
     41  O         40.1360   19.0850   53.4660 O.2   221  LEU221     -0.2867
     42  CB        38.5040   16.7990   52.7440 C.3   221  LEU221      0.0270
     43  CG        38.0150   15.4420   52.2330 C.3   221  LEU221      0.0019
     44  CD1       37.0570   15.6680   51.0730 C.3   221  LEU221      0.0001
     45  CD2       39.1870   14.5860   51.8050 C.3   221  LEU221      0.0001
     46  N         41.7720   20.2560   55.4160 N.3   223  ALA223     -0.1231
     47  CA        43.0080   21.0050   55.1860 C.3   223  ALA223      0.1694
     48  C         42.7640   21.9330   53.9860 C.2   223  ALA223      0.2591
     49  O         43.3510   23.0160   53.8830 O.2   223  ALA223     -0.2718
     50  CB        44.1470   20.0590   54.8780 C.3   223  ALA223      0.0304
     51  N         41.8860   21.4930   53.0880 N.am  224  ILE224     -0.1980
     52  CA        41.5550   22.2480   51.8840 C.3   224  ILE224      0.1595
     53  C         40.7820   23.5410   52.1960 C.2   224  ILE224      0.2287
     54  O         40.5620   24.3610   51.3100 O.2   224  ILE224     -0.2864
     55  CB        40.7180   21.3700   50.9020 C.3   224  ILE224      0.0276
     56  CG1       40.8170   21.9190   49.4750 C.3   224  ILE224      0.0022
     57  CG2       39.2530   21.3440   51.3330 C.3   224  ILE224      0.0022
     58  CD1       42.1930   21.7600   48.8460 C.3   224  ILE224      0.0001
     59  N         47.0270   26.1980   53.9040 N.3   231  GLN231     -0.1245
     60  CA        46.6280   25.2670   52.8490 C.3   231  GLN231      0.1566
     61  C         47.7790   24.9370   51.8930 C.2   231  GLN231      0.2260
     62  O         47.9420   23.7830   51.4990 O.2   231  GLN231     -0.2867
     63  CB        45.4330   25.8400   52.0640 C.3   231  GLN231      0.0367
     64  CG        45.3920   25.4860   50.5650 C.3   231  GLN231      0.0905
     65  CD        45.1750   24.0100   50.2960 C.2   231  GLN231      0.2608
     66  OE1       45.2620   23.5620   49.1500 O.2   231  GLN231     -0.2717
     67  NE2       44.8890   23.2420   51.3480 N.am  231  GLN231     -0.0878
     68  N         50.0290   22.4740   53.5850 N.3   234  ILE234     -0.1231
     69  CA        49.3880   21.1630   53.6680 C.3   234  ILE234      0.1692
     70  C         49.3940   20.4960   52.2930 C.2   234  ILE234      0.2591
     71  O         49.6350   19.2970   52.1790 O.2   234  ILE234     -0.2718
     72  CB        47.9390   21.2820   54.1790 C.3   234  ILE234      0.0266
     73  CG1       47.9290   21.8310   55.6120 C.3   234  ILE234      0.0019
     74  CG2       47.2650   19.9220   54.1290 C.3   234  ILE234      0.0020
     75  CD1       48.6440   20.9440   56.6240 C.3   234  ILE234      0.0001
     76  N         49.1340   21.2790   51.2490 N.am  235  ALA235     -0.1980
     77  CA        49.1360   20.7510   49.8890 C.3   235  ALA235      0.1597
     78  C         50.5500   20.2740   49.5480 C.2   235  ALA235      0.2287
     79  O         50.7320   19.2870   48.8320 O.2   235  ALA235     -0.2864
     80  CB        48.6790   21.8290   48.9030 C.3   235  ALA235      0.0319
     81  N         50.9290   16.8360   51.0960 N.3   238  VAL238     -0.1231
     82  CA        50.2020   15.8300   50.3300 C.3   238  VAL238      0.1692
     83  C         50.9880   15.5040   49.0650 C.2   238  VAL238      0.2591
     84  O         51.1750   14.3340   48.7210 O.2   238  VAL238     -0.2718
     85  CB        48.7870   16.3280   49.9520 C.3   238  VAL238      0.0266
     86  CG1       48.1740   15.4210   48.8990 C.3   238  VAL238      0.0020
     87  CG2       47.9050   16.3590   51.1910 C.3   238  VAL238      0.0020
     88  N         51.4560   16.5450   48.3810 N.am  239  ALA239     -0.1980
     89  CA        52.2360   16.3790   47.1580 C.3   239  ALA239      0.1597
     90  C         53.4650   15.5140   47.4270 C.2   239  ALA239      0.2287
     91  O         53.7890   14.6220   46.6420 O.2   239  ALA239     -0.2864
     92  CB        52.6620   17.7430   46.6170 C.3   239  ALA239      0.0319
     93  N         52.3190   11.8530   47.9070 N.3   242  PHE242     -0.1227
     94  CA        51.8210   11.3330   46.6350 C.3   242  PHE242      0.1736
     95  C         52.8870   11.1680   45.5540 C.2   242  PHE242      0.2595
     96  O         52.9550   10.1320   44.8960 O.2   242  PHE242     -0.2718
     97  CB        50.7010   12.2320   46.1000 C.3   242  PHE242      0.0547
     98  CG        49.3680   12.0090   46.7630 C.ar  242  PHE242     -0.0202
     99  CD1       49.2430   12.0570   48.1500 C.ar  242  PHE242     -0.0042
    100  CD2       48.2340   11.7510   45.9990 C.ar  242  PHE242     -0.0042
    101  CE1       48.0080   11.8510   48.7650 C.ar  242  PHE242     -0.0003
    102  CE2       46.9940   11.5440   46.6040 C.ar  242  PHE242     -0.0003
    103  CZ        46.8810   11.5940   47.9900 C.ar  242  PHE242     -0.0000
    104  N         53.7160   12.1890   45.3670 N.am  243  PHE243     -0.1976
    105  CA        54.7570   12.1460   44.3450 C.3   243  PHE243      0.1639
    106  C         56.1110   11.6850   44.8770 C.2   243  PHE243      0.2290
    107  O         56.5910   10.6080   44.5200 O.2   243  PHE243     -0.2864
    108  CB        54.8950   13.5270   43.6930 C.3   243  PHE243      0.0560
    109  CG        53.7350   13.8980   42.8100 C.ar  243  PHE243     -0.0200
    110  CD1       53.7280   13.5460   41.4630 C.ar  243  PHE243     -0.0042
    111  CD2       52.6350   14.5750   43.3290 C.ar  243  PHE243     -0.0042
    112  CE1       52.6420   13.8620   40.6440 C.ar  243  PHE243     -0.0003
    113  CE2       51.5430   14.8950   42.5200 C.ar  243  PHE243     -0.0003
    114  CZ        51.5480   14.5380   41.1740 C.ar  243  PHE243     -0.0000
    115  N         50.2120   21.0040   39.9940 N.3   252  ILE252     -0.1245
    116  CA        49.5270   20.9720   41.2800 C.3   252  ILE252      0.1561
    117  C         48.3220   21.9130   41.3310 C.2   252  ILE252      0.2260
    118  O         47.2450   21.5200   41.7730 O.2   252  ILE252     -0.2867
    119  CB        50.4920   21.3220   42.4400 C.3   252  ILE252      0.0252
    120  CG1       51.4960   20.1830   42.6330 C.3   252  ILE252      0.0019
    121  CG2       49.7080   21.5700   43.7270 C.3   252  ILE252      0.0019
    122  CD1       52.4680   20.3940   43.7840 C.3   252  ILE252      0.0001
    123  N         45.3150   20.5010   39.5650 N.3   255  MET255     -0.1230
    124  CA        44.8560   19.2940   40.2480 C.3   255  MET255      0.1702
    125  C         44.1250   19.6680   41.5330 C.2   255  MET255      0.2592
    126  O         43.1690   19.0020   41.9400 O.2   255  MET255     -0.2718
    127  CB        46.0400   18.3790   40.5790 C.3   255  MET255      0.0401
    128  CG        46.8280   17.9010   39.3640 C.3   255  MET255      0.0596
    129  SD        48.1850   16.7760   39.7980 S.3   255  MET255     -0.1393
    130  CE        47.3910   15.1810   39.5310 C.3   255  MET255      0.0692
    131  N         44.5850   20.7350   42.1760 N.am  256  GLN256     -0.1979
    132  CA        43.9570   21.2000   43.4030 C.3   256  GLN256      0.1601
    133  C         42.5630   21.7050   43.0680 C.2   256  GLN256      0.2287
    134  O         41.6000   21.4380   43.7870 O.2   256  GLN256     -0.2864
    135  CB        44.7790   22.3270   44.0300 C.3   256  GLN256      0.0394
    136  CG        46.0250   21.8610   44.7710 C.3   256  GLN256      0.0908
    137  CD        45.7020   20.8800   45.8810 C.2   256  GLN256      0.2608
    138  OE1       45.5590   19.6830   45.6440 O.2   256  GLN256     -0.2717
    139  NE2       45.5650   21.3860   47.1010 N.am  256  GLN256     -0.0878
    140  N         40.3940   18.7650   42.3860 N.3   259  PHE259     -0.1241
    141  CA        39.9890   18.1140   43.6280 C.3   259  PHE259      0.1605
    142  C         38.8740   18.9090   44.3090 C.2   259  PHE259      0.2264
    143  O         37.8580   18.3490   44.7320 O.2   259  PHE259     -0.2867
    144  CB        41.1980   17.9980   44.5640 C.3   259  PHE259      0.0534
    145  CG        40.8850   17.3720   45.8950 C.ar  259  PHE259     -0.0203
    146  CD1       40.4960   16.0390   45.9780 C.ar  259  PHE259     -0.0042
    147  CD2       40.9980   18.1120   47.0670 C.ar  259  PHE259     -0.0042
    148  CE1       40.2230   15.4480   47.2150 C.ar  259  PHE259     -0.0003
    149  CE2       40.7300   17.5340   48.3090 C.ar  259  PHE259     -0.0003
    150  CZ        40.3400   16.1960   48.3820 C.ar  259  PHE259     -0.0000
@<TRIPOS>BOND
     1   128   129    1
     2   128   127    1
     3   130   129    1
     4   123   124    1
     5   115   116    1
     6   124   127    1
     7   124   125    1
     8   112   114   ar
     9   112   110   ar
    10   114   113   ar
    11   116   117    1
    12   116   119    1
    13   117   118    2
    14   110   109   ar
    15   125   126    2
    16   125   131   am
    17   131   132    1
    18   140   141    1
    19   119   120    1
    20   119   121    1
    21   113   111   ar
    22   120   122    1
    23   109   111   ar
    24   109   108    1
    25   133   132    1
    26   133   134    2
    27   132   135    1
    28   141   142    1
    29   141   144    1
    30   108   105    1
    31   135   136    1
    32   142   143    2
    33   105   106    1
    34   105   104    1
    35   107   106    2
    36   144   145    1
    37   136   137    1
    38    96    95    2
    39   104    95   am
    40    95    94    1
    41   138   137    2
    42   137   139   am
    43   145   146   ar
    44   145   147   ar
    45   146   148   ar
    46   100   102   ar
    47   100    98   ar
    48    97    94    1
    49    97    98    1
    50   102   103   ar
    51    92    89    1
    52    94    93    1
    53    91    90    2
    54    98    99   ar
    55   147   149   ar
    56    89    90    1
    57    89    88    1
    58   148   150   ar
    59    26    25    2
    60   103   101   ar
    61    33    32    2
    62    99   101   ar
    63   149   150   ar
    64    88    83   am
    65    29    27    1
    66    32    31    1
    67    25    24    1
    68    36    35    1
    69    84    83    2
    70    34    31    1
    71    34    35    1
    72    79    78    2
    73    27    24    1
    74    27    28    1
    75    58    56    1
    76    86    85    1
    77    80    77    1
    78    83    82    1
    79    66    65    2
    80    56    55    1
    81    31    30    1
    82    78    77    1
    83    35    37    1
    84    24    23    1
    85    77    76    1
    86    85    82    1
    87    85    87    1
    88    65    64    1
    89    65    67   am
    90    82    81    1
    91    64    63    1
    92    55    57    1
    93    55    52    1
    94    44    43    1
    95    76    70   am
    96    54    53    2
    97    62    61    2
    98    45    43    1
    99    52    53    1
   100    52    51    1
   101    61    60    1
   102    63    60    1
   103    71    70    2
   104    43    42    1
   105    70    69    1
   106    21    22   ar
   107    21    19   ar
   108    42    39    1
   109    60    59    1
   110    51    48   am
   111    22    20   ar
   112    19    18   ar
   113    41    40    2
   114    68    69    1
   115    69    72    1
   116    49    48    2
   117    39    40    1
   118    39    38    1
   119    48    47    1
   120     5     6    1
   121     5     2    1
   122    74    72    1
   123    72    73    1
   124     8     6   ar
   125     8    10   ar
   126     6     7   ar
   127    20    18   ar
   128    18    17    1
   129    10    11   ar
   130     7     9   ar
   131    50    47    1
   132     1     2    1
   133    47    46    1
   134    11     9   ar
   135    11    12    1
   136     2     3    1
   137    73    75    1
   138    17    14    1
   139    13     3   am
   140    13    14    1
   141     3     4    2
   142    14    15    1
   143    15    16    2
