@<TRIPOS>MOLECULE
tmp/4mdbA00.pdb
 105 104 0 0 0
SMALL
GASTEIGER

@<TRIPOS>ATOM
      1  N        -13.6140   32.4610   -1.2970 N.3     1  HIS1       -0.1241
      2  CA       -12.2930   33.0370   -1.7210 C.3     1  HIS1        0.1621
      3  C        -12.4790   34.1820   -2.7260 C.2     1  HIS1        0.2264
      4  O        -13.0920   33.9900   -3.7840 O.2     1  HIS1       -0.2867
      5  CB       -11.4100   31.9360   -2.3350 C.3     1  HIS1        0.0745
      6  CG        -9.9740   32.3270   -2.5090 C.ar    1  HIS1        0.0817
      7  ND1       -9.0800   32.3760   -1.4590 N.ar    1  HIS1       -0.2268
      8  CD2       -9.2720   32.6740   -3.6170 C.ar    1  HIS1        0.1154
      9  CE1       -7.8930   32.7420   -1.9120 C.ar    1  HIS1        0.1986
     10  NE2       -7.9820   32.9290   -3.2180 N.ar    1  HIS1       -0.2212
     11  N         -9.5660   13.7080   -8.6400 N.3    35  ASP35      -0.1225
     12  CA        -9.3520   14.6610   -7.5000 C.3    35  ASP35       0.1805
     13  C         -9.5390   13.8400   -6.2010 C.2    35  ASP35       0.2597
     14  O        -10.0880   12.7190   -6.1710 O.2    35  ASP35      -0.2718
     15  CB       -10.3960   15.7710   -7.5260 C.3    35  ASP35       0.1424
     16  CG       -10.0880   16.9420   -6.6000 C.2    35  ASP35       0.3668
     17  OD1       -8.8970   17.2180   -6.4280 O.co2  35  ASP35      -0.2456
     18  OD2      -11.1380   17.5040   -6.1580 O.co2  35  ASP35      -0.2456
     19  N         -9.0860   14.4610   -5.1010 N.am   36  GLU36      -0.1979
     20  CA        -9.1250   13.9150   -3.7570 C.3    36  GLU36       0.1602
     21  C        -10.1860   14.6390   -2.9350 C.2    36  GLU36       0.2287
     22  O        -10.3700   15.8480   -3.0650 O.2    36  GLU36      -0.2864
     23  CB        -7.7390   14.1310   -3.1210 C.3    36  GLU36       0.0415
     24  CG        -6.5920   13.4170   -3.7940 C.3    36  GLU36       0.1163
     25  CD        -5.8180   14.2460   -4.8520 C.2    36  GLU36       0.3649
     26  OE1       -4.6480   13.8540   -5.1810 O.co2  36  GLU36      -0.2457
     27  OE2       -6.3900   15.2630   -5.3350 O.co2  36  GLU36      -0.2457
     28  N         -5.9760   18.8430  -10.7440 N.3   105  ASP105     -0.1225
     29  CA        -5.6140   20.1650  -10.2380 C.3   105  ASP105      0.1805
     30  C         -4.1430   20.3270   -9.8400 C.2   105  ASP105      0.2598
     31  O         -3.3300   19.4290   -9.9760 O.2   105  ASP105     -0.2718
     32  CB        -6.6330   20.5860   -9.2100 C.3   105  ASP105      0.1424
     33  CG        -6.5640   19.8580   -7.8770 C.2   105  ASP105      0.3668
     34  OD1       -5.4970   19.3770   -7.5560 O.co2 105  ASP105     -0.2456
     35  OD2       -7.6190   19.6990   -7.1400 O.co2 105  ASP105     -0.2456
     36  N         -3.8160   21.5340   -9.3490 N.am  106  ASN106     -0.1960
     37  CA        -2.4370   21.9150   -9.0900 C.3   106  ASN106      0.1819
     38  C         -1.9110   21.6550   -7.7130 C.2   106  ASN106      0.2621
     39  O         -0.9850   22.3280   -7.2940 O.2   106  ASN106     -0.2715
     40  CB        -2.2420   23.4200   -9.3740 C.3   106  ASN106      0.1195
     41  CG        -2.6490   23.7860  -10.7380 C.2   106  ASN106      0.2630
     42  OD1       -1.9450   23.4670  -11.7000 O.2   106  ASN106     -0.2716
     43  ND2       -3.8670   24.3420  -10.8630 N.am  106  ASN106     -0.0877
     44  N         -2.4820   20.7100   -7.0000 N.am  107  ALA107     -0.1964
     45  CA        -1.9530   20.2300   -5.7640 C.3   107  ALA107      0.1713
     46  C         -0.4920   19.8920   -5.9670 C.2   107  ALA107      0.2458
     47  O         -0.0760   19.3930   -7.0110 O.2   107  ALA107     -0.2730
     48  CB        -2.7040   19.0530   -5.2300 C.3   107  ALA107      0.0333
     49  N          0.3390   20.2920   -4.9930 N.am  108  PRO108     -0.2727
     50  CA         1.8050   20.0620   -5.1740 C.3   108  PRO108      0.1402
     51  C          2.2130   18.6400   -5.5380 C.2   108  PRO108      0.2269
     52  O          3.0780   18.4920   -6.4120 O.2   108  PRO108     -0.2865
     53  CB         2.4050   20.4800   -3.8070 C.3   108  PRO108      0.0296
     54  CG         1.4460   21.5110   -3.3430 C.3   108  PRO108      0.0237
     55  CD         0.0320   21.0950   -3.8000 C.3   108  PRO108      0.0939
     56  N         -5.3310   27.5700  -10.7480 N.3   131  ALA131     -0.1231
     57  CA        -5.5650   27.6140   -9.3080 C.3   131  ALA131      0.1694
     58  C         -6.9460   28.1270   -8.8410 C.2   131  ALA131      0.2592
     59  O         -7.5610   28.9530   -9.5280 O.2   131  ALA131     -0.2718
     60  CB        -4.4290   28.4260   -8.7120 C.3   131  ALA131      0.0304
     61  N         -7.4350   27.6090   -7.7200 N.am  132  TYR132     -0.1962
     62  CA        -8.6970   27.9570   -7.1120 C.3   132  TYR132      0.1771
     63  C         -9.8500   27.8190   -8.0960 C.2   132  TYR132      0.2620
     64  O        -10.7770   28.6350   -8.0840 O.2   132  TYR132     -0.2715
     65  CB        -8.6610   29.4000   -6.5560 C.3   132  TYR132      0.0574
     66  CG        -7.7820   29.5150   -5.3560 C.ar  132  TYR132     -0.0198
     67  CD1       -8.2850   29.2380   -4.0860 C.ar  132  TYR132     -0.0009
     68  CD2       -6.4530   29.8650   -5.4860 C.ar  132  TYR132     -0.0009
     69  CE1       -7.4660   29.3320   -2.9660 C.ar  132  TYR132      0.0417
     70  CE2       -5.6260   29.9640   -4.3830 C.ar  132  TYR132      0.0417
     71  CZ        -6.1330   29.6940   -3.1300 C.ar  132  TYR132      0.1957
     72  OH        -5.3080   29.7840   -2.0380 O.3   132  TYR132     -0.2866
     73  N         -9.8270   26.7520   -8.9300 N.am  133  SER133     -0.1936
     74  CA       -10.8970   26.6020   -9.9240 C.3   133  SER133      0.2040
     75  C        -11.6930   25.2730   -9.8090 C.2   133  SER133      0.2485
     76  O        -11.8000   24.5370  -10.7440 O.2   133  SER133     -0.2729
     77  CB       -10.2990   26.7680  -11.2830 C.3   133  SER133      0.2129
     78  OG        -9.6750   28.0770  -11.4820 O.3   133  SER133     -0.2179
     79  N        -12.2240   24.9560   -8.6310 N.am  134  PRO134     -0.2726
     80  CA       -13.0750   23.7390   -8.6000 C.3   134  PRO134      0.1402
     81  C        -14.3560   23.8380   -9.3950 C.2   134  PRO134      0.2269
     82  O        -14.9090   22.8300   -9.8000 O.2   134  PRO134     -0.2865
     83  CB       -13.3530   23.5810   -7.1110 C.3   134  PRO134      0.0296
     84  CG       -13.3310   24.9860   -6.5830 C.3   134  PRO134      0.0237
     85  CD       -12.2080   25.6400   -7.3040 C.3   134  PRO134      0.0939
     86  N        -15.0730   18.2160   -8.8490 N.3   140  ASP140     -0.1239
     87  CA       -15.6770   19.1200   -7.8400 C.3   140  ASP140      0.1674
     88  C        -17.0790   19.5900   -8.1990 C.2   140  ASP140      0.2266
     89  O        -17.9950   19.4100   -7.3900 O.2   140  ASP140     -0.2867
     90  CB       -14.7050   20.2810   -7.6130 C.3   140  ASP140      0.1410
     91  CG       -13.4900   19.8120   -6.7910 C.2   140  ASP140      0.3668
     92  OD1      -13.7010   19.0510   -5.7930 O.co2 140  ASP140     -0.2456
     93  OD2      -12.3670   20.1410   -7.0940 O.co2 140  ASP140     -0.2456
     94  N        -15.5100   34.0030  -10.4920 N.3   199  TYR199     -0.1241
     95  CA       -16.5190   32.9490  -10.2560 C.3   199  TYR199      0.1605
     96  C        -17.8050   33.3640  -10.8960 C.2   199  TYR199      0.2264
     97  O        -17.9910   34.5430  -11.1990 O.2   199  TYR199     -0.2867
     98  CB       -16.7240   32.6240   -8.7820 C.3   199  TYR199      0.0534
     99  CG       -15.5000   32.0200   -8.1520 C.ar  199  TYR199     -0.0201
    100  CD1      -14.8550   30.9320   -8.7180 C.ar  199  TYR199     -0.0009
    101  CD2      -14.9370   32.5700   -7.0080 C.ar  199  TYR199     -0.0009
    102  CE1      -13.7240   30.3960   -8.1570 C.ar  199  TYR199      0.0417
    103  CE2      -13.8150   32.0450   -6.4370 C.ar  199  TYR199      0.0417
    104  CZ       -13.2120   30.9430   -7.0040 C.ar  199  TYR199      0.1957
    105  OH       -12.1030   30.4610   -6.4450 O.3   199  TYR199     -0.2866
@<TRIPOS>BOND
     1    42    41    2
     2    78    77    1
     3    77    74    1
     4    97    96    2
     5    96    95    1
     6    43    41   am
     7    56    57    1
     8    28    29    1
     9    76    75    2
    10    41    40    1
    11    94    95    1
    12    95    98    1
    13    29    30    1
    14    29    32    1
    15    31    30    2
    16    74    75    1
    17    74    73    1
    18    30    36   am
    19    75    79   am
    20    82    81    2
    21    59    58    2
    22    81    80    1
    23    40    37    1
    24    36    37    1
    25    57    58    1
    26    57    60    1
    27    32    33    1
    28    37    38    1
    29    73    63   am
    30    86    87    1
    31    58    61   am
    32    98    99    1
    33   100   102   ar
    34   100    99   ar
    35    11    12    1
    36    79    80    1
    37    79    85    1
    38    80    83    1
    39    88    87    1
    40    88    89    2
    41   102   104   ar
    42    99   101   ar
    43    63    64    2
    44    63    62    1
    45    33    34   ar
    46    33    35   ar
    47    87    90    1
    48    61    62    1
    49    38    39    2
    50    38    44   am
    51    90    91    1
    52    15    12    1
    53    15    16    1
    54    12    13    1
    55    85    84    1
    56    62    65    1
    57    83    84    1
    58    93    91   ar
    59    47    46    2
    60   101   103   ar
    61   104   105    1
    62   104   103   ar
    63    44    45    1
    64    91    92   ar
    65    16    17   ar
    66    16    18   ar
    67    65    66    1
    68    52    51    2
    69    13    14    2
    70    13    19   am
    71    46    45    1
    72    46    49   am
    73    45    48    1
    74    51    50    1
    75    68    66   ar
    76    68    70   ar
    77    66    67   ar
    78    27    25   ar
    79    26    25   ar
    80    50    49    1
    81    50    53    1
    82    19    20    1
    83    49    55    1
    84    25    24    1
    85    70    71   ar
    86    67    69   ar
    87    53    54    1
    88    55    54    1
    89    24    23    1
    90     4     3    2
    91    20    23    1
    92    20    21    1
    93     8    10   ar
    94     8     6   ar
    95    10     9   ar
    96    71    69   ar
    97    71    72    1
    98    22    21    2
    99     3     2    1
   100     6     5    1
   101     6     7   ar
   102     5     2    1
   103     9     7   ar
   104     2     1    1
