@<TRIPOS>MOLECULE
tmp/4mddA00.pdb
 128 121 0 0 0
SMALL
GASTEIGER

@<TRIPOS>ATOM
      1  N        -15.4780  -20.4910   47.9130 N.3    39  GLY39      -0.1225
      2  CA       -16.2900  -21.5590   48.4940 C.3    39  GLY39       0.1811
      3  C        -17.7720  -21.2220   48.4560 C.2    39  GLY39       0.2280
      4  O        -18.6150  -22.0600   48.1150 O.2    39  GLY39      -0.2866
      5  N        -19.0870  -21.1020   44.7380 N.3    42  VAL42      -0.1231
      6  CA       -19.3910  -22.4590   44.2680 C.3    42  VAL42       0.1692
      7  C        -20.8200  -22.7970   44.6870 C.2    42  VAL42       0.2591
      8  O        -21.6150  -23.2020   43.8430 O.2    42  VAL42      -0.2718
      9  CB       -18.3820  -23.5220   44.7750 C.3    42  VAL42       0.0266
     10  CG1      -18.9070  -24.9360   44.5310 C.3    42  VAL42       0.0020
     11  CG2      -17.0250  -23.3480   44.1140 C.3    42  VAL42       0.0020
     12  N        -21.1550  -22.5680   45.9750 N.am   43  ILE43      -0.1980
     13  CA       -22.4960  -22.7730   46.5150 C.3    43  ILE43       0.1595
     14  C        -23.5190  -21.9960   45.6960 C.2    43  ILE43       0.2287
     15  O        -24.5250  -22.5840   45.2950 O.2    43  ILE43      -0.2864
     16  CB       -22.5900  -22.4760   48.0330 C.3    43  ILE43       0.0276
     17  CG1      -21.7640  -23.4760   48.8320 C.3    43  ILE43       0.0022
     18  CG2      -24.0480  -22.4680   48.5110 C.3    43  ILE43       0.0022
     19  CD1      -21.5990  -23.0860   50.3480 C.3    43  ILE43       0.0001
     20  N        -24.1550  -23.6190   42.2450 N.3    46  VAL46      -0.1231
     21  CA       -24.9710  -24.8310   42.3200 C.3    46  VAL46       0.1692
     22  C        -26.4630  -24.3940   42.3570 C.2    46  VAL46       0.2591
     23  O        -27.2630  -24.8510   41.5400 O.2    46  VAL46      -0.2718
     24  CB       -24.5910  -25.7280   43.5320 C.3    46  VAL46       0.0266
     25  CG1      -25.5040  -26.9460   43.6160 C.3    46  VAL46       0.0020
     26  CG2      -23.1200  -26.1610   43.4890 C.3    46  VAL46       0.0020
     27  N        -26.8100  -23.4680   43.2620 N.am   47  LYS47      -0.1980
     28  CA       -28.1720  -22.9450   43.3810 C.3    47  LYS47       0.1596
     29  C        -28.6480  -22.3670   42.0470 C.2    47  LYS47       0.2287
     30  O        -29.7500  -22.6930   41.6150 O.2    47  LYS47      -0.2864
     31  CB       -28.2890  -21.9520   44.5490 C.3    47  LYS47       0.0298
     32  CG       -28.1070  -22.6500   45.9040 C.3    47  LYS47       0.0038
     33  CD       -27.9690  -21.6840   47.0770 C.3    47  LYS47       0.0206
     34  CE       -27.8880  -22.4220   48.3980 C.3    47  LYS47       0.1093
     35  NZ       -27.5110  -21.5250   49.5290 N.3    47  LYS47      -0.1314
     36  N        -29.3140  -25.3070   39.4250 N.3    50  LYS50      -0.1245
     37  CA       -30.5630  -25.9970   39.7450 C.3    50  LYS50       0.1561
     38  C        -31.7670  -25.2850   39.1040 C.2    50  LYS50       0.2260
     39  O        -32.6880  -25.9540   38.6590 O.2    50  LYS50      -0.2867
     40  CB       -30.7430  -26.0760   41.2610 C.3    50  LYS50       0.0271
     41  CG       -29.9460  -27.1890   41.9280 C.3    50  LYS50       0.0035
     42  CD       -29.9640  -27.0640   43.4490 C.3    50  LYS50       0.0206
     43  CE       -31.2310  -27.5730   44.0930 C.3    50  LYS50       0.1093
     44  NZ       -31.1010  -27.6140   45.5680 N.3    50  LYS50      -0.1314
     45  N        -31.7380  -28.0990   33.1850 N.3    55  PHE55      -0.1241
     46  CA       -30.6850  -28.6890   34.0170 C.3    55  PHE55       0.1605
     47  C        -31.1880  -29.7750   34.9990 C.2    55  PHE55       0.2264
     48  O        -30.6130  -30.8680   34.9980 O.2    55  PHE55      -0.2867
     49  CB       -29.8630  -27.6020   34.7450 C.3    55  PHE55       0.0534
     50  CG       -28.6440  -28.1180   35.4850 C.ar   55  PHE55      -0.0203
     51  CD1      -27.4980  -28.5070   34.7930 C.ar   55  PHE55      -0.0042
     52  CD2      -28.6490  -28.2290   36.8710 C.ar   55  PHE55      -0.0042
     53  CE1      -26.3840  -29.0140   35.4780 C.ar   55  PHE55      -0.0003
     54  CE2      -27.5260  -28.6990   37.5580 C.ar   55  PHE55      -0.0003
     55  CZ       -26.4030  -29.0930   36.8570 C.ar   55  PHE55      -0.0000
     56  N        -29.4300  -36.8360   38.1680 N.3    60  LEU60      -0.1245
     57  CA       -28.7720  -36.1870   39.3150 C.3    60  LEU60       0.1561
     58  C        -27.2470  -36.3460   39.2980 C.2    60  LEU60       0.2260
     59  O        -26.5230  -35.4080   39.6390 O.2    60  LEU60      -0.2867
     60  CB       -29.3530  -36.7110   40.6370 C.3    60  LEU60       0.0270
     61  CG       -29.4200  -35.7130   41.7970 C.3    60  LEU60       0.0019
     62  CD1      -30.4540  -34.6140   41.5360 C.3    60  LEU60       0.0001
     63  CD2      -29.7710  -36.4250   43.0880 C.3    60  LEU60       0.0001
     64  N        -25.7780  -33.8760   36.7170 N.3    63  GLN63      -0.1231
     65  CA       -25.8720  -32.5400   37.3140 C.3    63  GLN63       0.1698
     66  C        -24.6610  -32.2790   38.2080 C.2    63  GLN63       0.2592
     67  O        -24.0450  -31.2170   38.1220 O.2    63  GLN63      -0.2718
     68  CB       -27.1540  -32.4130   38.1480 C.3    63  GLN63       0.0381
     69  CG       -28.4410  -32.5190   37.3440 C.3    63  GLN63       0.0905
     70  CD       -29.6510  -32.3760   38.2290 C.2    63  GLN63       0.2608
     71  OE1      -29.6860  -31.5640   39.1640 O.2    63  GLN63      -0.2717
     72  NE2      -30.6840  -33.1460   37.9410 N.am   63  GLN63      -0.0878
     73  N        -24.2960  -33.2880   39.0150 N.am   64  MET64      -0.1979
     74  CA       -23.1610  -33.2890   39.9320 C.3    64  MET64       0.1605
     75  C        -21.8540  -33.2160   39.1240 C.2    64  MET64       0.2287
     76  O        -20.9970  -32.3820   39.4080 O.2    64  MET64      -0.2864
     77  CB       -23.2100  -34.5810   40.7760 C.3    64  MET64       0.0413
     78  CG       -22.1270  -34.6770   41.8150 C.3    64  MET64       0.0598
     79  SD       -22.4500  -33.6140   43.2370 S.3    64  MET64      -0.1393
     80  CE       -20.7520  -33.4910   43.9000 C.3    64  MET64       0.0692
     81  N        -21.3550  -29.7440   37.3920 N.3    67  LEU67      -0.1231
     82  CA       -20.9600  -28.7440   38.3690 C.3    67  LEU67       0.1693
     83  C        -19.5170  -28.9570   38.8130 C.2    67  LEU67       0.2591
     84  O        -18.7850  -27.9870   38.9710 O.2    67  LEU67      -0.2718
     85  CB       -21.9210  -28.7400   39.5560 C.3    67  LEU67       0.0284
     86  CG       -23.2770  -28.1130   39.2450 C.3    67  LEU67       0.0019
     87  CD1      -24.3470  -28.6350   40.1720 C.3    67  LEU67       0.0001
     88  CD2      -23.1920  -26.5660   39.1900 C.3    67  LEU67       0.0001
     89  N        -19.0940  -30.2160   38.9400 N.am   68  GLN68      -0.1979
     90  CA       -17.7310  -30.5510   39.3460 C.3    68  GLN68       0.1601
     91  C        -16.7160  -30.1440   38.3030 C.2    68  GLN68       0.2287
     92  O        -15.6410  -29.6700   38.6640 O.2    68  GLN68      -0.2864
     93  CB       -17.5980  -32.0330   39.6910 C.3    68  GLN68       0.0394
     94  CG       -18.1520  -32.3560   41.0710 C.3    68  GLN68       0.0908
     95  CD       -17.8590  -33.7750   41.4770 C.2    68  GLN68       0.2608
     96  OE1      -16.8500  -34.0550   42.1190 O.2    68  GLN68      -0.2717
     97  NE2      -18.7410  -34.7000   41.1330 N.am   68  GLN68      -0.0878
     98  N        -17.4000  -25.4520   37.8810 N.3    71  TRP71      -0.1241
     99  CA       -17.4060  -24.4010   38.9050 C.3    71  TRP71       0.1605
    100  C        -16.4350  -23.2180   38.6160 C.2    71  TRP71       0.2264
    101  O        -16.8590  -22.0620   38.7050 O.2    71  TRP71      -0.2867
    102  CB       -17.1580  -24.9960   40.3050 C.3    71  TRP71       0.0550
    103  CG       -15.7910  -25.5850   40.5290 C.ar   71  TRP71       0.0003
    104  CD1      -15.3810  -26.8500   40.2260 C.ar   71  TRP71       0.0946
    105  CD2      -14.6710  -24.9400   41.1560 C.ar   71  TRP71       0.0152
    106  NE1      -14.0530  -27.0110   40.5610 N.ar   71  TRP71      -0.2442
    107  CE2      -13.5990  -25.8600   41.1520 C.ar   71  TRP71       0.0810
    108  CE3      -14.4600  -23.6590   41.6960 C.ar   71  TRP71       0.0012
    109  CZ2      -12.3500  -25.5590   41.7120 C.ar   71  TRP71       0.0191
    110  CZ3      -13.2220  -23.3600   42.2480 C.ar   71  TRP71       0.0001
    111  CH2      -12.1860  -24.3040   42.2560 C.ar   71  TRP71       0.0015
    112  N         -5.7180  -38.9190   47.2450 N.3   230  ASN230     -0.1225
    113  CA        -7.0200  -38.6790   46.5960 C.3   230  ASN230      0.1785
    114  C         -6.8770  -38.1150   45.1750 C.2   230  ASN230      0.2597
    115  O         -7.7490  -38.3410   44.3330 O.2   230  ASN230     -0.2718
    116  CB        -7.8820  -37.7310   47.4350 C.3   230  ASN230      0.1169
    117  CG        -8.2280  -38.2090   48.8290 C.2   230  ASN230      0.2627
    118  OD1       -7.7690  -39.2580   49.3060 O.2   230  ASN230     -0.2716
    119  ND2       -9.0020  -37.4030   49.5430 N.am  230  ASN230     -0.0877
    120  N         -5.7680  -37.4000   44.9160 N.am  231  GLN231     -0.1979
    121  CA        -5.4460  -36.7680   43.6390 C.3   231  GLN231      0.1601
    122  C         -5.0100  -37.7780   42.5460 C.2   231  GLN231      0.2287
    123  O         -4.8360  -37.3680   41.3950 O.2   231  GLN231     -0.2864
    124  CB        -4.3530  -35.7130   43.8750 C.3   231  GLN231      0.0394
    125  CG        -4.4500  -34.4710   42.9970 C.3   231  GLN231      0.0908
    126  CD        -3.1010  -33.8250   42.7470 C.2   231  GLN231      0.2608
    127  OE1       -2.8920  -33.1560   41.7290 O.2   231  GLN231     -0.2717
    128  NE2       -2.1440  -34.0160   43.6540 N.am  231  GLN231     -0.0878
@<TRIPOS>BOND
     1    45    46    1
     2    46    49    1
     3    46    47    1
     4    49    50    1
     5    51    53   ar
     6    51    50   ar
     7    48    47    2
     8    53    55   ar
     9    50    52   ar
    10    64    65    1
    11    55    54   ar
    12    52    54   ar
    13    65    68    1
    14    65    66    1
    15    69    68    1
    16    69    70    1
    17    81    82    1
    18    98    99    1
    19    72    70   am
    20    67    66    2
    21    56    57    1
    22    66    73   am
    23    70    71    2
    24    91    92    2
    25    91    90    1
    26    82    83    1
    27    82    85    1
    28   100   101    2
    29   100    99    1
    30    39    38    2
    31    83    89   am
    32    83    84    2
    33    99   102    1
    34    89    90    1
    35    73    74    1
    36    38    37    1
    37    75    76    2
    38    75    74    1
    39    88    86    1
    40    86    85    1
    41    86    87    1
    42    58    57    1
    43    58    59    2
    44    57    60    1
    45    90    93    1
    46    36    37    1
    47    93    94    1
    48    37    40    1
    49    74    77    1
    50   104   103   ar
    51   104   106   ar
    52   102   103    1
    53   103   105   ar
    54   106   107   ar
    55    60    61    1
    56    77    78    1
    57    94    95    1
    58    97    95   am
    59   107   105   ar
    60   107   109   ar
    61   105   108   ar
    62    40    41    1
    63   123   122    2
    64    95    96    2
    65    62    61    1
    66    23    22    2
    67    30    29    2
    68   108   110   ar
    69   109   111   ar
    70   127   126    2
    71    61    63    1
    72    78    79    1
    73    41    42    1
    74    29    28    1
    75    20    21    1
    76   110   111   ar
    77    21    22    1
    78    21    24    1
    79    22    27   am
    80   122   121    1
    81   126   125    1
    82   126   128   am
    83   125   124    1
    84    79    80    1
    85    27    28    1
    86    28    31    1
    87    42    43    1
    88    26    24    1
    89    24    25    1
    90   121   124    1
    91   121   120    1
    92     8     7    2
    93    43    44    1
    94    11     9    1
    95     6     7    1
    96     6     5    1
    97     6     9    1
    98   115   114    2
    99    10     9    1
   100    31    32    1
   101     7    12   am
   102   120   114   am
   103   114   113    1
   104    15    14    2
   105    14    13    1
   106    32    33    1
   107    12    13    1
   108    13    16    1
   109   113   112    1
   110   113   116    1
   111    33    34    1
   112   116   117    1
   113     1     2    1
   114    16    18    1
   115    16    17    1
   116     4     3    2
   117    34    35    1
   118     3     2    1
   119   117   118    2
   120   117   119   am
   121    17    19    1
