@<TRIPOS>MOLECULE
tmp/4mddB00.pdb
 126 120 0 0 0
SMALL
GASTEIGER

@<TRIPOS>ATOM
      1  N         -6.2570  -23.9410   66.0950 N.3    37  GLY37      -0.1210
      2  CA        -7.2300  -24.4950   67.0310 C.3    37  GLY37       0.1956
      3  C         -7.8830  -25.7560   66.5040 C.2    37  GLY37       0.2612
      4  O         -7.9370  -26.7670   67.2140 O.2    37  GLY37      -0.2717
      5  N         -8.2960  -25.7220   65.2320 N.am   38  GLY38      -0.1956
      6  CA        -8.8780  -26.8820   64.5590 C.3    38  GLY38       0.1869
      7  C         -7.9740  -28.0990   64.6290 C.2    38  GLY38       0.2309
      8  O         -8.4280  -29.2080   64.9280 O.2    38  GLY38      -0.2863
      9  N         -7.5800  -29.5590   68.3550 N.3    41  VAL41      -0.1231
     10  CA        -8.7520  -30.3820   68.6690 C.3    41  VAL41       0.1692
     11  C         -8.4970  -31.8290   68.2350 C.2    41  VAL41       0.2591
     12  O         -8.6160  -32.7340   69.0560 O.2    41  VAL41      -0.2718
     13  CB       -10.0410  -29.7910   68.0570 C.3    41  VAL41       0.0266
     14  CG1      -11.2090  -30.7730   68.1770 C.3    41  VAL41       0.0020
     15  CG2      -10.3810  -28.4640   68.7270 C.3    41  VAL41       0.0020
     16  N         -8.0590  -32.0220   66.9790 N.am   42  ILE42      -0.1980
     17  CA        -7.6910  -33.3160   66.4040 C.3    42  ILE42       0.1595
     18  C         -6.5970  -33.9580   67.2430 C.2    42  ILE42       0.2287
     19  O         -6.6930  -35.1440   67.5600 O.2    42  ILE42      -0.2864
     20  CB        -7.2860  -33.1630   64.9070 C.3    42  ILE42       0.0276
     21  CG1       -8.5150  -32.7760   64.0610 C.3    42  ILE42       0.0022
     22  CG2       -6.5980  -34.4380   64.3540 C.3    42  ILE42       0.0022
     23  CD1       -8.2070  -32.0150   62.7470 C.3    42  ILE42       0.0001
     24  N         -8.0930  -35.1970   70.6890 N.3    45  VAL45      -0.1231
     25  CA        -8.8790  -36.4240   70.4950 C.3    45  VAL45       0.1692
     26  C         -7.9060  -37.6270   70.3990 C.2    45  VAL45       0.2591
     27  O         -8.0760  -38.6020   71.1340 O.2    45  VAL45      -0.2718
     28  CB        -9.8580  -36.3140   69.2870 C.3    45  VAL45       0.0266
     29  CG1      -10.5890  -37.6280   69.0450 C.3    45  VAL45       0.0020
     30  CG2      -10.8600  -35.1720   69.4730 C.3    45  VAL45       0.0020
     31  N         -6.8340  -37.4970   69.5800 N.am   46  LYS46      -0.1980
     32  CA        -5.7680  -38.5010   69.4280 C.3    46  LYS46       0.1596
     33  C         -5.0690  -38.7740   70.7720 C.2    46  LYS46       0.2287
     34  O         -4.6530  -39.9130   71.0280 O.2    46  LYS46      -0.2864
     35  CB        -4.7090  -38.0360   68.4090 C.3    46  LYS46       0.0298
     36  CG        -5.1070  -38.1080   66.9350 C.3    46  LYS46       0.0038
     37  CD        -3.8930  -37.7870   66.0450 C.3    46  LYS46       0.0206
     38  CE        -4.2310  -37.4820   64.6030 C.3    46  LYS46       0.1093
     39  NZ        -4.5600  -38.7050   63.8230 N.3    46  LYS46      -0.1314
     40  N         -7.6260  -40.7930   73.2710 N.3    49  LYS49      -0.1245
     41  CA        -7.6170  -42.2040   72.8580 C.3    49  LYS49       0.1561
     42  C         -6.4550  -42.9910   73.4780 C.2    49  LYS49       0.2260
     43  O         -6.6040  -44.1860   73.7290 O.2    49  LYS49      -0.2867
     44  CB        -7.5670  -42.3210   71.3250 C.3    49  LYS49       0.0271
     45  CG        -8.8910  -41.9910   70.6300 C.3    49  LYS49       0.0035
     46  CD        -8.7230  -41.7530   69.1220 C.3    49  LYS49       0.0206
     47  CE        -8.4340  -43.0070   68.3230 C.3    49  LYS49       0.1093
     48  NZ        -8.0420  -42.6970   66.9230 N.3    49  LYS49      -0.1314
     49  N         -9.5450  -44.5750   78.8460 N.3    54  PHE54      -0.1241
     50  CA       -10.4440  -43.7420   78.0360 C.3    54  PHE54       0.1605
     51  C        -11.2090  -44.5130   76.9330 C.2    54  PHE54       0.2264
     52  O        -12.4200  -44.2910   76.8050 O.2    54  PHE54      -0.2867
     53  CB        -9.7290  -42.5030   77.4500 C.3    54  PHE54       0.0534
     54  CG       -10.6510  -41.4900   76.7960 C.ar   54  PHE54      -0.0203
     55  CD1      -11.4190  -40.6210   77.5650 C.ar   54  PHE54      -0.0042
     56  CD2      -10.7720  -41.4270   75.4140 C.ar   54  PHE54      -0.0042
     57  CE1      -12.2800  -39.6960   76.9590 C.ar   54  PHE54      -0.0003
     58  CE2      -11.6450  -40.5150   74.8110 C.ar   54  PHE54      -0.0003
     59  CZ       -12.3840  -39.6470   75.5870 C.ar   54  PHE54      -0.0000
     60  N        -18.3920  -45.1200   73.4670 N.3    59  LEU59      -0.1245
     61  CA       -18.1320  -44.2650   72.3020 C.3    59  LEU59       0.1561
     62  C        -18.9680  -42.9810   72.2460 C.2    59  LEU59       0.2260
     63  O        -18.4730  -41.9880   71.7140 O.2    59  LEU59      -0.2867
     64  CB       -18.2890  -45.0600   70.9990 C.3    59  LEU59       0.0270
     65  CG       -17.0060  -45.3810   70.2330 C.3    59  LEU59       0.0019
     66  CD1      -16.2380  -46.5400   70.8770 C.3    59  LEU59       0.0001
     67  CD2      -17.3210  -45.7170   68.7900 C.3    59  LEU59       0.0001
     68  N        -17.2500  -40.9200   75.1820 N.3    62  GLN62      -0.1231
     69  CA       -15.9420  -40.4900   74.6630 C.3    62  GLN62       0.1698
     70  C        -16.1570  -39.2490   73.7720 C.2    62  GLN62       0.2592
     71  O        -15.4600  -38.2480   73.9390 O.2    62  GLN62      -0.2718
     72  CB       -15.2780  -41.6150   73.8450 C.3    62  GLN62       0.0381
     73  CG       -14.6290  -42.7040   74.6820 C.3    62  GLN62       0.0905
     74  CD       -13.9270  -43.7380   73.8250 C.2    62  GLN62       0.2608
     75  OE1      -12.9990  -43.4400   73.0660 O.2    62  GLN62      -0.2717
     76  NE2      -14.3380  -44.9920   73.9380 N.am   62  GLN62      -0.0878
     77  N        -17.1920  -39.3010   72.9050 N.am   63  MET63      -0.1979
     78  CA       -17.6190  -38.2480   71.9850 C.3    63  MET63       0.1605
     79  C        -18.1350  -37.0190   72.7250 C.2    63  MET63       0.2287
     80  O        -17.8610  -35.8950   72.2950 O.2    63  MET63      -0.2864
     81  CB       -18.7190  -38.7960   71.0490 C.3    63  MET63       0.0413
     82  CG       -19.3040  -37.7800   70.0450 C.3    63  MET63       0.0598
     83  SD       -18.2070  -37.2280   68.7030 S.3    63  MET63      -0.1393
     84  CE       -17.4780  -38.7930   68.1990 C.3    63  MET63       0.0692
     85  N        -15.0220  -35.1680   74.9930 N.3    66  LEU66      -0.1231
     86  CA       -14.2110  -34.3950   74.0520 C.3    66  LEU66       0.1693
     87  C        -14.9390  -33.1730   73.5230 C.2    66  LEU66       0.2591
     88  O        -14.3180  -32.1190   73.4160 O.2    66  LEU66      -0.2718
     89  CB       -13.7020  -35.2780   72.9080 C.3    66  LEU66       0.0284
     90  CG       -12.6370  -36.3110   73.3020 C.3    66  LEU66       0.0019
     91  CD1      -12.5750  -37.4430   72.2960 C.3    66  LEU66       0.0001
     92  CD2      -11.2660  -35.6620   73.4790 C.3    66  LEU66       0.0001
     93  N        -16.2620  -33.2760   73.2790 N.am   67  GLN67      -0.1979
     94  CA       -17.0880  -32.1510   72.8040 C.3    67  GLN67       0.1601
     95  C        -17.3010  -31.0890   73.8710 C.2    67  GLN67       0.2287
     96  O        -17.6190  -29.9440   73.5360 O.2    67  GLN67      -0.2864
     97  CB       -18.4600  -32.6390   72.3200 C.3    67  GLN67       0.0394
     98  CG       -18.5240  -32.9340   70.8290 C.3    67  GLN67       0.0908
     99  CD       -19.9370  -33.2300   70.3860 C.2    67  GLN67       0.2608
    100  OE1      -20.7870  -32.3370   70.2920 O.2    67  GLN67      -0.2717
    101  NE2      -20.2190  -34.4930   70.1070 N.am   67  GLN67      -0.0878
    102  N        -12.8420  -29.9680   74.8520 N.3    70  TRP70      -0.1241
    103  CA       -11.8000  -29.5600   73.8870 C.3    70  TRP70       0.1605
    104  C        -11.1360  -28.2080   74.2300 C.2    70  TRP70       0.2264
    105  O         -9.9080  -28.1750   74.2750 O.2    70  TRP70      -0.2867
    106  CB       -12.2520  -29.5880   72.4070 C.3    70  TRP70       0.0550
    107  CG       -13.3530  -28.6340   72.0650 C.ar   70  TRP70       0.0003
    108  CD1      -14.6900  -28.8510   72.2050 C.ar   70  TRP70       0.0946
    109  CD2      -13.2140  -27.3110   71.5260 C.ar   70  TRP70       0.0152
    110  NE1      -15.3940  -27.7300   71.8300 N.ar   70  TRP70      -0.2442
    111  CE2      -14.5140  -26.7730   71.3940 C.ar   70  TRP70       0.0810
    112  CE3      -12.1150  -26.5170   71.1560 C.ar   70  TRP70       0.0012
    113  CZ2      -14.7460  -25.4780   70.9120 C.ar   70  TRP70       0.0191
    114  CZ3      -12.3430  -25.2390   70.6720 C.ar   70  TRP70       0.0001
    115  CH2      -13.6450  -24.7340   70.5420 C.ar   70  TRP70       0.0015
    116  N        -16.9990  -17.0780   69.5250 N.3   207  PHE207     -0.1241
    117  CA       -18.1980  -17.1210   68.6800 C.3   207  PHE207      0.1605
    118  C        -18.6800  -15.7070   68.3180 C.2   207  PHE207      0.2264
    119  O        -19.0030  -15.4630   67.1550 O.2   207  PHE207     -0.2867
    120  CB       -19.3090  -17.9790   69.3070 C.3   207  PHE207      0.0534
    121  CG       -19.0320  -19.4690   69.2900 C.ar  207  PHE207     -0.0203
    122  CD1      -18.9950  -20.1740   68.0920 C.ar  207  PHE207     -0.0042
    123  CD2      -18.8760  -20.1760   70.4750 C.ar  207  PHE207     -0.0042
    124  CE1      -18.7540  -21.5500   68.0800 C.ar  207  PHE207     -0.0003
    125  CE2      -18.6230  -21.5490   70.4610 C.ar  207  PHE207     -0.0003
    126  CZ       -18.5630  -22.2260   69.2630 C.ar  207  PHE207     -0.0000
@<TRIPOS>BOND
     1    23    21    1
     2    39    38    1
     3    21    20    1
     4    22    20    1
     5     6     7    1
     6     6     5    1
     7    38    37    1
     8     7     8    2
     9    20    17    1
    10     5     3   am
    11    37    36    1
    12     1     2    1
    13    17    16    1
    14    17    18    1
    15     3     2    1
    16     3     4    2
    17    48    47    1
    18    36    35    1
    19    16    11   am
    20   119   118    2
    21    18    19    2
    22    13    14    1
    23    13    10    1
    24    13    15    1
    25   124   122   ar
    26   124   126   ar
    27   122   121   ar
    28    84    83    1
    29    11    10    1
    30    11    12    2
    31   118   117    1
    32    47    46    1
    33     9    10    1
    34    35    32    1
    35   117   120    1
    36   117   116    1
    37    83    82    1
    38    67    65    1
    39    29    28    1
    40    46    45    1
    41   126   125   ar
    42    28    30    1
    43    28    25    1
    44   121   120    1
    45   121   123   ar
    46    32    31    1
    47    32    33    1
    48    31    26   am
    49    82    81    1
    50   101    99   am
    51    65    66    1
    52    65    64    1
    53   100    99    2
    54    99    98    1
    55    26    25    1
    56    26    27    2
    57   125   123   ar
    58    25    24    1
    59   115   114   ar
    60   115   113   ar
    61    45    44    1
    62   114   112   ar
    63    33    34    2
    64    98    97    1
    65   113   111   ar
    66    64    61    1
    67    81    78    1
    68   112   109   ar
    69    44    41    1
    70   111   109   ar
    71   111   110   ar
    72   109   107   ar
    73    63    62    2
    74   110   108   ar
    75    78    79    1
    76    78    77    1
    77   107   108   ar
    78   107   106    1
    79    62    61    1
    80    80    79    2
    81    91    90    1
    82    61    60    1
    83    97    94    1
    84   106   103    1
    85    94    93    1
    86    94    95    1
    87    41    40    1
    88    41    42    1
    89    77    70   am
    90    89    90    1
    91    89    86    1
    92    75    74    2
    93    93    87   am
    94    90    92    1
    95    88    87    2
    96    42    43    2
    97    87    86    1
    98    96    95    2
    99    70    71    2
   100    70    69    1
   101    74    76   am
   102    74    73    1
   103    72    69    1
   104    72    73    1
   105   103   104    1
   106   103   102    1
   107    86    85    1
   108   104   105    2
   109    69    68    1
   110    58    56   ar
   111    58    59   ar
   112    56    54   ar
   113    59    57   ar
   114    54    53    1
   115    54    55   ar
   116    52    51    2
   117    51    50    1
   118    57    55   ar
   119    53    50    1
   120    50    49    1
