@<TRIPOS>MOLECULE
tmp/4mdeA00.pdb
 127 123 0 0 0
SMALL
GASTEIGER

@<TRIPOS>ATOM
      1  N        -27.8880   11.3780  -11.3220 N.3    17  SER17      -0.1202
      2  CA       -28.5890   11.9950  -10.2110 C.3    17  SER17       0.2020
      3  C        -29.0090   10.9800   -9.1550 C.2    17  SER17       0.2619
      4  O        -29.1040    9.7810   -9.4270 O.2    17  SER17      -0.2717
      5  CB       -29.8370   12.6970  -10.7540 C.3    17  SER17       0.2103
      6  OG       -30.6390   13.1980   -9.7050 O.3    17  SER17      -0.2182
      7  N        -29.2730   11.4590   -7.9430 N.am   18  SER18      -0.1937
      8  CA       -29.9900   10.6440   -6.9960 C.3    18  SER18       0.2055
      9  C        -31.2960   10.2550   -7.6700 C.2    18  SER18       0.2644
     10  O        -31.9070   11.0660   -8.3610 O.2    18  SER18      -0.2714
     11  CB       -30.2820   11.4100   -5.7080 C.3    18  SER18       0.2130
     12  OG       -30.9720   10.5580   -4.8130 O.3    18  SER18      -0.2179
     13  N        -31.7050    9.0070   -7.4930 N.am   19  GLY19      -0.1939
     14  CA       -32.9280    8.5290   -8.1090 C.3    19  GLY19       0.2014
     15  C        -32.8190    8.0270   -9.5440 C.2    19  GLY19       0.2640
     16  O        -33.8130    7.5480  -10.0870 O.2    19  GLY19      -0.2714
     17  N        -31.6390    8.1210  -10.1580 N.am   20  SER20      -0.1935
     18  CA       -31.4540    7.6350  -11.5370 C.3    20  SER20       0.2055
     19  C        -31.2890    6.1130  -11.6550 C.2    20  SER20       0.2644
     20  O        -31.3330    5.5670  -12.7640 O.2    20  SER20      -0.2714
     21  CB       -30.2770    8.3430  -12.2290 C.3    20  SER20       0.2130
     22  OG       -29.0530    8.0760  -11.5540 O.3    20  SER20      -0.2179
     23  N        -31.0960    5.4390  -10.5230 N.am   21  GLY21      -0.1939
     24  CA       -31.0280    3.9880  -10.4930 C.3    21  GLY21       0.2014
     25  C        -29.6310    3.3970  -10.4950 C.2    21  GLY21       0.2639
     26  O        -29.4510    2.2300  -10.8460 O.2    21  GLY21      -0.2714
     27  N        -28.6440    4.1890  -10.0830 N.am   22  LYS22      -0.1963
     28  CA       -27.2500    3.7480  -10.1000 C.3    22  LYS22       0.1728
     29  C        -27.0090    2.4690   -9.3010 C.2    22  LYS22       0.2617
     30  O        -26.3840    1.5270   -9.7940 O.2    22  LYS22      -0.2715
     31  CB       -26.3290    4.8560   -9.5810 C.3    22  LYS22       0.0311
     32  CG       -26.4440    6.1730  -10.3630 C.3    22  LYS22       0.0038
     33  CD       -25.4720    7.2320   -9.8400 C.3    22  LYS22       0.0206
     34  CE       -25.7060    7.5270   -8.3480 C.3    22  LYS22       0.1093
     35  NZ       -27.0620    8.1070   -8.0990 N.3    22  LYS22      -0.1314
     36  N        -27.4830    2.4430   -8.0580 N.am   23  SER23      -0.1936
     37  CA       -27.2050    1.3090   -7.1900 C.3    23  SER23       0.2055
     38  C        -27.8890    0.0420   -7.6760 C.2    23  SER23       0.2643
     39  O        -27.3060   -1.0370   -7.6230 O.2    23  SER23      -0.2714
     40  CB       -27.5820    1.6300   -5.7450 C.3    23  SER23       0.2130
     41  OG       -26.8250    2.7410   -5.3130 O.3    23  SER23      -0.2179
     42  N        -29.1140    0.1840   -8.1670 N.am   24  THR24      -0.1950
     43  CA       -29.8570   -0.9560   -8.7070 C.3    24  THR24       0.1897
     44  C        -29.1330   -1.5130   -9.9280 C.2    24  THR24       0.2313
     45  O        -28.9830   -2.7300  -10.0880 O.2    24  THR24      -0.2863
     46  CB       -31.2940   -0.5410   -9.0900 C.3    24  THR24       0.1794
     47  OG1      -32.0020   -0.1450   -7.9070 O.3    24  THR24      -0.2208
     48  CG2      -32.0340   -1.6940   -9.7610 C.3    24  THR24       0.0378
     49  N        -39.1250    8.4050   -9.1620 N.3   117  ARG117     -0.1245
     50  CA       -38.5140    7.2720   -8.4760 C.3   117  ARG117      0.1563
     51  C        -38.1800    7.6230   -7.0330 C.2   117  ARG117      0.2260
     52  O        -38.4100    6.8350   -6.1220 O.2   117  ARG117     -0.2867
     53  CB       -37.2610    6.8230   -9.2160 C.3   117  ARG117      0.0307
     54  CG       -37.5780    6.1660  -10.5430 C.3   117  ARG117      0.0489
     55  CD       -36.3390    5.6070  -11.1740 C.3   117  ARG117      0.2205
     56  NE       -36.6050    5.0150  -12.4790 N.pl3 117  ARG117     -0.0865
     57  CZ       -35.6470    4.6410  -13.3160 C.cat 117  ARG117      0.5346
     58  NH1      -34.3800    4.8140  -12.9650 N.pl3 117  ARG117      0.1354
     59  NH2      -35.9490    4.1150  -14.4990 N.pl3 117  ARG117      0.1354
     60  N        -41.1180    7.5640   -4.8400 N.3   120  ASN120     -0.1225
     61  CA       -41.6120    6.2160   -4.5840 C.3   120  ASN120      0.1785
     62  C        -40.6550    5.3370   -3.7770 C.2   120  ASN120      0.2597
     63  O        -40.9470    4.1690   -3.5230 O.2   120  ASN120     -0.2718
     64  CB       -41.9710    5.5180   -5.8990 C.3   120  ASN120      0.1169
     65  CG       -43.1830    6.1330   -6.5720 C.2   120  ASN120      0.2627
     66  OD1      -44.2010    6.3830   -5.9280 O.2   120  ASN120     -0.2716
     67  ND2      -43.0750    6.3890   -7.8700 N.am  120  ASN120     -0.0877
     68  N        -39.5170    5.8950   -3.3750 N.am  121  ARG121     -0.1966
     69  CA       -38.5500    5.1460   -2.5730 C.3   121  ARG121      0.1729
     70  C        -39.1180    4.7950   -1.2050 C.2   121  ARG121      0.2617
     71  O        -39.8060    5.6050   -0.5850 O.2   121  ARG121     -0.2715
     72  CB       -37.2640    5.9460   -2.3770 C.3   121  ARG121      0.0348
     73  CG       -36.5460    6.3230   -3.6510 C.3   121  ARG121      0.0492
     74  CD       -35.2240    6.9900   -3.3360 C.3   121  ARG121      0.2205
     75  NE       -34.2860    6.0490   -2.7350 N.pl3 121  ARG121     -0.0865
     76  CZ       -33.0150    5.9240   -3.0980 C.cat 121  ARG121      0.5346
     77  NH1      -32.5210    6.6940   -4.0570 N.pl3 121  ARG121      0.1354
     78  NH2      -32.2410    5.0360   -2.4920 N.pl3 121  ARG121      0.1354
     79  N        -38.8190    3.5880   -0.7370 N.am  122  THR122     -0.1937
     80  CA       -39.2230    3.1580    0.5960 C.3   122  THR122      0.2028
     81  C        -38.0440    3.3150    1.5460 C.2   122  THR122      0.2642
     82  O        -38.1280    2.9830    2.7260 O.2   122  THR122     -0.2714
     83  CB       -39.6730    1.6950    0.5990 C.3   122  THR122      0.1808
     84  OG1      -38.5470    0.8500    0.3380 O.3   122  THR122     -0.2208
     85  CG2      -40.7360    1.4670   -0.4710 C.3   122  THR122      0.0379
     86  N        -36.9390    3.8120    1.0030 N.am  123  ASP123     -0.1957
     87  CA       -35.7430    4.1010    1.7780 C.3   123  ASP123      0.1840
     88  C        -35.5410    5.6100    1.7860 C.2   123  ASP123      0.2621
     89  O        -36.5140    6.3660    1.7770 O.2   123  ASP123     -0.2715
     90  CB       -34.5290    3.3880    1.1730 C.3   123  ASP123      0.1450
     91  CG       -34.4970    3.4740   -0.3470 C.2   123  ASP123      0.3671
     92  OD1      -34.7750    4.5630   -0.8910 O.co2 123  ASP123     -0.2456
     93  OD2      -34.2090    2.4500   -1.0050 O.co2 123  ASP123     -0.2456
     94  N        -34.2840    6.0440    1.7840 N.am  124  ARG124     -0.1977
     95  CA       -33.9480    7.4640    1.8820 C.3   124  ARG124      0.1597
     96  C        -34.4150    8.2780    0.6730 C.2   124  ARG124      0.2287
     97  O        -34.0140    8.0180   -0.4550 O.2   124  ARG124     -0.2864
     98  CB       -32.4360    7.6410    2.0830 C.3   124  ARG124      0.0334
     99  CG       -31.5680    6.8770    1.0740 C.3   124  ARG124      0.0492
    100  CD       -31.0510    7.7630   -0.0600 C.3   124  ARG124      0.2205
    101  NE       -30.7210    6.9810   -1.2530 N.pl3 124  ARG124     -0.0865
    102  CZ       -29.5060    6.5280   -1.5490 C.cat 124  ARG124      0.5346
    103  NH1      -28.4820    6.7920   -0.7460 N.pl3 124  ARG124      0.1354
    104  NH2      -29.3100    5.8130   -2.6370 N.pl3 124  ARG124      0.1354
    105  N        -34.9750    4.9760  -19.8620 N.3   159  PRO159     -0.2116
    106  CA       -35.0560    3.7390  -19.0760 C.3   159  PRO159      0.1372
    107  C        -34.9600    2.5130  -19.9730 C.2   159  PRO159      0.2244
    108  O        -34.4460    1.4800  -19.5580 O.2   159  PRO159     -0.2868
    109  CB       -36.4430    3.8230  -18.4380 C.3   159  PRO159      0.0268
    110  CG       -36.6970    5.2960  -18.3200 C.3   159  PRO159      0.0207
    111  CD       -36.0940    5.8910  -19.5690 C.3   159  PRO159      0.0892
    112  N        -31.2620    1.9730  -20.6060 N.3   162  VAL162     -0.1231
    113  CA       -30.6550    1.4240  -19.3960 C.3   162  VAL162      0.1692
    114  C        -30.9580   -0.0600  -19.2580 C.2   162  VAL162      0.2591
    115  O        -30.0750   -0.8610  -18.9510 O.2   162  VAL162     -0.2718
    116  CB       -31.1470    2.1530  -18.1290 C.3   162  VAL162      0.0266
    117  CG1      -30.6980    1.4060  -16.8800 C.3   162  VAL162      0.0020
    118  CG2      -30.6390    3.5890  -18.1220 C.3   162  VAL162      0.0020
    119  N        -32.2110   -0.4200  -19.5050 N.am  163  GLU163     -0.1979
    120  CA       -32.6490   -1.8020  -19.3670 C.3   163  GLU163      0.1602
    121  C        -31.9750   -2.7240  -20.3880 C.2   163  GLU163      0.2287
    122  O        -31.7800   -3.9140  -20.1240 O.2   163  GLU163     -0.2864
    123  CB       -34.1710   -1.8850  -19.4910 C.3   163  GLU163      0.0415
    124  CG       -34.7630   -3.1900  -19.0030 C.3   163  GLU163      0.1163
    125  CD       -36.2790   -3.1850  -19.0250 C.2   163  GLU163      0.3649
    126  OE1      -36.8600   -2.3540  -19.7560 O.co2 163  GLU163     -0.2457
    127  OE2      -36.8880   -4.0120  -18.3100 O.co2 163  GLU163     -0.2457
@<TRIPOS>BOND
     1   112   113    1
     2   121   122    2
     3   121   120    1
     4   107   108    2
     5   107   106    1
     6   105   111    1
     7   105   106    1
     8   126   125   ar
     9   111   110    1
    10   119   120    1
    11   119   114   am
    12   123   120    1
    13   123   124    1
    14   113   114    1
    15   113   116    1
    16   114   115    2
    17   106   109    1
    18   125   124    1
    19   125   127   ar
    20   109   110    1
    21   116   118    1
    22   116   117    1
    23    59    57    1
    24    57    58    1
    25    57    56    2
    26    20    19    2
    27    56    55    1
    28    21    22    1
    29    21    18    1
    30    19    18    1
    31    19    23   am
    32    18    17    1
    33     1     2    1
    34    55    54    1
    35    26    25    2
    36     5     2    1
    37     5     6    1
    38    54    53    1
    39    23    24    1
    40    25    24    1
    41    25    27   am
    42    32    33    1
    43    32    31    1
    44     2     3    1
    45    17    15   am
    46    28    27    1
    47    28    31    1
    48    28    29    1
    49    45    44    2
    50    16    15    2
    51    44    43    1
    52    33    34    1
    53    30    29    2
    54    48    46    1
    55    15    14    1
    56     4     3    2
    57    29    36   am
    58    53    50    1
    59    49    50    1
    60     3     7   am
    61    46    43    1
    62    46    47    1
    63    43    42    1
    64    50    51    1
    65    10     9    2
    66    34    35    1
    67    42    38   am
    68    14    13    1
    69    36    37    1
    70     7     8    1
    71    67    65   am
    72    38    39    2
    73    38    37    1
    74     9    13   am
    75     9     8    1
    76    37    40    1
    77    51    52    2
    78     8    11    1
    79    65    66    2
    80    65    64    1
    81    64    61    1
    82    40    41    1
    83    11    12    1
    84    60    61    1
    85    61    62    1
    86    77    76    1
    87    62    63    2
    88    62    68   am
    89    73    74    1
    90    73    72    1
    91    68    69    1
    92    74    75    1
    93    76    75    2
    94    76    78    1
    95   104   102    1
    96    69    72    1
    97    69    70    1
    98   102   101    2
    99   102   103    1
   100   101   100    1
   101    70    79   am
   102    70    71    2
   103    93    91   ar
   104    92    91   ar
   105    79    80    1
   106    85    83    1
   107    97    96    2
   108    91    90    1
   109   100    99    1
   110    84    83    1
   111    80    83    1
   112    80    81    1
   113    96    95    1
   114    86    81   am
   115    86    87    1
   116    99    98    1
   117    90    87    1
   118    81    82    2
   119    89    88    2
   120    87    88    1
   121    94    88   am
   122    94    95    1
   123    95    98    1
