@<TRIPOS>MOLECULE
tmp/4mdfA00.pdb
 208 196 0 0 0
SMALL
GASTEIGER

@<TRIPOS>ATOM
      1  N        -28.4950   11.5170   -8.1870 N.3    18  SER18      -0.1217
      2  CA       -29.2190   10.6750   -7.2580 C.3    18  SER18       0.1889
      3  C        -30.5210   10.2980   -7.9540 C.2    18  SER18       0.2288
      4  O        -31.1190   11.1160   -8.6620 O.2    18  SER18      -0.2866
      5  CB       -29.5050   11.4290   -5.9590 C.3    18  SER18       0.2089
      6  OG       -30.3380   10.6570   -5.1070 O.3    18  SER18      -0.2183
      7  N        -27.8860    4.2290  -10.4200 N.3    22  LYS22      -0.1245
      8  CA       -26.5010    3.7650  -10.3920 C.3    22  LYS22       0.1561
      9  C        -26.3080    2.4830   -9.5890 C.2    22  LYS22       0.2260
     10  O        -25.6870    1.5250  -10.0610 O.2    22  LYS22      -0.2867
     11  CB       -25.5810    4.8470   -9.8230 C.3    22  LYS22       0.0271
     12  CG       -25.5570    6.1430  -10.6400 C.3    22  LYS22       0.0035
     13  CD       -24.5990    7.1730  -10.0110 C.3    22  LYS22       0.0206
     14  CE       -24.9870    7.5440   -8.5660 C.3    22  LYS22       0.1093
     15  NZ       -26.3140    8.2310   -8.5750 N.3    22  LYS22      -0.1314
     16  N        -19.8410    5.3680   -2.5840 N.3    38  SER38      -0.1202
     17  CA       -19.5570    6.4630   -1.6610 C.3    38  SER38       0.2020
     18  C        -20.4880    6.4300   -0.4520 C.2    38  SER38       0.2618
     19  O        -20.0740    6.7350    0.6730 O.2    38  SER38      -0.2717
     20  CB       -19.6520    7.8050   -2.3830 C.3    38  SER38       0.2103
     21  OG       -20.9130    7.9450   -3.0180 O.3    38  SER38      -0.2182
     22  N        -21.7450    6.0650   -0.6690 N.am   39  ASN39      -0.1974
     23  CA       -22.6810    5.9510    0.4440 C.3    39  ASN39       0.1688
     24  C        -22.2800    4.8320    1.3980 C.2    39  ASN39       0.2292
     25  O        -22.3610    4.9930    2.6160 O.2    39  ASN39      -0.2864
     26  CB       -24.1210    5.7900   -0.0640 C.3    39  ASN39       0.1181
     27  CG       -24.6310    7.0460   -0.7630 C.2    39  ASN39       0.2629
     28  OD1      -24.3010    8.1620   -0.3620 O.2    39  ASN39      -0.2716
     29  ND2      -25.4250    6.8670   -1.8230 N.am   39  ASN39      -0.0877
     30  N        -19.6590    6.2540    3.4850 N.3    42  ARG42      -0.1245
     31  CA       -20.2070    7.1040    4.5440 C.3    42  ARG42       0.1563
     32  C        -20.6000    6.2450    5.7480 C.2    42  ARG42       0.2260
     33  O        -20.3670    6.6210    6.9010 O.2    42  ARG42      -0.2867
     34  CB       -21.4110    7.9080    4.0480 C.3    42  ARG42       0.0307
     35  CG       -21.0300    9.0570    3.1270 C.3    42  ARG42       0.0489
     36  CD       -22.2570    9.8630    2.7020 C.3    42  ARG42       0.2205
     37  NE       -21.8690   11.0230    1.9130 N.pl3  42  ARG42      -0.0865
     38  CZ       -21.7930   11.0400    0.5840 C.cat  42  ARG42       0.5346
     39  NH1      -22.0980    9.9550   -0.1190 N.pl3  42  ARG42       0.1354
     40  NH2      -21.4100   12.1430   -0.0370 N.pl3  42  ARG42       0.1354
     41  N        -26.3370    8.1630    5.0670 N.3    50  ASN50      -0.1240
     42  CA       -26.9980    9.4040    4.6630 C.3    50  ASN50       0.1653
     43  C        -26.3550   10.6470    5.2870 C.2    50  ASN50       0.2266
     44  O        -26.8740   11.7570    5.1700 O.2    50  ASN50      -0.2867
     45  CB       -28.4850    9.3420    5.0350 C.3    50  ASN50       0.1155
     46  CG       -29.3330   10.3440    4.2600 C.2    50  ASN50       0.2627
     47  OD1      -29.0420   10.6650    3.1050 O.2    50  ASN50      -0.2716
     48  ND2      -30.3870   10.8420    4.8990 N.am   50  ASN50      -0.0877
     49  N        -24.1530   13.5230    5.3030 N.3    52  GLN52      -0.1231
     50  CA       -23.3880   14.2940    4.3370 C.3    52  GLN52       0.1698
     51  C        -22.1740   14.9940    4.9340 C.2    52  GLN52       0.2592
     52  O        -21.2750   15.4110    4.2060 O.2    52  GLN52      -0.2718
     53  CB       -24.2890   15.2940    3.5970 C.3    52  GLN52       0.0381
     54  CG       -25.5260   14.6650    2.9660 C.3    52  GLN52       0.0905
     55  CD       -25.1850   13.4960    2.0490 C.2    52  GLN52       0.2608
     56  OE1      -24.2650   13.5810    1.2310 O.2    52  GLN52      -0.2717
     57  NE2      -25.9240   12.4020    2.1840 N.am   52  GLN52      -0.0878
     58  N        -22.1340   15.1340    6.2590 N.am   53  THR53      -0.1953
     59  CA       -21.0290   15.8470    6.8830 C.3    53  THR53       0.1897
     60  C        -19.7280   15.0450    6.9160 C.2    53  THR53       0.2313
     61  O        -18.6580   15.5950    7.1700 O.2    53  THR53      -0.2863
     62  CB       -21.3820   16.3020    8.3260 C.3    53  THR53       0.1794
     63  OG1      -21.4590   15.1620    9.1910 O.3    53  THR53      -0.2208
     64  CG2      -22.7110   17.0300    8.3330 C.3    53  THR53       0.0378
     65  N        -18.6330   13.3940    4.2860 N.3    55  THR55      -0.1203
     66  CA       -18.3050   13.2000    2.8730 C.3    55  THR55       0.1994
     67  C        -16.7990   13.1770    2.5910 C.2    55  THR55       0.2618
     68  O        -16.3240   12.3400    1.8200 O.2    55  THR55      -0.2717
     69  CB       -19.0120   14.2670    2.0200 C.3    55  THR55       0.1784
     70  OG1      -20.4190   14.0060    2.0530 O.3    55  THR55      -0.2211
     71  CG2      -18.5290   14.2330    0.5820 C.3    55  THR55       0.0376
     72  N        -16.0520   14.0860    3.2190 N.am   56  GLY56      -0.1956
     73  CA       -14.6070   14.1220    3.0550 C.3    56  GLY56       0.1869
     74  C        -13.9280   12.8120    3.4270 C.2    56  GLY56       0.2309
     75  O        -13.1240   12.2730    2.6560 O.2    56  GLY56      -0.2863
     76  N        -14.9420    9.8260    0.9600 N.3    59  PHE59      -0.1241
     77  CA       -14.2090    9.7640   -0.3000 C.3    59  PHE59       0.1605
     78  C        -12.7290    9.4620   -0.1130 C.2    59  PHE59       0.2264
     79  O        -12.0990    8.8640   -0.9830 O.2    59  PHE59      -0.2867
     80  CB       -14.4570   10.9990   -1.1820 C.3    59  PHE59       0.0534
     81  CG       -15.7670   10.9400   -1.9150 C.ar   59  PHE59      -0.0203
     82  CD1      -15.8990   10.1540   -3.0560 C.ar   59  PHE59      -0.0042
     83  CD2      -16.8750   11.6250   -1.4490 C.ar   59  PHE59      -0.0042
     84  CE1      -17.1110   10.0750   -3.7230 C.ar   59  PHE59      -0.0003
     85  CE2      -18.0940   11.5510   -2.1120 C.ar   59  PHE59      -0.0003
     86  CZ       -18.2040   10.7710   -3.2590 C.ar   59  PHE59      -0.0000
     87  N        -11.2830    6.3920   -2.2320 N.3    63  HIS63      -0.1241
     88  CA       -10.0760    6.5190   -3.0360 C.3    63  HIS63       0.1621
     89  C         -8.9910    5.5540   -2.6050 C.2    63  HIS63       0.2264
     90  O         -8.2820    4.9920   -3.4380 O.2    63  HIS63      -0.2867
     91  CB        -9.5570    7.9510   -3.0140 C.3    63  HIS63       0.0745
     92  CG       -10.4660    8.9230   -3.6920 C.ar   63  HIS63       0.0817
     93  ND1      -10.4750   10.2660   -3.3930 N.ar   63  HIS63      -0.2268
     94  CD2      -11.4060    8.7410   -4.6530 C.ar   63  HIS63       0.1154
     95  CE1      -11.3810   10.8750   -4.1410 C.ar   63  HIS63       0.1986
     96  NE2      -11.9590    9.9730   -4.9120 N.ar   63  HIS63      -0.2212
     97  N        -20.7960    6.4130   -7.2800 N.3    80  ALA80      -0.1231
     98  CA       -21.0130    7.7270   -6.6740 C.3    80  ALA80       0.1694
     99  C        -21.5930    8.5740   -7.7910 C.2    80  ALA80       0.2593
    100  O        -21.6780    8.1020   -8.9290 O.2    80  ALA80      -0.2718
    101  CB       -19.6980    8.3100   -6.1650 C.3    80  ALA80       0.0304
    102  N        -22.0280    9.7980   -7.5110 N.am   81  THR81      -0.1939
    103  CA       -22.6240   10.5780   -8.6000 C.3    81  THR81       0.2028
    104  C        -21.6030   10.9530   -9.6670 C.2    81  THR81       0.2642
    105  O        -21.9120   10.9110  -10.8630 O.2    81  THR81      -0.2714
    106  CB       -23.3420   11.8390   -8.1100 C.3    81  THR81       0.1808
    107  OG1      -22.4120   12.6880   -7.4250 O.3    81  THR81      -0.2208
    108  CG2      -24.4990   11.4500   -7.1840 C.3    81  THR81       0.0379
    109  N        -20.3970   11.3240   -9.2390 N.am   82  ASN82      -0.1971
    110  CA       -19.3230   11.6630  -10.1780 C.3    82  ASN82       0.1688
    111  C        -19.7150   12.7220  -11.2090 C.2    82  ASN82       0.2292
    112  O        -19.2030   12.7100  -12.3260 O.2    82  ASN82      -0.2864
    113  CB       -18.8050   10.4060  -10.8850 C.3    82  ASN82       0.1181
    114  CG       -18.1010    9.4580   -9.9310 C.2    82  ASN82       0.2629
    115  OD1      -17.1350    9.8400   -9.2650 O.2    82  ASN82      -0.2716
    116  ND2      -18.5920    8.2320   -9.8420 N.am   82  ASN82      -0.0877
    117  N        -19.3720   16.0220  -10.7650 N.3    84  GLN84      -0.1245
    118  CA       -18.4350   17.1440  -10.7090 C.3    84  GLN84       0.1566
    119  C        -17.0850   16.7250  -11.2780 C.2    84  GLN84       0.2260
    120  O        -16.5970   15.6360  -10.9760 O.2    84  GLN84      -0.2867
    121  CB       -18.2540   17.6250   -9.2550 C.3    84  GLN84       0.0367
    122  CG       -19.5260   18.1860   -8.6150 C.3    84  GLN84       0.0905
    123  CD       -19.2860   18.7670   -7.2240 C.2    84  GLN84       0.2608
    124  OE1      -18.1510   19.0770   -6.8520 O.2    84  GLN84      -0.2717
    125  NE2      -20.3560   18.9040   -6.4440 N.am   84  GLN84      -0.0878
    126  N        -14.2680   17.7700  -10.4070 N.3    86  SER86      -0.1202
    127  CA       -13.3500   17.6250   -9.2780 C.3    86  SER86       0.2020
    128  C        -13.4420   16.2440   -8.6280 C.2    86  SER86       0.2618
    129  O        -12.4870   15.7840   -8.0020 O.2    86  SER86      -0.2717
    130  CB       -13.5990   18.7210   -8.2370 C.3    86  SER86       0.2103
    131  OG       -14.8970   18.6070   -7.6730 O.3    86  SER86      -0.2182
    132  N        -14.5930   15.5890   -8.7710 N.am   87  ALA87      -0.1979
    133  CA       -14.7660   14.2280   -8.2570 C.3    87  ALA87       0.1597
    134  C        -14.1120   13.2120   -9.1830 C.2    87  ALA87       0.2287
    135  O        -13.5670   12.1980   -8.7420 O.2    87  ALA87      -0.2864
    136  CB       -16.2490   13.9010   -8.1020 C.3    87  ALA87       0.0319
    137  N         -9.5020   12.8430   -9.3090 N.3    90  PRO90      -0.2116
    138  CA        -8.6310   11.8950   -8.6040 C.3    90  PRO90       0.1372
    139  C         -8.8040   10.4560   -9.0830 C.2    90  PRO90       0.2244
    140  O         -7.8520    9.6800   -9.0140 O.2    90  PRO90      -0.2868
    141  CB        -9.0820   12.0170   -7.1440 C.3    90  PRO90       0.0268
    142  CG       -10.4580   12.5930   -7.2020 C.3    90  PRO90       0.0207
    143  CD       -10.4450   13.5080   -8.3880 C.3    90  PRO90       0.0892
    144  N        -33.9030    5.9400    1.0770 N.3   124  ARG124     -0.1245
    145  CA       -33.2030    7.2070    1.2590 C.3   124  ARG124      0.1563
    146  C        -33.6630    8.1320    0.1490 C.2   124  ARG124      0.2260
    147  O        -33.8600    7.6890   -0.9760 O.2   124  ARG124     -0.2867
    148  CB       -31.6910    6.9850    1.1570 C.3   124  ARG124      0.0307
    149  CG       -30.8360    8.2340    1.3080 C.3   124  ARG124      0.0489
    150  CD       -29.3530    7.8650    1.3590 C.3   124  ARG124      0.2205
    151  NE       -29.0240    6.8400    0.3670 N.pl3 124  ARG124     -0.0865
    152  CZ       -28.7820    7.0940   -0.9180 C.cat 124  ARG124      0.5346
    153  NH1      -28.8220    8.3420   -1.3700 N.pl3 124  ARG124      0.1354
    154  NH2      -28.4980    6.0970   -1.7490 N.pl3 124  ARG124      0.1354
    155  N        -33.4280   12.4450   -1.4930 N.3   126  VAL126     -0.1231
    156  CA       -32.8450   13.7800   -1.4690 C.3   126  VAL126      0.1692
    157  C        -33.9000   14.8100   -1.8750 C.2   126  VAL126      0.2591
    158  O        -34.9530   14.4560   -2.4170 O.2   126  VAL126     -0.2718
    159  CB       -31.6060   13.8950   -2.3900 C.3   126  VAL126      0.0266
    160  CG1      -30.5270   12.9030   -1.9700 C.3   126  VAL126      0.0020
    161  CG2      -31.9910   13.6970   -3.8480 C.3   126  VAL126      0.0020
    162  N        -33.6260   16.0840   -1.6040 N.am  127  GLU127     -0.1979
    163  CA       -34.5400   17.1530   -1.9830 C.3   127  GLU127      0.1602
    164  C        -34.4580   17.3840   -3.4840 C.2   127  GLU127      0.2287
    165  O        -33.4160   17.1360   -4.0910 O.2   127  GLU127     -0.2864
    166  CB       -34.1900   18.4430   -1.2390 C.3   127  GLU127      0.0415
    167  CG       -34.2450   18.3070    0.2790 C.3   127  GLU127      0.1163
    168  CD       -35.6390   17.9840    0.7850 C.2   127  GLU127      0.3649
    169  OE1      -36.6240   18.4470    0.1670 O.co2 127  GLU127     -0.2457
    170  OE2      -35.7500   17.2640    1.8000 O.co2 127  GLU127     -0.2457
    171  N        -34.0670   19.9610   -5.3550 N.3   129  TYR129     -0.1227
    172  CA       -32.9920   20.8140   -5.8600 C.3   129  TYR129      0.1736
    173  C        -31.6850   20.0450   -6.0910 C.2   129  TYR129      0.2595
    174  O        -30.9010   20.4060   -6.9660 O.2   129  TYR129     -0.2718
    175  CB       -32.7570   22.0320   -4.9480 C.3   129  TYR129      0.0548
    176  CG       -31.9540   21.7480   -3.7010 C.ar  129  TYR129     -0.0200
    177  CD1      -32.5780   21.3570   -2.5230 C.ar  129  TYR129     -0.0009
    178  CD2      -30.5730   21.8900   -3.6910 C.ar  129  TYR129     -0.0009
    179  CE1      -31.8470   21.0990   -1.3820 C.ar  129  TYR129      0.0417
    180  CE2      -29.8350   21.6350   -2.5550 C.ar  129  TYR129      0.0417
    181  CZ       -30.4800   21.2420   -1.4000 C.ar  129  TYR129      0.1957
    182  OH       -29.7630   20.9850   -0.2600 O.3   129  TYR129     -0.2866
    183  N        -31.4690   18.9880   -5.3110 N.am  130  VAL130     -0.1980
    184  CA       -30.2450   18.1900   -5.4060 C.3   130  VAL130      0.1595
    185  C        -30.2190   17.4690   -6.7450 C.2   130  VAL130      0.2287
    186  O        -29.2180   17.5010   -7.4650 O.2   130  VAL130     -0.2864
    187  CB       -30.1320   17.1580   -4.2570 C.3   130  VAL130      0.0276
    188  CG1      -28.8730   16.2950   -4.4110 C.3   130  VAL130      0.0022
    189  CG2      -30.1070   17.8540   -2.9010 C.3   130  VAL130      0.0022
    190  N        -29.7930   19.9020   -9.6500 N.3   133  LYS133     -0.1231
    191  CA       -28.3840   20.2600   -9.7550 C.3   133  LYS133      0.1693
    192  C        -27.5380   19.1280  -10.3330 C.2   133  LYS133      0.2592
    193  O        -26.7450   19.3520  -11.2480 O.2   133  LYS133     -0.2718
    194  CB       -27.8230   20.6640   -8.3920 C.3   133  LYS133      0.0285
    195  CG       -26.3240   20.9200   -8.4040 C.3   133  LYS133      0.0035
    196  CD       -25.8410   21.4530   -7.0520 C.3   133  LYS133      0.0206
    197  CE       -26.3300   20.5820   -5.9010 C.3   133  LYS133      0.1093
    198  NZ       -25.9120   21.1270   -4.5700 N.3   133  LYS133     -0.1314
    199  N        -27.6950   17.9220   -9.7950 N.am  134  HIS134     -0.1976
    200  CA       -26.9370   16.7720  -10.3050 C.3   134  HIS134      0.1656
    201  C        -27.1510   16.5810  -11.7910 C.2   134  HIS134      0.2291
    202  O        -26.2100   16.2900  -12.5290 O.2   134  HIS134     -0.2864
    203  CB       -27.3730   15.4710   -9.6380 C.3   134  HIS134      0.0771
    204  CG       -26.9150   15.3130   -8.2210 C.ar  134  HIS134      0.0820
    205  ND1      -27.2560   14.2150   -7.4650 N.ar  134  HIS134     -0.2267
    206  CD2      -26.1330   16.0900   -7.4370 C.ar  134  HIS134      0.1154
    207  CE1      -26.7230   14.3310   -6.2600 C.ar  134  HIS134      0.1986
    208  NE2      -26.0310   15.4550   -6.2180 N.ar  134  HIS134     -0.2212
@<TRIPOS>BOND
     1   202   201    2
     2   112   111    2
     3   201   200    1
     4   119   120    2
     5   119   118    1
     6   193   192    2
     7   111   110    1
     8   113   110    1
     9   113   114    1
    10   105   104    2
    11   117   118    1
    12   118   121    1
    13    12    13    1
    14    12    11    1
    15     7     8    1
    16   126   127    1
    17     8    11    1
    18     8     9    1
    19   192   199   am
    20   192   191    1
    21   200   199    1
    22   200   203    1
    23   110   109    1
    24    10     9    2
    25    13    14    1
    26   114   116   am
    27   114   115    2
    28   191   190    1
    29   191   194    1
    30   104   109   am
    31   104   103    1
    32   203   204    1
    33   137   138    1
    34   137   143    1
    35   127   128    1
    36   127   130    1
    37   121   122    1
    38   134   135    2
    39   134   133    1
    40   139   140    2
    41   139   138    1
    42   100    99    2
    43   132   128   am
    44   132   133    1
    45     4     3    2
    46   128   129    2
    47   122   123    1
    48   138   141    1
    49   103   106    1
    50   103   102    1
    51    15    14    1
    52   195   194    1
    53   195   196    1
    54   143   142    1
    55   133   136    1
    56   130   131    1
    57   204   205   ar
    58   204   206   ar
    59     1     2    1
    60   106   107    1
    61   106   108    1
    62     3     2    1
    63    99   102   am
    64    99    98    1
    65   205   207   ar
    66   186   185    2
    67   206   208   ar
    68    97    98    1
    69     2     5    1
    70   123   124    2
    71   123   125   am
    72   142   141    1
    73   196   197    1
    74   174   173    2
    75   185   184    1
    76    98   101    1
    77   207   208   ar
    78   173   172    1
    79   173   183   am
    80     5     6    1
    81   197   198    1
    82   172   171    1
    83   172   175    1
    84   184   183    1
    85   184   187    1
    86   175   176    1
    87    96    94   ar
    88    96    95   ar
    89    94    92   ar
    90   188   187    1
    91   187   189    1
    92    95    93   ar
    93   165   164    2
    94   161   159    1
    95    84    86   ar
    96    84    82   ar
    97   176   178   ar
    98   176   177   ar
    99    92    93   ar
   100    92    91    1
   101   178   180   ar
   102   164   163    1
   103    90    89    2
   104    86    85   ar
   105    82    81   ar
   106    88    91    1
   107    88    89    1
   108    88    87    1
   109    21    20    1
   110    16    17    1
   111   180   181   ar
   112   177   179   ar
   113   158   157    2
   114   159   160    1
   115   159   156    1
   116    20    17    1
   117    85    83   ar
   118   163   162    1
   119   163   166    1
   120    81    83   ar
   121    81    80    1
   122   157   162   am
   123   157   156    1
   124    29    27   am
   125   154   152    1
   126    17    18    1
   127   155   156    1
   128   181   179   ar
   129   181   182    1
   130   153   152    1
   131   166   167    1
   132    80    77    1
   133    79    78    2
   134   147   146    2
   135   152   151    2
   136    27    28    2
   137    27    26    1
   138    22    18   am
   139    22    23    1
   140    18    19    2
   141    77    78    1
   142    77    76    1
   143    39    38    1
   144    26    23    1
   145    40    38    1
   146   146   145    1
   147   169   168   ar
   148   167   168    1
   149   151   150    1
   150    23    24    1
   151    71    69    1
   152    38    37    2
   153   168   170   ar
   154   144   145    1
   155   148   145    1
   156   148   149    1
   157    56    55    2
   158   149   150    1
   159    24    25    2
   160    68    67    2
   161    37    36    1
   162    69    70    1
   163    69    66    1
   164    55    57   am
   165    55    54    1
   166    67    66    1
   167    67    72   am
   168    75    74    2
   169    36    35    1
   170    66    65    1
   171    54    53    1
   172    73    72    1
   173    73    74    1
   174    47    46    2
   175    35    34    1
   176    30    31    1
   177    53    50    1
   178    34    31    1
   179    52    51    2
   180    46    48   am
   181    46    45    1
   182    50    51    1
   183    50    49    1
   184    31    32    1
   185    42    45    1
   186    42    41    1
   187    42    43    1
   188    51    58   am
   189    44    43    2
   190    32    33    2
   191    58    59    1
   192    59    60    1
   193    59    62    1
   194    60    61    2
   195    62    64    1
   196    62    63    1
