@<TRIPOS>MOLECULE
tmp/4mdfA01.pdb
 137 129 0 0 0
SMALL
GASTEIGER

@<TRIPOS>ATOM
      1  N        -28.4950   11.5170   -8.1870 N.3    18  SER18      -0.1202
      2  CA       -29.2190   10.6750   -7.2580 C.3    18  SER18       0.2020
      3  C        -30.5210   10.2980   -7.9540 C.2    18  SER18       0.2619
      4  O        -31.1190   11.1160   -8.6620 O.2    18  SER18      -0.2717
      5  CB       -29.5050   11.4290   -5.9590 C.3    18  SER18       0.2103
      6  OG       -30.3380   10.6570   -5.1070 O.3    18  SER18      -0.2182
      7  N        -30.9300    9.0440   -7.7980 N.am   19  GLY19      -0.1942
      8  CA       -32.1700    8.5810   -8.3870 C.3    19  GLY19       0.2014
      9  C        -32.0460    8.0680   -9.8100 C.2    19  GLY19       0.2640
     10  O        -33.0340    7.6060  -10.3740 O.2    19  GLY19      -0.2714
     11  N        -30.8490    8.1550  -10.3960 N.am   20  SER20      -0.1935
     12  CA       -30.6550    7.7160  -11.7850 C.3    20  SER20       0.2055
     13  C        -30.5080    6.2040  -11.9270 C.2    20  SER20       0.2644
     14  O        -30.5460    5.6760  -13.0430 O.2    20  SER20      -0.2714
     15  CB       -29.4560    8.4260  -12.4360 C.3    20  SER20       0.2130
     16  OG       -28.2480    8.0960  -11.7700 O.3    20  SER20      -0.2179
     17  N        -30.3260    5.5100  -10.8060 N.am   21  GLY21      -0.1939
     18  CA       -30.2720    4.0570  -10.8150 C.3    21  GLY21       0.2014
     19  C        -28.8820    3.4500  -10.8400 C.2    21  GLY21       0.2639
     20  O        -28.7160    2.2840  -11.2210 O.2    21  GLY21      -0.2714
     21  N        -27.8860    4.2290  -10.4200 N.am   22  LYS22      -0.1963
     22  CA       -26.5010    3.7650  -10.3920 C.3    22  LYS22       0.1728
     23  C        -26.3080    2.4830   -9.5890 C.2    22  LYS22       0.2617
     24  O        -25.6870    1.5250  -10.0610 O.2    22  LYS22      -0.2715
     25  CB       -25.5810    4.8470   -9.8230 C.3    22  LYS22       0.0311
     26  CG       -25.5570    6.1430  -10.6400 C.3    22  LYS22       0.0038
     27  CD       -24.5990    7.1730  -10.0110 C.3    22  LYS22       0.0206
     28  CE       -24.9870    7.5440   -8.5660 C.3    22  LYS22       0.1093
     29  NZ       -26.3140    8.2310   -8.5750 N.3    22  LYS22      -0.1314
     30  N        -26.8010    2.4750   -8.3550 N.am   23  SER23      -0.1936
     31  CA       -26.5560    1.3400   -7.4840 C.3    23  SER23       0.2055
     32  C        -27.2840    0.0960   -7.9760 C.2    23  SER23       0.2643
     33  O        -26.7480   -1.0060   -7.8860 O.2    23  SER23      -0.2714
     34  CB       -26.9450    1.6740   -6.0440 C.3    23  SER23       0.2130
     35  OG       -26.1610    2.7630   -5.5820 O.3    23  SER23      -0.2179
     36  N        -28.4910    0.2900   -8.5010 N.am   24  THR24      -0.1950
     37  CA       -29.2800   -0.8080   -9.0620 C.3    24  THR24       0.1897
     38  C        -28.5390   -1.4180  -10.2460 C.2    24  THR24       0.2313
     39  O        -28.4230   -2.6380  -10.3710 O.2    24  THR24      -0.2863
     40  CB       -30.6750   -0.3150   -9.4970 C.3    24  THR24       0.1794
     41  OG1      -31.3940    0.1330   -8.3370 O.3    24  THR24      -0.2208
     42  CG2      -31.4630   -1.4340  -10.1600 C.3    24  THR24       0.0378
     43  N        -21.7450    6.0650   -0.6690 N.3    39  ASN39      -0.1240
     44  CA       -22.6810    5.9510    0.4440 C.3    39  ASN39       0.1653
     45  C        -22.2800    4.8320    1.3980 C.2    39  ASN39       0.2266
     46  O        -22.3610    4.9930    2.6160 O.2    39  ASN39      -0.2867
     47  CB       -24.1210    5.7900   -0.0640 C.3    39  ASN39       0.1155
     48  CG       -24.6310    7.0460   -0.7630 C.2    39  ASN39       0.2627
     49  OD1      -24.3010    8.1620   -0.3620 O.2    39  ASN39      -0.2716
     50  ND2      -25.4250    6.8670   -1.8230 N.am   39  ASN39      -0.0877
     51  N        -19.3580    3.6710   -7.5740 N.3    79  ASP79      -0.1239
     52  CA       -20.7660    4.0050   -7.4500 C.3    79  ASP79       0.1674
     53  C        -20.8870    5.2700   -6.6070 C.2    79  ASP79       0.2266
     54  O        -21.0210    5.2030   -5.3910 O.2    79  ASP79      -0.2867
     55  CB       -21.5390    2.8340   -6.8160 C.3    79  ASP79       0.1410
     56  CG       -23.0210    3.1290   -6.6460 C.2    79  ASP79       0.3668
     57  OD1      -23.5060    4.1430   -7.2110 O.co2  79  ASP79      -0.2456
     58  OD2      -23.7060    2.3530   -5.9360 O.co2  79  ASP79      -0.2456
     59  N        -22.0280    9.7980   -7.5110 N.3    81  THR81      -0.1218
     60  CA       -22.6240   10.5780   -8.6000 C.3    81  THR81       0.1862
     61  C        -21.6030   10.9530   -9.6670 C.2    81  THR81       0.2287
     62  O        -21.9120   10.9110  -10.8630 O.2    81  THR81      -0.2866
     63  CB       -23.3420   11.8390   -8.1100 C.3    81  THR81       0.1770
     64  OG1      -22.4120   12.6880   -7.4250 O.3    81  THR81      -0.2211
     65  CG2      -24.4990   11.4500   -7.1840 C.3    81  THR81       0.0375
     66  N        -38.5000    8.7170   -9.4010 N.3   117  ARG117     -0.1245
     67  CA       -37.9110    7.5990   -8.6630 C.3   117  ARG117      0.1563
     68  C        -37.5740    7.9870   -7.2270 C.2   117  ARG117      0.2260
     69  O        -37.8400    7.2380   -6.2850 O.2   117  ARG117     -0.2867
     70  CB       -36.6530    7.0990   -9.3700 C.3   117  ARG117      0.0307
     71  CG       -36.9250    6.4760  -10.7200 C.3   117  ARG117      0.0489
     72  CD       -35.6370    6.0170  -11.3600 C.3   117  ARG117      0.2205
     73  NE       -35.8650    5.3540  -12.6380 N.pl3 117  ARG117     -0.0865
     74  CZ       -34.8850    4.9110  -13.4120 C.cat 117  ARG117      0.5346
     75  NH1      -33.6280    5.0670  -13.0180 N.pl3 117  ARG117      0.1354
     76  NH2      -35.1540    4.3230  -14.5730 N.pl3 117  ARG117      0.1354
     77  N        -40.4890    8.0950   -4.8700 N.3   120  ASN120     -0.1225
     78  CA       -41.0160    6.7860   -4.4830 C.3   120  ASN120      0.1785
     79  C        -40.0610    5.9050   -3.6790 C.2   120  ASN120      0.2597
     80  O        -40.4050    4.7780   -3.3200 O.2   120  ASN120     -0.2718
     81  CB       -41.4960    6.0190   -5.7170 C.3   120  ASN120      0.1169
     82  CG       -42.6400    6.7170   -6.4260 C.2   120  ASN120      0.2627
     83  OD1      -43.5130    7.3090   -5.7870 O.2   120  ASN120     -0.2716
     84  ND2      -42.6400    6.6540   -7.7520 N.am  120  ASN120     -0.0877
     85  N        -38.8640    6.4070   -3.3990 N.am  121  ARG121     -0.1979
     86  CA       -37.9000    5.6500   -2.6050 C.3   121  ARG121      0.1597
     87  C        -38.3230    5.5220   -1.1510 C.2   121  ARG121      0.2287
     88  O        -38.9240    6.4330   -0.5860 O.2   121  ARG121     -0.2864
     89  CB       -36.5170    6.2940   -2.6700 C.3   121  ARG121      0.0334
     90  CG       -35.8980    6.2600   -4.0460 C.3   121  ARG121      0.0492
     91  CD       -34.5090    6.8480   -4.0370 C.3   121  ARG121      0.2205
     92  NE       -33.5590    6.0040   -3.3210 N.pl3 121  ARG121     -0.0865
     93  CZ       -32.2400    6.1450   -3.3970 C.cat 121  ARG121      0.5346
     94  NH1      -31.7250    7.0930   -4.1670 N.pl3 121  ARG121      0.1354
     95  NH2      -31.4360    5.3430   -2.7000 N.pl3 121  ARG121      0.1354
     96  N        -35.8450    3.8580    0.9350 N.3   123  ASP123     -0.1225
     97  CA       -34.5540    3.6610    1.5930 C.3   123  ASP123      0.1805
     98  C        -33.8870    4.9780    1.9930 C.2   123  ASP123      0.2597
     99  O        -33.3890    5.1200    3.1160 O.2   123  ASP123     -0.2718
    100  CB       -33.6110    2.7970    0.7370 C.3   123  ASP123      0.1424
    101  CG       -33.3590    3.3770   -0.6500 C.2   123  ASP123      0.3668
    102  OD1      -34.2330    4.1010   -1.1760 O.co2 123  ASP123     -0.2456
    103  OD2      -32.2840    3.0900   -1.2200 O.co2 123  ASP123     -0.2456
    104  N        -33.9030    5.9400    1.0770 N.am  124  ARG124     -0.1979
    105  CA       -33.2030    7.2070    1.2590 C.3   124  ARG124      0.1597
    106  C        -33.6630    8.1320    0.1490 C.2   124  ARG124      0.2287
    107  O        -33.8600    7.6890   -0.9760 O.2   124  ARG124     -0.2864
    108  CB       -31.6910    6.9850    1.1570 C.3   124  ARG124      0.0334
    109  CG       -30.8360    8.2340    1.3080 C.3   124  ARG124      0.0492
    110  CD       -29.3530    7.8650    1.3590 C.3   124  ARG124      0.2205
    111  NE       -29.0240    6.8400    0.3670 N.pl3 124  ARG124     -0.0865
    112  CZ       -28.7820    7.0940   -0.9180 C.cat 124  ARG124      0.5346
    113  NH1      -28.8220    8.3420   -1.3700 N.pl3 124  ARG124      0.1354
    114  NH2      -28.4980    6.0970   -1.7490 N.pl3 124  ARG124      0.1354
    115  N        -34.1910    4.9930  -19.9040 N.3   159  PRO159     -0.2116
    116  CA       -34.2610    3.7860  -19.0790 C.3   159  PRO159      0.1372
    117  C        -34.2160    2.5370  -19.9440 C.2   159  PRO159      0.2244
    118  O        -33.6520    1.5400  -19.5200 O.2   159  PRO159     -0.2868
    119  CB       -35.6180    3.9210  -18.3870 C.3   159  PRO159      0.0268
    120  CG       -35.8020    5.4160  -18.2770 C.3   159  PRO159      0.0207
    121  CD       -35.2720    5.9420  -19.5840 C.3   159  PRO159      0.0892
    122  N        -30.5840    1.8660  -20.6280 N.3   162  VAL162     -0.1231
    123  CA       -29.9260    1.3780  -19.4230 C.3   162  VAL162      0.1692
    124  C        -30.2380   -0.1000  -19.2090 C.2   162  VAL162      0.2591
    125  O        -29.3450   -0.8970  -18.9270 O.2   162  VAL162     -0.2718
    126  CB       -30.3780    2.1680  -18.1790 C.3   162  VAL162      0.0266
    127  CG1      -29.8630    1.5030  -16.8990 C.3   162  VAL162      0.0020
    128  CG2      -29.9020    3.6070  -18.2650 C.3   162  VAL162      0.0020
    129  N        -31.5090   -0.4560  -19.3660 N.am  163  GLU163     -0.1979
    130  CA       -31.9590   -1.8140  -19.0920 C.3   163  GLU163      0.1602
    131  C        -31.2710   -2.8090  -20.0210 C.2   163  GLU163      0.2287
    132  O        -30.9630   -3.9290  -19.6140 O.2   163  GLU163     -0.2864
    133  CB       -33.4820   -1.9180  -19.2250 C.3   163  GLU163      0.0415
    134  CG       -34.1010   -3.0950  -18.4590 C.3   163  GLU163      0.1163
    135  CD       -33.9070   -4.4310  -19.1570 C.2   163  GLU163      0.3649
    136  OE1      -33.8990   -4.4490  -20.4070 O.co2 163  GLU163     -0.2457
    137  OE2      -33.7600   -5.4640  -18.4590 O.co2 163  GLU163     -0.2457
@<TRIPOS>BOND
     1   122   123    1
     2   136   135   ar
     3   131   132    2
     4   131   130    1
     5   117   118    2
     6   117   116    1
     7   115   121    1
     8   115   116    1
     9   121   120    1
    10   123   124    1
    11   123   126    1
    12   129   124   am
    13   129   130    1
    14   133   130    1
    15   133   134    1
    16   124   125    2
    17   135   134    1
    18   135   137   ar
    19   116   119    1
    20   119   120    1
    21   128   126    1
    22   126   127    1
    23    76    74    1
    24    74    75    1
    25    74    73    2
    26    14    13    2
    27    73    72    1
    28    15    12    1
    29    15    16    1
    30    13    12    1
    31    13    17   am
    32    12    11    1
    33    72    71    1
    34    20    19    2
    35    62    61    2
    36    19    18    1
    37    19    21   am
    38    18    17    1
    39    71    70    1
    40    26    27    1
    41    26    25    1
    42    21    22    1
    43    11     9   am
    44    22    25    1
    45    22    23    1
    46    10     9    2
    47    39    38    2
    48    38    37    1
    49    42    40    1
    50    24    23    2
    51    27    28    1
    52     9     8    1
    53    61    60    1
    54    23    30   am
    55    40    37    1
    56    40    41    1
    57    66    67    1
    58    70    67    1
    59    37    36    1
    60    67    68    1
    61     4     3    2
    62    60    63    1
    63    60    59    1
    64    29    28    1
    65    36    32   am
    66     8     7    1
    67    30    31    1
    68     1     2    1
    69    63    64    1
    70    63    65    1
    71    32    33    2
    72    32    31    1
    73     3     7   am
    74     3     2    1
    75    84    82   am
    76    51    52    1
    77    31    34    1
    78    52    55    1
    79    52    53    1
    80     2     5    1
    81    68    69    2
    82    57    56   ar
    83    55    56    1
    84    56    58   ar
    85    53    54    2
    86    82    83    2
    87    82    81    1
    88    34    35    1
    89     5     6    1
    90    81    78    1
    91    77    78    1
    92    78    79    1
    93    94    93    1
    94    90    91    1
    95    90    89    1
    96    91    92    1
    97    79    85   am
    98    79    80    2
    99    85    86    1
   100    93    92    2
   101    93    95    1
   102    89    86    1
   103    86    87    1
   104    50    48   am
   105   114   112    1
   106   113   112    1
   107   103   101   ar
   108   102   101   ar
   109    87    88    2
   110   107   106    2
   111   112   111    2
   112    48    49    2
   113    48    47    1
   114    43    44    1
   115   101   100    1
   116    47    44    1
   117   106   105    1
   118   111   110    1
   119    44    45    1
   120   100    97    1
   121    96    97    1
   122   104   105    1
   123   104    98   am
   124   108   105    1
   125   108   109    1
   126   109   110    1
   127    45    46    2
   128    97    98    1
   129    98    99    2
