@<TRIPOS>MOLECULE
tmp/4mdjA00.pdb
 132 130 0 0 0
SMALL
GASTEIGER

@<TRIPOS>ATOM
      1  N        -43.0870  -21.5000   -6.3650 N.3     7  GLN7       -0.1245
      2  CA       -43.5800  -22.2900   -5.2560 C.3     7  GLN7        0.1566
      3  C        -43.3480  -23.7480   -5.6340 C.2     7  GLN7        0.2260
      4  O        -43.9850  -24.2680   -6.5560 O.2     7  GLN7       -0.2867
      5  CB       -45.0630  -21.9950   -5.0450 C.3     7  GLN7        0.0367
      6  CG       -45.7710  -22.8680   -4.0380 C.3     7  GLN7        0.0905
      7  CD       -47.2700  -22.6190   -4.0510 C.2     7  GLN7        0.2608
      8  OE1      -47.7210  -21.4780   -4.1990 O.2     7  GLN7       -0.2717
      9  NE2      -48.0500  -23.6850   -3.8980 N.am    7  GLN7       -0.0878
     10  N        -43.0170  -27.8460   -4.6750 N.3     9  GLU9       -0.1245
     11  CA       -43.5670  -28.8530   -3.7780 C.3     9  GLU9        0.1567
     12  C        -43.0510  -30.2090   -4.2060 C.2     9  GLU9        0.2260
     13  O        -42.7680  -30.4370   -5.3850 O.2     9  GLU9       -0.2867
     14  CB       -45.0940  -28.8840   -3.8760 C.3     9  GLU9        0.0388
     15  CG       -45.7660  -27.5630   -3.5530 C.3     9  GLU9        0.1160
     16  CD       -47.2100  -27.5150   -4.0110 C.2     9  GLU9        0.3649
     17  OE1      -47.8460  -28.5860   -4.1580 O.co2   9  GLU9       -0.2457
     18  OE2      -47.7160  -26.4000   -4.2240 O.co2   9  GLU9       -0.2457
     19  N        -42.6840  -28.0200    1.0260 N.3    20  PHE20      -0.1241
     20  CA       -43.3540  -26.8870    0.4030 C.3    20  PHE20       0.1605
     21  C        -42.4720  -25.6780    0.6340 C.2    20  PHE20       0.2264
     22  O        -42.1700  -25.3350    1.7800 O.2    20  PHE20      -0.2867
     23  CB       -44.7210  -26.6810    1.0630 C.3    20  PHE20       0.0534
     24  CG       -45.5230  -25.5290    0.5040 C.ar   20  PHE20      -0.0203
     25  CD1      -46.6140  -25.7650   -0.3210 C.ar   20  PHE20      -0.0042
     26  CD2      -45.2170  -24.2160    0.8370 C.ar   20  PHE20      -0.0042
     27  CE1      -47.3640  -24.7130   -0.8230 C.ar   20  PHE20      -0.0003
     28  CE2      -45.9620  -23.1610    0.3330 C.ar   20  PHE20      -0.0003
     29  CZ       -47.0400  -23.4130   -0.4960 C.ar   20  PHE20      -0.0000
     30  N        -40.9420  -21.6240   -1.1590 N.3    22  PHE22      -0.1241
     31  CA       -40.8900  -20.5880   -2.1800 C.3    22  PHE22       0.1605
     32  C        -39.4350  -20.2300   -2.4640 C.2    22  PHE22       0.2264
     33  O        -38.6210  -20.1130   -1.5380 O.2    22  PHE22      -0.2867
     34  CB       -41.6230  -19.3260   -1.7190 C.3    22  PHE22       0.0534
     35  CG       -43.0660  -19.2680   -2.1280 C.ar   22  PHE22      -0.0203
     36  CD1      -44.0060  -20.0790   -1.5200 C.ar   22  PHE22      -0.0042
     37  CD2      -43.4890  -18.3680   -3.0940 C.ar   22  PHE22      -0.0042
     38  CE1      -45.3480  -20.0100   -1.8810 C.ar   22  PHE22      -0.0003
     39  CE2      -44.8260  -18.2950   -3.4600 C.ar   22  PHE22      -0.0003
     40  CZ       -45.7560  -19.1210   -2.8530 C.ar   22  PHE22      -0.0000
     41  N        -37.0800  -18.3520   -0.0750 N.3    29  ILE29      -0.1231
     42  CA       -37.7170  -17.2910    0.7040 C.3    29  ILE29       0.1692
     43  C        -38.1560  -17.8780    2.0370 C.2    29  ILE29       0.2592
     44  O        -37.8410  -17.3430    3.1010 O.2    29  ILE29      -0.2718
     45  CB       -38.9510  -16.6980    0.0010 C.3    29  ILE29       0.0266
     46  CG1      -38.5920  -16.2060   -1.4010 C.3    29  ILE29       0.0019
     47  CG2      -39.5320  -15.5560    0.8240 C.3    29  ILE29       0.0020
     48  CD1      -39.7710  -15.5460   -2.1130 C.3    29  ILE29       0.0001
     49  N        -38.8820  -18.9910    1.9610 N.am   30  PHE30      -0.1976
     50  CA       -39.3200  -19.7090    3.1500 C.3    30  PHE30       0.1639
     51  C        -39.6990  -21.1330    2.7910 C.2    30  PHE30       0.2290
     52  O        -39.8400  -21.4700    1.6170 O.2    30  PHE30      -0.2864
     53  CB       -40.5080  -18.9990    3.8300 C.3    30  PHE30       0.0560
     54  CG       -41.8130  -19.1080    3.0780 C.ar   30  PHE30      -0.0200
     55  CD1      -42.6960  -20.1480    3.3340 C.ar   30  PHE30      -0.0042
     56  CD2      -42.1610  -18.1600    2.1280 C.ar   30  PHE30      -0.0042
     57  CE1      -43.9060  -20.2410    2.6480 C.ar   30  PHE30      -0.0003
     58  CE2      -43.3700  -18.2490    1.4380 C.ar   30  PHE30      -0.0003
     59  CZ       -44.2360  -19.2890    1.6990 C.ar   30  PHE30      -0.0000
     60  N        -39.0230  -18.6740    7.7240 N.3    41  TRP41      -0.1241
     61  CA       -38.3990  -17.7320    6.8030 C.3    41  TRP41       0.1605
     62  C        -36.8980  -17.9850    6.7560 C.2    41  TRP41       0.2264
     63  O        -36.2730  -18.2350    7.7820 O.2    41  TRP41      -0.2867
     64  CB       -38.6940  -16.2860    7.2230 C.3    41  TRP41       0.0550
     65  CG       -40.1660  -15.9850    7.2250 C.ar   41  TRP41       0.0003
     66  CD1      -41.0110  -16.0280    8.2970 C.ar   41  TRP41       0.0946
     67  CD2      -40.9680  -15.6130    6.0960 C.ar   41  TRP41       0.0152
     68  NE1      -42.2910  -15.7020    7.9030 N.ar   41  TRP41      -0.2442
     69  CE2      -42.2890  -15.4450    6.5580 C.ar   41  TRP41       0.0810
     70  CE3      -40.6960  -15.4110    4.7370 C.ar   41  TRP41       0.0012
     71  CZ2      -43.3380  -15.0840    5.7090 C.ar   41  TRP41       0.0191
     72  CZ3      -41.7380  -15.0420    3.8980 C.ar   41  TRP41       0.0001
     73  CH2      -43.0430  -14.8810    4.3890 C.ar   41  TRP41       0.0015
     74  N        -41.7450   -8.5640    7.4020 N.3    49  PHE49      -0.1227
     75  CA       -42.2510   -7.8350    6.2440 C.3    49  PHE49       0.1736
     76  C        -43.4030   -8.5610    5.5540 C.2    49  PHE49       0.2595
     77  O        -44.1830   -7.9570    4.8210 O.2    49  PHE49      -0.2718
     78  CB       -41.1170   -7.6230    5.2400 C.3    49  PHE49       0.0547
     79  CG       -39.9050   -6.9600    5.8300 C.ar   49  PHE49      -0.0202
     80  CD1      -38.6340   -7.4290    5.5410 C.ar   49  PHE49      -0.0042
     81  CD2      -40.0380   -5.8670    6.6740 C.ar   49  PHE49      -0.0042
     82  CE1      -37.5140   -6.8230    6.0820 C.ar   49  PHE49      -0.0003
     83  CE2      -38.9220   -5.2540    7.2200 C.ar   49  PHE49      -0.0003
     84  CZ       -37.6590   -5.7330    6.9240 C.ar   49  PHE49      -0.0000
     85  N        -43.4980   -9.8640    5.7790 N.am   50  ALA50      -0.1966
     86  CA       -44.4940  -10.6700    5.0890 C.3    50  ALA50       0.1728
     87  C        -44.9770  -11.7890    5.9900 C.2    50  ALA50       0.2617
     88  O        -44.3440  -12.0960    6.9980 O.2    50  ALA50      -0.2715
     89  CB       -43.9020  -11.2460    3.8140 C.3    50  ALA50       0.0334
     90  N        -46.0980  -12.4010    5.6280 N.am   51  SER51      -0.1936
     91  CA       -46.5800  -13.5610    6.3590 C.3    51  SER51       0.2055
     92  C        -47.0340  -14.6440    5.3930 C.2    51  SER51       0.2643
     93  O        -47.2750  -14.3810    4.2160 O.2    51  SER51      -0.2714
     94  CB       -47.7320  -13.1790    7.2870 C.3    51  SER51       0.2130
     95  OG       -48.8520  -12.7420    6.5410 O.3    51  SER51      -0.2179
     96  N        -47.1370  -15.8660    5.9010 N.am   52  PHE52      -0.1959
     97  CA       -47.7270  -16.9590    5.1440 C.3    52  PHE52       0.1771
     98  C        -48.4330  -17.9220    6.0860 C.2    52  PHE52       0.2619
     99  O        -47.8640  -18.3500    7.0910 O.2    52  PHE52      -0.2715
    100  CB       -46.6770  -17.7060    4.3210 C.3    52  PHE52       0.0574
    101  CG       -47.2490  -18.8490    3.5320 C.ar   52  PHE52      -0.0200
    102  CD1      -47.9290  -18.6120    2.3490 C.ar   52  PHE52      -0.0042
    103  CD2      -47.1260  -20.1580    3.9800 C.ar   52  PHE52      -0.0042
    104  CE1      -48.4700  -19.6590    1.6170 C.ar   52  PHE52      -0.0003
    105  CE2      -47.6650  -21.2090    3.2530 C.ar   52  PHE52      -0.0003
    106  CZ       -48.3380  -20.9570    2.0690 C.ar   52  PHE52      -0.0000
    107  N        -49.6760  -18.2530    5.7610 N.am   53  GLU53      -0.1977
    108  CA       -50.4450  -19.1860    6.5690 C.3    53  GLU53       0.1602
    109  C        -49.9750  -20.6030    6.2870 C.2    53  GLU53       0.2287
    110  O        -50.3250  -21.1840    5.2580 O.2    53  GLU53      -0.2864
    111  CB       -51.9370  -19.0590    6.2650 C.3    53  GLU53       0.0415
    112  CG       -52.8210  -19.9480    7.1240 C.3    53  GLU53       0.1163
    113  CD       -52.8480  -19.5200    8.5810 C.2    53  GLU53       0.3649
    114  OE1      -52.4690  -18.3640    8.8770 O.co2  53  GLU53      -0.2457
    115  OE2      -53.2530  -20.3410    9.4310 O.co2  53  GLU53      -0.2457
    116  N        -52.1610  -23.7280    5.1260 N.3    56  GLY56      -0.1210
    117  CA       -52.5230  -23.8770    3.7310 C.3    56  GLY56       0.1956
    118  C        -51.6780  -24.8630    2.9480 C.2    56  GLY56       0.2611
    119  O        -52.1700  -25.5020    2.0170 O.2    56  GLY56      -0.2717
    120  N        -50.4050  -24.9900    3.3150 N.am   57  ALA57      -0.1979
    121  CA       -49.4930  -25.8580    2.5760 C.3    57  ALA57       0.1597
    122  C        -49.8470  -27.3380    2.7210 C.2    57  ALA57       0.2287
    123  O        -49.5790  -28.1380    1.8300 O.2    57  ALA57      -0.2864
    124  CB       -48.0540  -25.6090    3.0040 C.3    57  ALA57       0.0319
    125  N        -52.0530  -28.6940   -0.1390 N.3    60  ASN60      -0.1240
    126  CA       -51.3090  -28.9390   -1.3720 C.3    60  ASN60       0.1653
    127  C        -50.5650  -30.2640   -1.3340 C.2    60  ASN60       0.2266
    128  O        -50.6110  -31.0430   -2.2850 O.2    60  ASN60      -0.2867
    129  CB       -50.3100  -27.8090   -1.6610 C.3    60  ASN60       0.1155
    130  CG       -50.9740  -26.5590   -2.1870 C.2    60  ASN60       0.2627
    131  OD1      -51.9780  -26.0970   -1.6450 O.2    60  ASN60      -0.2716
    132  ND2      -50.4260  -26.0110   -3.2660 N.am   60  ASN60      -0.0877
@<TRIPOS>BOND
     1     4     3    2
     2     1     2    1
     3     3     2    1
     4    13    12    2
     5     2     5    1
     6     5     6    1
     7    10    11    1
     8    18    16   ar
     9    12    11    1
    10     8     7    2
    11    17    16   ar
    12     7     6    1
    13     7     9   am
    14    16    15    1
    15    14    11    1
    16    14    15    1
    17    39    37   ar
    18    39    40   ar
    19   132   130   am
    20    37    35   ar
    21    40    38   ar
    22    32    31    1
    23    32    33    2
    24   128   127    2
    25   130   129    1
    26   130   131    2
    27    31    34    1
    28    31    30    1
    29    35    34    1
    30    35    36   ar
    31    48    46    1
    32    38    36   ar
    33   129   126    1
    34    46    45    1
    35   126   127    1
    36   126   125    1
    37    27    29   ar
    38    27    25   ar
    39    29    28   ar
    40    25    24   ar
    41    41    42    1
    42    45    42    1
    43    45    47    1
    44    28    26   ar
    45    20    21    1
    46    20    19    1
    47    20    23    1
    48    24    26   ar
    49    24    23    1
    50    21    22    2
    51    42    43    1
    52    58    59   ar
    53    58    56   ar
    54   104   106   ar
    55   104   102   ar
    56    52    51    2
    57    59    57   ar
    58   123   122    2
    59    49    43   am
    60    49    50    1
    61   119   118    2
    62    43    44    2
    63   106   105   ar
    64    56    54   ar
    65   102   101   ar
    66   121   122    1
    67   121   124    1
    68   121   120    1
    69    57    55   ar
    70    51    50    1
    71   118   120   am
    72   118   117    1
    73    54    55   ar
    74    54    53    1
    75    50    53    1
    76   105   103   ar
    77   101   103   ar
    78   101   100    1
    79   117   116    1
    80    89    86    1
    81    72    73   ar
    82    72    70   ar
    83    93    92    2
    84   100    97    1
    85    73    71   ar
    86    70    67   ar
    87    77    76    2
    88    86    85    1
    89    86    87    1
    90    97    96    1
    91    97    98    1
    92    78    79    1
    93    78    75    1
    94   110   109    2
    95    92    96   am
    96    92    91    1
    97    80    79   ar
    98    80    82   ar
    99    76    85   am
   100    76    75    1
   101    90    87   am
   102    90    91    1
   103    71    69   ar
   104   107    98   am
   105   107   108    1
   106    79    81   ar
   107    87    88    2
   108    82    84   ar
   109    98    99    2
   110    67    69   ar
   111    67    65   ar
   112    75    74    1
   113   111   108    1
   114   111   112    1
   115   109   108    1
   116    91    94    1
   117    95    94    1
   118    69    68   ar
   119    81    83   ar
   120    62    61    1
   121    62    63    2
   122    61    64    1
   123    61    60    1
   124    84    83   ar
   125   112   113    1
   126    64    65    1
   127    65    66   ar
   128    68    66   ar
   129   113   114   ar
   130   113   115   ar
