@<TRIPOS>MOLECULE
tmp/4mdjB00.pdb
 102 98 0 0 0
SMALL
GASTEIGER

@<TRIPOS>ATOM
      1  N        -45.0200  -24.0380   -9.3290 N.3    12  HIS12      -0.1241
      2  CA       -45.8950  -22.9700   -9.7830 C.3    12  HIS12       0.1621
      3  C        -44.9790  -21.7720   -9.9660 C.2    12  HIS12       0.2264
      4  O        -44.5130  -21.1940   -8.9800 O.2    12  HIS12      -0.2867
      5  CB       -46.9740  -22.6420   -8.7370 C.3    12  HIS12       0.0745
      6  CG       -47.6590  -23.8410   -8.1410 C.ar   12  HIS12       0.0817
      7  ND1      -48.7750  -24.4280   -8.7030 N.ar   12  HIS12      -0.2268
      8  CD2      -47.4150  -24.5300   -6.9990 C.ar   12  HIS12       0.1154
      9  CE1      -49.1750  -25.4330   -7.9460 C.ar   12  HIS12       0.1986
     10  NE2      -48.3640  -25.5180   -6.9020 N.ar   12  HIS12      -0.2212
     11  N        -47.0050  -17.0190  -16.1700 N.3    25  PHE25      -0.1241
     12  CA       -47.2410  -18.0000  -15.1260 C.3    25  PHE25       0.1605
     13  C        -47.2190  -19.4090  -15.7050 C.2    25  PHE25       0.2264
     14  O        -47.8510  -19.6730  -16.7290 O.2    25  PHE25      -0.2867
     15  CB       -48.6060  -17.7360  -14.4680 C.3    25  PHE25       0.0534
     16  CG       -49.0850  -18.8560  -13.6030 C.ar   25  PHE25      -0.0203
     17  CD1      -48.4680  -19.1320  -12.3900 C.ar   25  PHE25      -0.0042
     18  CD2      -50.1640  -19.6340  -13.9970 C.ar   25  PHE25      -0.0042
     19  CE1      -48.9100  -20.1750  -11.5940 C.ar   25  PHE25      -0.0003
     20  CE2      -50.6130  -20.6750  -13.2030 C.ar   25  PHE25      -0.0003
     21  CZ       -49.9860  -20.9440  -12.0030 C.ar   25  PHE25      -0.0000
     22  N        -47.8710  -23.4990  -14.4730 N.3    27  ASP27      -0.1239
     23  CA       -48.3180  -24.4740  -13.4780 C.3    27  ASP27       0.1674
     24  C        -47.7540  -25.7970  -13.9830 C.2    27  ASP27       0.2266
     25  O        -48.2400  -26.3270  -14.9780 O.2    27  ASP27      -0.2867
     26  CB       -49.8610  -24.5240  -13.4600 C.3    27  ASP27       0.1410
     27  CG       -50.4480  -24.9190  -12.1010 C.2    27  ASP27       0.3668
     28  OD1      -50.0300  -24.3560  -11.0690 O.co2  27  ASP27      -0.2456
     29  OD2      -51.3590  -25.7830  -12.0690 O.co2  27  ASP27      -0.2456
     30  N        -59.3640  -19.9160  -13.1210 N.3    69  ASP69      -0.1225
     31  CA       -58.5200  -19.7940  -11.9340 C.3    69  ASP69       0.1805
     32  C        -57.0470  -19.6810  -12.3460 C.2    69  ASP69       0.2597
     33  O        -56.2980  -18.8280  -11.8460 O.2    69  ASP69      -0.2718
     34  CB       -58.7550  -20.9920  -11.0130 C.3    69  ASP69       0.1424
     35  CG       -57.8970  -20.9600   -9.7710 C.2    69  ASP69       0.3668
     36  OD1      -58.1000  -20.0650   -8.9210 O.co2  69  ASP69      -0.2456
     37  OD2      -57.0390  -21.8590   -9.6270 O.co2  69  ASP69      -0.2456
     38  N        -56.6380  -20.5230  -13.2870 N.am   70  GLU70      -0.1979
     39  CA       -55.2610  -20.4900  -13.7770 C.3    70  GLU70       0.1602
     40  C        -54.9860  -19.2430  -14.6260 C.2    70  GLU70       0.2287
     41  O        -53.9300  -18.6210  -14.5010 O.2    70  GLU70      -0.2864
     42  CB       -54.9390  -21.7610  -14.5720 C.3    70  GLU70       0.0415
     43  CG       -55.1440  -23.0680  -13.8010 C.3    70  GLU70       0.1163
     44  CD       -54.1910  -23.2500  -12.6200 C.2    70  GLU70       0.3649
     45  OE1      -54.5860  -23.9140  -11.6310 O.co2  70  GLU70      -0.2457
     46  OE2      -53.0490  -22.7490  -12.6820 O.co2  70  GLU70      -0.2457
     47  N        -54.0950  -16.1700  -12.6250 N.3    73  ALA73      -0.1245
     48  CA       -52.9930  -16.3220  -11.6790 C.3    73  ALA73       0.1562
     49  C        -51.8890  -15.2850  -11.8690 C.2    73  ALA73       0.2260
     50  O        -51.2700  -14.8670  -10.8880 O.2    73  ALA73      -0.2867
     51  CB       -52.4200  -17.7470  -11.7250 C.3    73  ALA73       0.0290
     52  N        -53.5920  -12.5510   -9.6530 N.3    76  THR76      -0.1203
     53  CA       -53.9860  -12.8500   -8.2810 C.3    76  THR76       0.1994
     54  C        -52.9010  -13.5640   -7.4840 C.2    76  THR76       0.2617
     55  O        -52.9500  -13.5880   -6.2560 O.2    76  THR76      -0.2717
     56  CB       -55.2570  -13.7200   -8.2450 C.3    76  THR76       0.1784
     57  OG1      -54.9760  -14.9840   -8.8560 O.3    76  THR76      -0.2211
     58  CG2      -56.4140  -13.0280   -8.9910 C.3    76  THR76       0.0376
     59  N        -51.9300  -14.1440   -8.1860 N.am   77  TYR77      -0.1975
     60  CA       -50.8650  -14.9150   -7.5590 C.3    77  TYR77       0.1639
     61  C        -49.5120  -14.2520   -7.7940 C.2    77  TYR77       0.2290
     62  O        -48.8620  -13.7970   -6.8480 O.2    77  TYR77      -0.2864
     63  CB       -50.8800  -16.3430   -8.1220 C.3    77  TYR77       0.0560
     64  CG       -49.7740  -17.2670   -7.6560 C.ar   77  TYR77      -0.0198
     65  CD1      -49.6390  -17.6100   -6.3150 C.ar   77  TYR77      -0.0009
     66  CD2      -48.9090  -17.8510   -8.5730 C.ar   77  TYR77      -0.0009
     67  CE1      -48.6370  -18.4860   -5.8940 C.ar   77  TYR77       0.0417
     68  CE2      -47.9100  -18.7270   -8.1670 C.ar   77  TYR77       0.0417
     69  CZ       -47.7840  -19.0380   -6.8290 C.ar   77  TYR77       0.1957
     70  OH       -46.8020  -19.9090   -6.4320 O.3    77  TYR77      -0.2866
     71  N        -49.4960  -10.3180   -7.1700 N.3    80  HIS80      -0.1226
     72  CA       -49.7480  -10.1510   -5.7440 C.3    80  HIS80       0.1752
     73  C        -48.5070  -10.4730   -4.9220 C.2    80  HIS80       0.2596
     74  O        -48.0670   -9.6650   -4.1080 O.2    80  HIS80      -0.2718
     75  CB       -50.9090  -11.0240   -5.2580 C.3    80  HIS80       0.0759
     76  CG       -51.1170  -10.9490   -3.7760 C.ar   80  HIS80       0.0818
     77  ND1      -51.9560  -10.0250   -3.1880 N.ar   80  HIS80      -0.2268
     78  CD2      -50.5570  -11.6470   -2.7590 C.ar   80  HIS80       0.1154
     79  CE1      -51.9200  -10.1740   -1.8760 C.ar   80  HIS80       0.1986
     80  NE2      -51.0770  -11.1530   -1.5890 N.ar   80  HIS80      -0.2212
     81  N        -47.9530  -11.6620   -5.1320 N.am   81  ASN81      -0.1974
     82  CA       -46.7810  -12.0860   -4.3750 C.3    81  ASN81       0.1688
     83  C        -45.5490  -11.2220   -4.6120 C.2    81  ASN81       0.2292
     84  O        -44.7700  -10.9740   -3.6880 O.2    81  ASN81      -0.2864
     85  CB       -46.4800  -13.5680   -4.6280 C.3    81  ASN81       0.1181
     86  CG       -47.4560  -14.4720   -3.9170 C.2    81  ASN81       0.2629
     87  OD1      -48.1560  -14.0320   -3.0020 O.2    81  ASN81      -0.2716
     88  ND2      -47.5140  -15.7400   -4.3250 N.am   81  ASN81      -0.0877
     89  N        -45.7420   -8.3890   -2.4110 N.3    84  VAL84      -0.1231
     90  CA       -45.5130   -8.7350   -1.0140 C.3    84  VAL84       0.1692
     91  C        -44.0210   -8.8370   -0.7080 C.2    84  VAL84       0.2591
     92  O        -43.5520   -8.3620    0.3320 O.2    84  VAL84      -0.2718
     93  CB       -46.2200  -10.0610   -0.6410 C.3    84  VAL84       0.0266
     94  CG1      -45.8310  -10.5090    0.7610 C.3    84  VAL84       0.0020
     95  CG2      -47.7350   -9.8990   -0.7470 C.3    84  VAL84       0.0020
     96  N        -43.2640   -9.4240   -1.6290 N.am   85  VAL85      -0.1980
     97  CA       -41.8740   -9.7510   -1.3220 C.3    85  VAL85       0.1595
     98  C        -40.8110   -8.8410   -1.9380 C.2    85  VAL85       0.2287
     99  O        -39.6430   -8.9170   -1.5490 O.2    85  VAL85      -0.2864
    100  CB       -41.5480  -11.2230   -1.6810 C.3    85  VAL85       0.0276
    101  CG1      -42.5800  -12.1630   -1.0510 C.3    85  VAL85       0.0022
    102  CG2      -41.4900  -11.4150   -3.1880 C.3    85  VAL85       0.0022
@<TRIPOS>BOND
     1    14    13    2
     2    11    12    1
     3    13    12    1
     4    12    15    1
     5    25    24    2
     6    40    41    2
     7    40    39    1
     8    42    43    1
     9    42    39    1
    10    22    23    1
    11    15    16    1
    12    18    16   ar
    13    18    20   ar
    14    24    23    1
    15    43    44    1
    16    39    38    1
    17    16    17   ar
    18    23    26    1
    19    26    27    1
    20    38    32   am
    21    20    21   ar
    22    30    31    1
    23    46    44   ar
    24    47    48    1
    25    44    45   ar
    26    17    19   ar
    27    32    31    1
    28    32    33    2
    29    27    29   ar
    30    27    28   ar
    31    21    19   ar
    32    31    34    1
    33    49    48    1
    34    49    50    2
    35    51    48    1
    36    34    35    1
    37     3     2    1
    38     3     4    2
    39     2     1    1
    40     2     5    1
    41    35    37   ar
    42    35    36   ar
    43    52    53    1
    44    58    56    1
    45    57    56    1
    46     5     6    1
    47     7     6   ar
    48     7     9   ar
    49    66    68   ar
    50    66    64   ar
    51    53    56    1
    52    53    54    1
    53    59    60    1
    54    59    54   am
    55    68    69   ar
    56     6     8   ar
    57    63    64    1
    58    63    60    1
    59     9    10   ar
    60    61    60    1
    61    61    62    2
    62    64    65   ar
    63    54    55    2
    64    71    72    1
    65     8    10   ar
    66    69    70    1
    67    69    67   ar
    68    65    67   ar
    69    72    75    1
    70    72    73    1
    71    75    76    1
    72    81    73   am
    73    81    82    1
    74    73    74    2
    75    85    82    1
    76    85    86    1
    77    83    82    1
    78    83    84    2
    79    88    86   am
    80    86    87    2
    81    76    77   ar
    82    76    78   ar
    83   102   100    1
    84    77    79   ar
    85    78    80   ar
    86    89    90    1
    87    98    99    2
    88    98    97    1
    89    79    80   ar
    90   100    97    1
    91   100   101    1
    92    96    97    1
    93    96    91   am
    94    90    91    1
    95    90    93    1
    96    95    93    1
    97    91    92    2
    98    93    94    1
