@<TRIPOS>MOLECULE
tmp/4mdkA00.pdb
 200 199 0 0 0
SMALL
GASTEIGER

@<TRIPOS>ATOM
      1  N         50.2350   33.5830  -17.2590 N.3    20  GLU20      -0.1231
      2  CA        49.1410   34.2430  -17.9650 C.3    20  GLU20       0.1699
      3  C         48.5570   35.4280  -17.2030 C.2    20  GLU20       0.2593
      4  O         48.0360   35.2730  -16.0930 O.2    20  GLU20      -0.2718
      5  CB        48.0280   33.2410  -18.2300 C.3    20  GLU20       0.0402
      6  CG        47.6990   33.0380  -19.6840 C.3    20  GLU20       0.1161
      7  CD        46.4360   32.2150  -19.8600 C.2    20  GLU20       0.3649
      8  OE1       46.3800   31.0970  -19.3010 O.co2  20  GLU20      -0.2457
      9  OE2       45.4940   32.6960  -20.5350 O.co2  20  GLU20      -0.2457
     10  N         48.5950   36.5970  -17.8380 N.am   21  GLY21      -0.1942
     11  CA        48.0800   37.8180  -17.2410 C.3    21  GLY21       0.2014
     12  C         49.1130   38.5490  -16.4030 C.2    21  GLY21       0.2638
     13  O         48.7700   39.3990  -15.5840 O.2    21  GLY21      -0.2714
     14  N         50.3820   38.2060  -16.5910 N.am   22  PHE22      -0.1973
     15  CA        51.4690   38.8900  -15.9050 C.3    22  PHE22       0.1639
     16  C         52.5490   39.1970  -16.9040 C.2    22  PHE22       0.2290
     17  O         52.9220   38.3450  -17.7060 O.2    22  PHE22      -0.2864
     18  CB        52.0880   38.0120  -14.8250 C.3    22  PHE22       0.0560
     19  CG        51.3170   37.9820  -13.5520 C.ar   22  PHE22      -0.0200
     20  CD1       50.0320   37.4680  -13.5160 C.ar   22  PHE22      -0.0042
     21  CD2       51.8860   38.4440  -12.3800 C.ar   22  PHE22      -0.0042
     22  CE1       49.3180   37.4300  -12.3400 C.ar   22  PHE22      -0.0003
     23  CE2       51.1790   38.4080  -11.1930 C.ar   22  PHE22      -0.0003
     24  CZ        49.8920   37.9000  -11.1740 C.ar   22  PHE22      -0.0000
     25  N         49.8890   43.5070  -14.7120 N.3    39  ILE39      -0.1231
     26  CA        48.9160   42.4970  -14.3160 C.3    39  ILE39       0.1692
     27  C         47.5170   42.7990  -14.8500 C.2    39  ILE39       0.2592
     28  O         46.9400   43.8510  -14.5520 O.2    39  ILE39      -0.2718
     29  CB        48.8560   42.4060  -12.7900 C.3    39  ILE39       0.0266
     30  CG1       50.1800   41.8730  -12.2410 C.3    39  ILE39       0.0019
     31  CG2       47.7030   41.5280  -12.3450 C.3    39  ILE39       0.0020
     32  CD1       50.3130   42.0210  -10.7400 C.3    39  ILE39       0.0001
     33  N         46.9670   41.8630  -15.6200 N.am   40  PHE40      -0.1962
     34  CA        45.6920   42.0800  -16.2970 C.3    40  PHE40       0.1771
     35  C         44.5850   41.2020  -15.7430 C.2    40  PHE40       0.2620
     36  O         44.6710   39.9820  -15.8150 O.2    40  PHE40      -0.2715
     37  CB        45.8430   41.8230  -17.7890 C.3    40  PHE40       0.0574
     38  CG        46.8640   42.6910  -18.4330 C.ar   40  PHE40      -0.0200
     39  CD1       48.2110   42.3570  -18.3770 C.ar   40  PHE40      -0.0042
     40  CD2       46.4870   43.8620  -19.0640 C.ar   40  PHE40      -0.0042
     41  CE1       49.1620   43.1660  -18.9570 C.ar   40  PHE40      -0.0003
     42  CE2       47.4280   44.6790  -19.6500 C.ar   40  PHE40      -0.0003
     43  CZ        48.7720   44.3290  -19.5960 C.ar   40  PHE40      -0.0000
     44  N         43.5470   41.8290  -15.1930 N.am   41  GLY41      -0.1940
     45  CA        42.4250   41.1000  -14.6310 C.3    41  GLY41       0.1998
     46  C         41.7430   40.2540  -15.6900 C.2    41  GLY41       0.2480
     47  O         41.5960   40.6910  -16.8330 O.2    41  GLY41      -0.2729
     48  N         41.3400   39.0290  -15.3240 N.am   42  PRO42      -0.2726
     49  CA        40.7780   38.0570  -16.2710 C.3    42  PRO42       0.1402
     50  C         39.3210   38.3320  -16.6070 C.2    42  PRO42       0.2269
     51  O         38.5860   38.8630  -15.7720 O.2    42  PRO42      -0.2865
     52  CB        40.8670   36.7220  -15.5160 C.3    42  PRO42       0.0296
     53  CG        41.6070   37.0070  -14.2490 C.3    42  PRO42       0.0237
     54  CD        41.4390   38.4680  -13.9710 C.3    42  PRO42       0.0939
     55  N         35.3110   37.7950  -17.1900 N.3    44  ASN44      -0.1225
     56  CA        34.2860   37.1860  -16.3400 C.3    44  ASN44       0.1785
     57  C         34.6180   37.1210  -14.8500 C.2    44  ASN44       0.2598
     58  O         34.2400   36.1830  -14.1480 O.2    44  ASN44      -0.2718
     59  CB        33.8670   35.8220  -16.8750 C.3    44  ASN44       0.1169
     60  CG        32.9810   35.9380  -18.0830 C.2    44  ASN44       0.2627
     61  OD1       32.0090   36.6960  -18.0800 O.2    44  ASN44      -0.2716
     62  ND2       33.3290   35.2190  -19.1440 N.am   44  ASN44      -0.0877
     63  N         35.3310   38.1390  -14.3860 N.am   45  THR45      -0.1939
     64  CA        35.5890   38.3540  -12.9750 C.3    45  THR45       0.2028
     65  C         35.3210   39.8270  -12.7790 C.2    45  THR45       0.2642
     66  O         35.2180   40.5670  -13.7510 O.2    45  THR45      -0.2714
     67  CB        37.0590   38.1050  -12.6350 C.3    45  THR45       0.1808
     68  OG1       37.8650   39.0970  -13.2810 O.3    45  THR45      -0.2208
     69  CG2       37.4900   36.7310  -13.1070 C.3    45  THR45       0.0379
     70  N         35.2270   40.2770  -11.5390 N.am   46  TYR46      -0.1959
     71  CA        35.0430   41.7030  -11.3190 C.3    46  TYR46       0.1771
     72  C         36.2820   42.5330  -11.6530 C.2    46  TYR46       0.2619
     73  O         36.1930   43.7560  -11.7400 O.2    46  TYR46      -0.2715
     74  CB        34.5800   41.9850   -9.9000 C.3    46  TYR46       0.0574
     75  CG        33.2010   41.4610   -9.6310 C.ar   46  TYR46      -0.0198
     76  CD1       32.0780   42.1460  -10.0940 C.ar   46  TYR46      -0.0009
     77  CD2       33.0140   40.2730   -8.9320 C.ar   46  TYR46      -0.0009
     78  CE1       30.8130   41.6740   -9.8540 C.ar   46  TYR46       0.0417
     79  CE2       31.7500   39.7840   -8.6900 C.ar   46  TYR46       0.0417
     80  CZ        30.6520   40.4900   -9.1490 C.ar   46  TYR46       0.1957
     81  OH        29.3930   39.9990   -8.8960 O.3    46  TYR46      -0.2866
     82  N         37.4260   41.8710  -11.8520 N.am   47  TYR47      -0.1974
     83  CA        38.6680   42.5540  -12.2230 C.3    47  TYR47       0.1639
     84  C         38.7800   42.7020  -13.7430 C.2    47  TYR47       0.2290
     85  O         39.8070   43.1370  -14.2700 O.2    47  TYR47      -0.2864
     86  CB        39.9000   41.8100  -11.6980 C.3    47  TYR47       0.0560
     87  CG        40.1460   41.8950  -10.2020 C.ar   47  TYR47      -0.0198
     88  CD1       40.9090   42.9260   -9.6530 C.ar   47  TYR47      -0.0009
     89  CD2       39.6460   40.9220   -9.3450 C.ar   47  TYR47      -0.0009
     90  CE1       41.1430   42.9910   -8.2950 C.ar   47  TYR47       0.0417
     91  CE2       39.8770   40.9760   -7.9870 C.ar   47  TYR47       0.0417
     92  CZ        40.6220   42.0080   -7.4660 C.ar   47  TYR47       0.1957
     93  OH        40.8410   42.0420   -6.1090 O.3    47  TYR47      -0.2866
     94  N         46.8970   46.4210  -13.7970 N.3    52  PHE52      -0.1241
     95  CA        47.4830   46.6860  -12.4910 C.3    52  PHE52       0.1605
     96  C         49.0050   46.6340  -12.4910 C.2    52  PHE52       0.2264
     97  O         49.6200   45.9070  -13.2780 O.2    52  PHE52      -0.2867
     98  CB        46.9410   45.7120  -11.4550 C.3    52  PHE52       0.0534
     99  CG        45.4480   45.6380  -11.4190 C.ar   52  PHE52      -0.0203
    100  CD1       44.7180   46.5300  -10.6520 C.ar   52  PHE52      -0.0042
    101  CD2       44.7730   44.6660  -12.1470 C.ar   52  PHE52      -0.0042
    102  CE1       43.3410   46.4580  -10.6140 C.ar   52  PHE52      -0.0003
    103  CE2       43.3940   44.5910  -12.1110 C.ar   52  PHE52      -0.0003
    104  CZ        42.6790   45.4830  -11.3400 C.ar   52  PHE52      -0.0000
    105  N         52.3190   46.4170   -4.5820 N.3    71  PHE71      -0.1241
    106  CA        51.4920   47.0050   -5.6210 C.3    71  PHE71       0.1605
    107  C         51.7000   48.5110   -5.6940 C.2    71  PHE71       0.2264
    108  O         51.6650   49.2010   -4.6790 O.2    71  PHE71      -0.2867
    109  CB        50.0190   46.7290   -5.3420 C.3    71  PHE71       0.0534
    110  CG        49.5100   45.4670   -5.9590 C.ar   71  PHE71      -0.0203
    111  CD1       49.1380   45.4390   -7.2920 C.ar   71  PHE71      -0.0042
    112  CD2       49.3840   44.3130   -5.2010 C.ar   71  PHE71      -0.0042
    113  CE1       48.6540   44.2830   -7.8660 C.ar   71  PHE71      -0.0003
    114  CE2       48.9010   43.1430   -5.7670 C.ar   71  PHE71      -0.0003
    115  CZ        48.5370   43.1290   -7.1030 C.ar   71  PHE71      -0.0000
    116  N         44.9750   48.7950   -4.0720 N.3    75  MET75      -0.1245
    117  CA        44.1580   47.5900   -4.0980 C.3    75  MET75       0.1570
    118  C         43.4530   47.3160   -2.7830 C.2    75  MET75       0.2261
    119  O         44.0530   47.3760   -1.7090 O.2    75  MET75      -0.2867
    120  CB        45.0040   46.3820   -4.5040 C.3    75  MET75       0.0387
    121  CG        45.8540   46.6250   -5.7470 C.3    75  MET75       0.0595
    122  SD        45.2320   45.8530   -7.2530 S.3    75  MET75      -0.1393
    123  CE        43.5370   46.4480   -7.2810 C.3    75  MET75       0.0692
    124  N         48.1790   34.7990   -7.6320 N.3   112  ILE112     -0.1245
    125  CA        46.9480   34.5480   -8.3660 C.3   112  ILE112      0.1561
    126  C         45.9840   33.7950   -7.4670 C.2   112  ILE112      0.2260
    127  O         44.8110   34.1470   -7.3680 O.2   112  ILE112     -0.2867
    128  CB        47.1780   33.7260   -9.6300 C.3   112  ILE112      0.0252
    129  CG1       48.0660   34.4850  -10.6100 C.3   112  ILE112      0.0019
    130  CG2       45.8480   33.3980  -10.2860 C.3   112  ILE112      0.0019
    131  CD1       48.3210   33.7310  -11.9020 C.3   112  ILE112      0.0001
    132  N         44.6540   36.2050   -4.9560 N.3   115  LEU115     -0.1231
    133  CA        43.6750   37.0740   -5.6040 C.3   115  LEU115      0.1693
    134  C         42.3150   36.3720   -5.7390 C.2   115  LEU115      0.2592
    135  O         41.2630   36.9910   -5.5610 O.2   115  LEU115     -0.2718
    136  CB        44.1800   37.5110   -6.9850 C.3   115  LEU115      0.0284
    137  CG        44.8070   38.9010   -7.1830 C.3   115  LEU115      0.0019
    138  CD1       45.3550   39.4840   -5.8850 C.3   115  LEU115      0.0001
    139  CD2       45.9110   38.8590   -8.2400 C.3   115  LEU115      0.0001
    140  N         42.3450   35.0780   -6.0560 N.am  116  ASN116     -0.1974
    141  CA        41.1290   34.2760   -6.2070 C.3   116  ASN116      0.1688
    142  C         40.4210   33.9210   -4.8940 C.2   116  ASN116      0.2292
    143  O         39.1920   33.8570   -4.8450 O.2   116  ASN116     -0.2864
    144  CB        41.4400   32.9670   -6.9490 C.3   116  ASN116      0.1181
    145  CG        41.4620   33.1290   -8.4630 C.2   116  ASN116      0.2629
    146  OD1       40.5420   32.6820   -9.1610 O.2   116  ASN116     -0.2716
    147  ND2       42.5180   33.7570   -8.9800 N.am  116  ASN116     -0.0877
    148  N         34.6390   41.0460    2.6670 N.3   132  TYR132     -0.1241
    149  CA        34.6940   39.9050    1.7670 C.3   132  TYR132      0.1605
    150  C         33.8650   38.7600    2.3180 C.2   132  TYR132      0.2264
    151  O         33.1170   38.1080    1.5870 O.2   132  TYR132     -0.2867
    152  CB        36.1250   39.4250    1.5600 C.3   132  TYR132      0.0534
    153  CG        36.2180   38.3070    0.5560 C.ar  132  TYR132     -0.0201
    154  CD1       36.2180   38.5830   -0.8050 C.ar  132  TYR132     -0.0009
    155  CD2       36.2900   36.9750    0.9640 C.ar  132  TYR132     -0.0009
    156  CE1       36.2970   37.5740   -1.7350 C.ar  132  TYR132      0.0417
    157  CE2       36.3700   35.9510    0.0380 C.ar  132  TYR132      0.0417
    158  CZ        36.3730   36.2630   -1.3120 C.ar  132  TYR132      0.1957
    159  OH        36.4510   35.2770   -2.2590 O.3   132  TYR132     -0.2866
    160  N         30.2830   39.5370    1.7700 N.3   135  TRP135     -0.1241
    161  CA        29.9460   39.3100    0.3750 C.3   135  TRP135      0.1605
    162  C         29.7510   37.8240    0.1000 C.2   135  TRP135      0.2264
    163  O         28.7940   37.4230   -0.5650 O.2   135  TRP135     -0.2867
    164  CB        31.0420   39.8540   -0.5320 C.3   135  TRP135      0.0550
    165  CG        30.8540   39.4700   -1.9560 C.ar  135  TRP135      0.0003
    166  CD1       29.9320   39.9750   -2.8280 C.ar  135  TRP135      0.0946
    167  CD2       31.6050   38.4920   -2.6850 C.ar  135  TRP135      0.0152
    168  NE1       30.0620   39.3740   -4.0550 N.ar  135  TRP135     -0.2442
    169  CE2       31.0780   38.4610   -3.9960 C.ar  135  TRP135      0.0810
    170  CE3       32.6690   37.6430   -2.3560 C.ar  135  TRP135      0.0012
    171  CZ2       31.5840   37.6090   -4.9820 C.ar  135  TRP135      0.0191
    172  CZ3       33.1690   36.8010   -3.3340 C.ar  135  TRP135      0.0001
    173  CH2       32.6260   36.7900   -4.6350 C.ar  135  TRP135      0.0015
    174  N         31.4250   45.0200   -1.5090 N.3   145  TYR145     -0.1227
    175  CA        32.7940   44.6220   -1.8640 C.3   145  TYR145      0.1736
    176  C         33.0570   44.7590   -3.3580 C.2   145  TYR145      0.2596
    177  O         34.1220   45.2170   -3.7810 O.2   145  TYR145     -0.2718
    178  CB        33.1150   43.1910   -1.4100 C.3   145  TYR145      0.0548
    179  CG        34.5900   42.8250   -1.4780 C.ar  145  TYR145     -0.0200
    180  CD1       35.4370   43.0780   -0.4040 C.ar  145  TYR145     -0.0009
    181  CD2       35.1300   42.2130   -2.6080 C.ar  145  TYR145     -0.0009
    182  CE1       36.7790   42.7440   -0.4520 C.ar  145  TYR145      0.0417
    183  CE2       36.4710   41.8770   -2.6670 C.ar  145  TYR145      0.0417
    184  CZ        37.2920   42.1420   -1.5850 C.ar  145  TYR145      0.1957
    185  OH        38.6290   41.8000   -1.6370 O.3   145  TYR145     -0.2866
    186  N         32.0710   44.3650   -4.1500 N.am  146  THR146     -0.1953
    187  CA        32.2450   44.2670   -5.5860 C.3   146  THR146      0.1897
    188  C         32.2380   45.6300   -6.2570 C.2   146  THR146      0.2313
    189  O         32.9200   45.8370   -7.2660 O.2   146  THR146     -0.2863
    190  CB        31.1820   43.3550   -6.1950 C.3   146  THR146      0.1794
    191  OG1       30.0150   43.3770   -5.3680 O.3   146  THR146     -0.2208
    192  CG2       31.6920   41.9610   -6.2080 C.3   146  THR146      0.0378
    193  N         35.6530   47.0540   -6.0790 N.3   149  ILE149     -0.1245
    194  CA        36.5170   46.3870   -7.0440 C.3   149  ILE149      0.1561
    195  C         36.3040   46.9510   -8.4530 C.2   149  ILE149      0.2260
    196  O         37.2740   47.2540   -9.1520 O.2   149  ILE149     -0.2867
    197  CB        36.3190   44.8600   -7.0590 C.3   149  ILE149      0.0252
    198  CG1       36.5190   44.2790   -5.6620 C.3   149  ILE149      0.0019
    199  CG2       37.2990   44.2120   -8.0280 C.3   149  ILE149      0.0019
    200  CD1       37.9710   44.2720   -5.2110 C.3   149  ILE149      0.0001
@<TRIPOS>BOND
     1     9     7   ar
     2     7     6    1
     3     7     8   ar
     4     6     5    1
     5    42    43   ar
     6    42    40   ar
     7    43    41   ar
     8    62    60   am
     9    40    38   ar
    10    41    39   ar
    11    38    39   ar
    12    38    37    1
    13     5     2    1
    14    60    61    2
    15    60    59    1
    16     2     1    1
    17     2     3    1
    18    10    11    1
    19    10     3   am
    20    37    34    1
    21    17    16    2
    22    11    12    1
    23     3     4    2
    24    55    56    1
    25    16    15    1
    26    59    56    1
    27    47    46    2
    28    50    49    1
    29    50    51    2
    30    14    12   am
    31    14    15    1
    32    12    13    2
    33    56    57    1
    34    34    35    1
    35    34    33    1
    36    49    52    1
    37    49    48    1
    38    15    18    1
    39    36    35    2
    40    35    44   am
    41    46    48   am
    42    46    45    1
    43    33    27   am
    44    52    53    1
    45    48    54    1
    46    44    45    1
    47    57    63   am
    48    57    58    2
    49    27    28    2
    50    27    26    1
    51    18    19    1
    52    25    26    1
    53    63    64    1
    54    26    29    1
    55    85    84    2
    56    53    54    1
    57    94    95    1
    58    66    65    2
    59    84    83    1
    60    19    20   ar
    61    19    21   ar
    62    20    22   ar
    63    68    67    1
    64    97    96    2
    65    69    67    1
    66    64    65    1
    67    64    67    1
    68    29    31    1
    69    29    30    1
    70    65    70   am
    71    96    95    1
    72    95    98    1
    73    21    23   ar
    74    22    24   ar
    75    30    32    1
    76    83    82    1
    77    83    86    1
    78   101   103   ar
    79   101    99   ar
    80   103   104   ar
    81   131   129    1
    82    82    72   am
    83    73    72    2
    84    86    87    1
    85    72    71    1
    86    70    71    1
    87    98    99    1
    88    99   100   ar
    89   104   102   ar
    90    71    74    1
    91    23    24   ar
    92   100   102   ar
    93   129   128    1
    94   130   128    1
    95    87    88   ar
    96    87    89   ar
    97    76    78   ar
    98    76    75   ar
    99    74    75    1
   100    78    80   ar
   101    88    90   ar
   102    75    77   ar
   103   128   125    1
   104    89    91   ar
   105   146   145    2
   106   196   195    2
   107    80    81    1
   108    80    79   ar
   109   147   145   am
   110    77    79   ar
   111   145   144    1
   112   195   194    1
   113   125   124    1
   114   125   126    1
   115    90    92   ar
   116   139   137    1
   117   199   197    1
   118    91    92   ar
   119   113   111   ar
   120   113   115   ar
   121   126   127    2
   122    92    93    1
   123   111   110   ar
   124   123   122    1
   125   189   188    2
   126   122   121    1
   127   137   136    1
   128   137   138    1
   129   115   114   ar
   130   197   194    1
   131   197   198    1
   132   194   193    1
   133   136   133    1
   134   144   141    1
   135   188   187    1
   136   192   190    1
   137   141   140    1
   138   141   142    1
   139   190   187    1
   140   190   191    1
   141   140   134   am
   142   110   109    1
   143   110   112   ar
   144   114   112   ar
   145   121   120    1
   146   134   133    1
   147   134   135    2
   148   107   106    1
   149   107   108    2
   150   198   200    1
   151   106   109    1
   152   106   105    1
   153   133   132    1
   154   187   186    1
   155   171   173   ar
   156   171   169   ar
   157   142   143    2
   158   173   172   ar
   159   120   117    1
   160   186   176   am
   161   117   116    1
   162   117   118    1
   163   168   169   ar
   164   168   166   ar
   165   169   167   ar
   166   177   176    2
   167   176   175    1
   168   172   170   ar
   169   166   165   ar
   170   118   119    2
   171   167   170   ar
   172   167   165   ar
   173   183   181   ar
   174   183   184   ar
   175   181   179   ar
   176   159   158    1
   177   165   164    1
   178   175   174    1
   179   175   178    1
   180   156   158   ar
   181   156   154   ar
   182   185   184    1
   183   184   182   ar
   184   179   178    1
   185   179   180   ar
   186   158   157   ar
   187   154   153   ar
   188   163   162    2
   189   164   161    1
   190   182   180   ar
   191   157   155   ar
   192   162   161    1
   193   161   160    1
   194   153   155   ar
   195   153   152    1
   196   152   149    1
   197   151   150    2
   198   149   150    1
   199   149   148    1
