@<TRIPOS>MOLECULE
tmp/4mdmA00.pdb
 124 123 0 0 0
SMALL
GASTEIGER

@<TRIPOS>ATOM
      1  N         -0.4410   -2.3760    6.2780 N.3    62  HIS62      -0.1241
      2  CA        -0.5620   -3.2210    7.4890 C.3    62  HIS62       0.1621
      3  C         -1.9580   -3.7310    7.6730 C.2    62  HIS62       0.2264
      4  O         -2.1330   -4.8650    8.1700 O.2    62  HIS62      -0.2867
      5  CB        -0.0060   -2.6060    8.7740 C.3    62  HIS62       0.0745
      6  CG        -0.5310   -1.2550    9.1100 C.ar   62  HIS62       0.0817
      7  ND1       -1.5080   -1.0540   10.0460 N.ar   62  HIS62      -0.2268
      8  CD2       -0.1290    0.0080    8.6920 C.ar   62  HIS62       0.1154
      9  CE1       -1.7690    0.2510   10.1400 C.ar   62  HIS62       0.1986
     10  NE2       -0.9240    0.9060    9.3170 N.ar   62  HIS62      -0.2212
     11  N        -12.4720    6.1490   11.2020 N.3    90  GLN90      -0.1245
     12  CA       -12.2280    5.0250   10.3190 C.3    90  GLN90       0.1566
     13  C        -12.4350    3.7470   11.1000 C.2    90  GLN90       0.2260
     14  O        -12.4600    3.7660   12.3470 O.2    90  GLN90      -0.2867
     15  CB       -10.7930    5.0030    9.7460 C.3    90  GLN90       0.0367
     16  CG        -9.7150    5.0880   10.8290 C.3    90  GLN90       0.0905
     17  CD        -8.9260    3.8160   11.0310 C.2    90  GLN90       0.2608
     18  OE1       -9.4680    2.7660   11.3020 O.2    90  GLN90      -0.2717
     19  NE2       -7.6190    3.9390   10.8940 N.am   90  GLN90      -0.0878
     20  N        -10.9620   -0.5160   10.8950 N.3    92  HIS92      -0.1241
     21  CA       -10.0590   -1.4770   10.3070 C.3    92  HIS92       0.1621
     22  C        -10.1410   -2.7300   11.1460 C.2    92  HIS92       0.2264
     23  O        -10.8190   -2.7450   12.1810 O.2    92  HIS92      -0.2867
     24  CB        -8.6320   -0.9650   10.2270 C.3    92  HIS92       0.0745
     25  CG        -8.0490   -0.7060   11.5970 C.ar   92  HIS92       0.0817
     26  ND1       -8.1950    0.4970   12.2260 N.ar   92  HIS92      -0.2268
     27  CD2       -7.4600   -1.5580   12.4950 C.ar   92  HIS92       0.1154
     28  CE1       -7.6870    0.3760   13.4620 C.ar   92  HIS92       0.1986
     29  NE2       -7.2410   -0.8820   13.6360 N.ar   92  HIS92      -0.2212
     30  N         -7.8510   -6.5200   12.4450 N.3    94  HIS94      -0.1241
     31  CA        -6.6820   -7.3540   12.6430 C.3    94  HIS94       0.1621
     32  C         -7.1280   -8.7860   12.5000 C.2    94  HIS94       0.2264
     33  O         -8.2030   -9.1560   13.0280 O.2    94  HIS94      -0.2867
     34  CB        -6.0940   -7.1330   14.0390 C.3    94  HIS94       0.0745
     35  CG        -5.8100   -5.7010   14.3070 C.ar   94  HIS94       0.0817
     36  ND1       -4.5520   -5.1880   14.2060 N.ar   94  HIS94      -0.2268
     37  CD2       -6.6650   -4.6560   14.6150 C.ar   94  HIS94       0.1154
     38  CE1       -4.5950   -3.8450   14.5450 C.ar   94  HIS94       0.1986
     39  NE2       -5.9150   -3.5150   14.7640 N.ar   94  HIS94      -0.2212
     40  N        -11.7790   -2.6740   14.8370 N.3   117  HIS117     -0.1241
     41  CA       -11.5170   -1.4310   15.5530 C.3   117  HIS117      0.1621
     42  C        -12.1940   -0.2880   14.8870 C.2   117  HIS117      0.2264
     43  O        -11.8580    0.0360   13.7600 O.2   117  HIS117     -0.2867
     44  CB        -9.9920   -1.1770   15.6130 C.3   117  HIS117      0.0745
     45  CG        -9.3260   -2.1530   16.5260 C.ar  117  HIS117      0.0817
     46  ND1       -7.9760   -2.3470   16.5450 N.ar  117  HIS117     -0.2268
     47  CD2       -9.8760   -2.9690   17.5160 C.ar  117  HIS117      0.1154
     48  CE1       -7.7170   -3.3540   17.4650 C.ar  117  HIS117      0.1986
     49  NE2       -8.8500   -3.7040   18.0710 N.ar  117  HIS117     -0.2212
     50  N        -12.5340    3.4970   15.1810 N.3   119  VAL119     -0.1245
     51  CA       -11.6780    4.4960   15.8210 C.3   119  VAL119      0.1561
     52  C        -12.4210    5.8340   15.8270 C.2   119  VAL119      0.2260
     53  O        -12.8490    6.3000   14.7830 O.2   119  VAL119     -0.2867
     54  CB       -10.3400    4.6210   15.0970 C.3   119  VAL119      0.0252
     55  CG1       -9.4560    5.6780   15.7540 C.3   119  VAL119      0.0019
     56  CG2       -9.6450    3.2460   14.9570 C.3   119  VAL119      0.0019
     57  N         -8.1200   14.8580   14.7820 N.3   128  PHE128     -0.1241
     58  CA        -7.5200   13.5800   15.1950 C.3   128  PHE128      0.1605
     59  C         -6.0840   13.7360   15.6130 C.2   128  PHE128      0.2264
     60  O         -5.6390   13.1690   16.6140 O.2   128  PHE128     -0.2867
     61  CB        -7.5920   12.6370   14.0020 C.3   128  PHE128      0.0534
     62  CG        -7.0340   11.2880   14.2370 C.ar  128  PHE128     -0.0203
     63  CD1       -7.8030   10.3470   14.8680 C.ar  128  PHE128     -0.0042
     64  CD2       -5.7590   10.9720   13.8650 C.ar  128  PHE128     -0.0042
     65  CE1       -7.3410    9.0720   15.0880 C.ar  128  PHE128     -0.0003
     66  CE2       -5.2920    9.6960   14.0770 C.ar  128  PHE128     -0.0003
     67  CZ        -6.0720    8.7480   14.6950 C.ar  128  PHE128     -0.0000
     68  N        -11.7030    3.6590   21.0810 N.3   140  VAL140     -0.1245
     69  CA       -11.7280    2.6410   20.0720 C.3   140  VAL140      0.1561
     70  C        -12.7030    1.5740   20.5370 C.2   140  VAL140      0.2260
     71  O        -12.5930    1.0520   21.6470 O.2   140  VAL140     -0.2867
     72  CB       -10.3620    2.0280   19.6890 C.3   140  VAL140      0.0252
     73  CG1      -10.5370    0.9710   18.5710 C.3   140  VAL140      0.0019
     74  CG2       -9.3810    3.1280   19.2690 C.3   140  VAL140      0.0019
     75  N         -2.8840    3.0380   21.2500 N.3   195  LEU195     -0.1231
     76  CA        -2.9160    2.5200   19.9030 C.3   195  LEU195      0.1693
     77  C         -2.1920    1.1690   19.9610 C.2   195  LEU195      0.2593
     78  O         -1.1400    1.0480   20.6350 O.2   195  LEU195     -0.2718
     79  CB        -2.2030    3.4510   18.9400 C.3   195  LEU195      0.0284
     80  CG        -2.6830    4.8730   18.8940 C.3   195  LEU195      0.0019
     81  CD1       -1.8150    5.6190   17.8790 C.3   195  LEU195      0.0001
     82  CD2       -4.1320    5.0690   18.5630 C.3   195  LEU195      0.0001
     83  N         -2.6280    0.2280   19.1480 N.am  196  THR196     -0.1939
     84  CA        -1.9340   -1.0880   19.1120 C.3   196  THR196      0.2028
     85  C         -0.9100   -1.2070   17.9700 C.2   196  THR196      0.2643
     86  O         -0.2630   -2.2340   17.8250 O.2   196  THR196     -0.2714
     87  CB        -2.9140   -2.2370   18.9940 C.3   196  THR196      0.1808
     88  OG1       -3.4720   -2.2530   17.6740 O.3   196  THR196     -0.2208
     89  CG2       -3.9600   -2.2030   20.0650 C.3   196  THR196      0.0379
     90  N         -0.7870   -0.1410   17.1740 N.am  197  THR197     -0.1937
     91  CA         0.2350    0.0060   16.1130 C.3   197  THR197      0.2013
     92  C          1.0650    1.2380   16.4120 C.2   197  THR197      0.2484
     93  O          0.5890    2.1820   17.0540 O.2   197  THR197     -0.2729
     94  CB        -0.4130    0.2040   14.7260 C.3   197  THR197      0.1807
     95  OG1       -1.2540    1.3580   14.7570 O.3   197  THR197     -0.2208
     96  CG2       -1.2450   -1.0290   14.3220 C.3   197  THR197      0.0379
     97  N          2.3450    1.2310   15.9840 N.am  198  PRO198     -0.2715
     98  CA         3.0620    2.4560   16.0280 C.3   198  PRO198      0.1521
     99  C          2.1770    3.5900   15.5260 C.2   198  PRO198      0.2440
    100  O          1.5010    3.4460   14.4840 O.2   198  PRO198     -0.2731
    101  CB         4.2810    2.1680   15.1450 C.3   198  PRO198      0.0310
    102  CG         4.5130    0.6960   15.3300 C.3   198  PRO198      0.0237
    103  CD         3.1220    0.1320   15.4130 C.3   198  PRO198      0.0939
    104  N          2.2150    4.7420   16.1970 N.am  199  PRO199     -0.2727
    105  CA         3.1650    5.1920   17.1930 C.3   199  PRO199      0.1402
    106  C          2.8570    4.7630   18.6520 C.2   199  PRO199      0.2269
    107  O          3.5000    5.1960   19.5930 O.2   199  PRO199     -0.2865
    108  CB         3.0900    6.7230   17.0550 C.3   199  PRO199      0.0296
    109  CG         1.7440    6.9960   16.5130 C.3   199  PRO199      0.0237
    110  CD         1.3990    5.8650   15.6500 C.3   199  PRO199      0.0939
    111  N        -10.3640    2.2280   25.6220 N.3   206  TRP206     -0.1241
    112  CA       -10.7690    1.0230   24.9210 C.3   206  TRP206      0.1605
    113  C        -12.1510    0.5690   25.4160 C.2   206  TRP206      0.2264
    114  O        -12.3980    0.5270   26.6260 O.2   206  TRP206     -0.2867
    115  CB        -9.7780   -0.1330   25.1710 C.3   206  TRP206      0.0550
    116  CG        -8.6420   -0.0270   24.1670 C.ar  206  TRP206      0.0003
    117  CD1       -7.3840    0.5510   24.3260 C.ar  206  TRP206      0.0946
    118  CD2       -8.7130   -0.4150   22.7760 C.ar  206  TRP206      0.0152
    119  NE1       -6.7130    0.5330   23.1630 N.ar  206  TRP206     -0.2442
    120  CE2       -7.4310   -0.0790   22.1940 C.ar  206  TRP206      0.0810
    121  CE3       -9.6900   -1.0400   21.9910 C.ar  206  TRP206      0.0012
    122  CZ2       -7.1540   -0.3020   20.8550 C.ar  206  TRP206      0.0191
    123  CZ3       -9.3960   -1.2940   20.6680 C.ar  206  TRP206      0.0001
    124  CH2       -8.1420   -0.9770   20.1210 C.ar  206  TRP206      0.0015
@<TRIPOS>BOND
     1     1     2    1
     2     2     3    1
     3     2     5    1
     4     3     4    2
     5     8     6   ar
     6     8    10   ar
     7     5     6    1
     8     6     7   ar
     9    10     9   ar
    10    15    12    1
    11    15    16    1
    12     7     9   ar
    13    24    21    1
    14    24    25    1
    15    21    20    1
    16    21    22    1
    17    12    13    1
    18    12    11    1
    19    16    17    1
    20    19    17   am
    21    17    18    2
    22    13    14    2
    23    22    23    2
    24    25    26   ar
    25    25    27   ar
    26    26    28   ar
    27    30    31    1
    28    27    29   ar
    29    32    31    1
    30    32    33    2
    31    31    34    1
    32    28    29   ar
    33    43    42    2
    34    64    66   ar
    35    64    62   ar
    36    61    62    1
    37    61    58    1
    38    34    35    1
    39    66    67   ar
    40    36    35   ar
    41    36    38   ar
    42    62    63   ar
    43    35    37   ar
    44    96    94    1
    45   100    99    2
    46    38    39   ar
    47    37    39   ar
    48    67    65   ar
    49    94    95    1
    50    94    91    1
    51    57    58    1
    52    53    52    2
    53    40    41    1
    54    63    65   ar
    55    42    41    1
    56    56    54    1
    57    54    55    1
    58    54    51    1
    59   101   102    1
    60   101    98    1
    61    50    51    1
    62    58    59    1
    63   102   103    1
    64   103    97    1
    65    99    98    1
    66    99   104   am
    67    41    44    1
    68    44    45    1
    69    59    60    2
    70   110   104    1
    71   110   109    1
    72    51    52    1
    73    97    98    1
    74    97    92   am
    75    91    92    1
    76    91    90    1
    77   104   105    1
    78    92    93    2
    79   109   108    1
    80    45    46   ar
    81    45    47   ar
    82    46    48   ar
    83   108   105    1
    84    90    85   am
    85   105   106    1
    86    48    49   ar
    87    47    49   ar
    88    88    87    1
    89    86    85    2
    90    81    80    1
    91    85    84    1
    92    82    80    1
    93    73    72    1
    94   106   107    2
    95    80    79    1
    96    79    76    1
    97    87    84    1
    98    87    89    1
    99    84    83    1
   100    83    77   am
   101    74    72    1
   102    72    69    1
   103    76    77    1
   104    76    75    1
   105    77    78    2
   106    69    70    1
   107    69    68    1
   108   124   123   ar
   109   124   122   ar
   110    70    71    2
   111   123   121   ar
   112   122   120   ar
   113   121   118   ar
   114   120   118   ar
   115   120   119   ar
   116   118   116   ar
   117   119   117   ar
   118   116   117   ar
   119   116   115    1
   120   112   115    1
   121   112   113    1
   122   112   111    1
   123   113   114    2
