@<TRIPOS>MOLECULE
tmp/4mdnA00.pdb
 191 182 0 0 0
SMALL
GASTEIGER

@<TRIPOS>ATOM
      1  N        -24.4790  -16.1070   -2.2980 N.3     1  MET1       -0.1245
      2  CA       -24.0930  -14.7000   -2.1970 C.3     1  MET1        0.1570
      3  C        -24.9180  -13.8730   -3.1750 C.2     1  MET1        0.2261
      4  O        -25.4180  -14.4130   -4.1630 O.2     1  MET1       -0.2867
      5  CB       -22.5990  -14.5280   -2.4580 C.3     1  MET1        0.0387
      6  CG       -22.1110  -15.1820   -3.7420 C.3     1  MET1        0.0595
      7  SD       -20.3200  -15.3910   -3.7410 S.3     1  MET1       -0.1393
      8  CE       -19.7950  -13.9340   -2.8380 C.3     1  MET1        0.0692
      9  N        -24.3450  -11.3960   -5.4080 N.3     3  ILE3       -0.1231
     10  CA       -23.8400  -11.2270   -6.7690 C.3     3  ILE3        0.1678
     11  C        -22.9130  -12.3990   -7.0380 C.2     3  ILE3        0.2434
     12  O        -22.1460  -12.7770   -6.1560 O.2     3  ILE3       -0.2733
     13  CB       -23.0590   -9.9130   -6.8560 C.3     3  ILE3        0.0265
     14  CG1      -23.9770   -8.7420   -6.4850 C.3     3  ILE3        0.0019
     15  CG2      -22.3940   -9.7400   -8.2300 C.3     3  ILE3        0.0020
     16  CD1      -23.3370   -7.3870   -6.6770 C.3     3  ILE3        0.0001
     17  N        -22.9900  -13.0080   -8.2380 N.am    4  PRO4       -0.2729
     18  CA       -22.2010  -14.2300   -8.4140 C.3     4  PRO4        0.1401
     19  C        -20.7180  -13.9460   -8.3010 C.2     4  PRO4        0.2269
     20  O        -20.2640  -12.8500   -8.6380 O.2     4  PRO4       -0.2865
     21  CB       -22.5910  -14.7300   -9.8240 C.3     4  PRO4        0.0296
     22  CG       -23.2430  -13.5670  -10.4900 C.3     4  PRO4        0.0237
     23  CD       -23.8200  -12.6890   -9.4090 C.3     4  PRO4        0.0939
     24  N        -18.2430  -12.3840  -10.9050 N.3     7  GLU7       -0.1231
     25  CA       -18.1860  -10.9360  -11.0950 C.3     7  GLU7        0.1699
     26  C        -16.9850  -10.2830  -10.4300 C.2     7  GLU7        0.2592
     27  O        -16.5610   -9.2070  -10.8350 O.2     7  GLU7       -0.2718
     28  CB       -19.4520  -10.2470  -10.5760 C.3     7  GLU7        0.0402
     29  CG       -20.6550  -10.4450  -11.4590 C.3     7  GLU7        0.1161
     30  CD       -20.5460   -9.7520  -12.8150 C.2     7  GLU7        0.3649
     31  OE1      -20.8250  -10.4200  -13.8210 O.co2   7  GLU7       -0.2457
     32  OE2      -20.2140   -8.5480  -12.8840 O.co2   7  GLU7       -0.2457
     33  N        -16.4420  -10.9120   -9.3980 N.am    8  GLN8       -0.1979
     34  CA       -15.3420  -10.2920   -8.6860 C.3     8  GLN8        0.1601
     35  C        -14.0400  -10.4210   -9.4570 C.2     8  GLN8        0.2287
     36  O        -13.0640   -9.7370   -9.1690 O.2     8  GLN8       -0.2864
     37  CB       -15.2150  -10.8850   -7.2890 C.3     8  GLN8        0.0394
     38  CG       -16.3900  -10.5070   -6.4160 C.3     8  GLN8        0.0908
     39  CD       -16.1260  -10.7870   -4.9660 C.2     8  GLN8        0.2608
     40  OE1      -14.9960  -10.6610   -4.5010 O.2     8  GLN8       -0.2717
     41  NE2      -17.1620  -11.1880   -4.2420 N.am    8  GLN8       -0.0878
     42  N        -12.3200   -6.7240   -9.5410 N.3    34  MET34      -0.1245
     43  CA       -13.3390   -6.1180   -8.6920 C.3    34  MET34       0.1570
     44  C        -13.1220   -6.5450   -7.2340 C.2    34  MET34       0.2261
     45  O        -13.3890   -5.7720   -6.3140 O.2    34  MET34      -0.2867
     46  CB       -14.7370   -6.4870   -9.1900 C.3    34  MET34       0.0387
     47  CG       -15.2020   -5.6260  -10.3690 C.3    34  MET34       0.0595
     48  SD       -15.4690   -3.9150   -9.8460 S.3    34  MET34      -0.1393
     49  CE       -16.7830   -4.0600   -8.6410 C.3    34  MET34       0.0692
     50  N        -12.8310   -3.9410   -4.0930 N.3    38  LEU38      -0.1231
     51  CA       -13.6420   -4.0810   -2.8800 C.3    38  LEU38       0.1693
     52  C        -12.7660   -4.1290   -1.6330 C.2    38  LEU38       0.2592
     53  O        -13.0930   -3.5430   -0.6050 O.2    38  LEU38      -0.2718
     54  CB       -14.4660   -5.3740   -2.9520 C.3    38  LEU38       0.0284
     55  CG       -15.6090   -5.3050   -3.9640 C.3    38  LEU38       0.0019
     56  CD1      -16.1640   -6.7090   -4.2560 C.3    38  LEU38       0.0001
     57  CD2      -16.6970   -4.3710   -3.4500 C.3    38  LEU38       0.0001
     58  N        -11.6530   -4.8490   -1.7210 N.am   39  PHE39      -0.1976
     59  CA       -10.7730   -4.9610   -0.5690 C.3    39  PHE39       0.1639
     60  C        -10.2680   -3.5950   -0.1360 C.2    39  PHE39       0.2290
     61  O        -10.2990   -3.2470    1.0620 O.2    39  PHE39      -0.2864
     62  CB        -9.5880   -5.8720   -0.8550 C.3    39  PHE39       0.0560
     63  CG        -8.6390   -5.9750    0.2970 C.ar   39  PHE39      -0.0200
     64  CD1       -8.8570   -6.9030    1.2980 C.ar   39  PHE39      -0.0042
     65  CD2       -7.5530   -5.1130    0.4050 C.ar   39  PHE39      -0.0042
     66  CE1       -7.9860   -7.0000    2.3700 C.ar   39  PHE39      -0.0003
     67  CE2       -6.6980   -5.1830    1.5020 C.ar   39  PHE39      -0.0003
     68  CZ        -6.9090   -6.1350    2.4680 C.ar   39  PHE39      -0.0000
     69  N        -11.4670   -0.5730   -0.9040 N.3    41  LEU41      -0.1231
     70  CA       -12.5600    0.2670   -0.3940 C.3    41  LEU41       0.1693
     71  C        -12.8650   -0.0790    1.0550 C.2    41  LEU41       0.2592
     72  O        -13.1510    0.7950    1.8730 O.2    41  LEU41      -0.2718
     73  CB       -13.8140    0.1020   -1.2510 C.3    41  LEU41       0.0284
     74  CG       -13.7010    0.7790   -2.6160 C.3    41  LEU41       0.0019
     75  CD1      -14.8650    0.3930   -3.5270 C.3    41  LEU41       0.0001
     76  CD2      -13.6690    2.2740   -2.4200 C.3    41  LEU41       0.0001
     77  N        -12.7950   -1.3600    1.3830 N.am   42  GLY42      -0.1957
     78  CA       -12.9810   -1.7810    2.7640 C.3    42  GLY42       0.1869
     79  C        -11.9300   -1.1650    3.6740 C.2    42  GLY42       0.2309
     80  O        -12.2420   -0.7300    4.7840 O.2    42  GLY42      -0.2863
     81  N        -12.7490    2.5640    4.2510 N.3    45  ILE45      -0.1231
     82  CA       -13.8780    2.7930    5.1550 C.3    45  ILE45       0.1692
     83  C        -13.4430    2.5170    6.5910 C.2    45  ILE45       0.2591
     84  O        -13.8080    3.2410    7.5090 O.2    45  ILE45      -0.2718
     85  CB       -15.0820    1.8820    4.7490 C.3    45  ILE45       0.0266
     86  CG1      -15.6650    2.3510    3.4200 C.3    45  ILE45       0.0019
     87  CG2      -16.1740    1.8600    5.8270 C.3    45  ILE45       0.0020
     88  CD1      -16.5070    1.2600    2.7540 C.3    45  ILE45       0.0001
     89  N        -12.6310    1.4800    6.7820 N.am   46  MET46      -0.1979
     90  CA       -12.0940    1.1730    8.1130 C.3    46  MET46       0.1605
     91  C        -11.2220    2.2960    8.6400 C.2    46  MET46       0.2287
     92  O        -11.4040    2.7750    9.7640 O.2    46  MET46      -0.2864
     93  CB       -11.2220   -0.0920    8.0660 C.3    46  MET46       0.0413
     94  CG       -11.9730   -1.3890    7.8560 C.3    46  MET46       0.0598
     95  SD       -10.9220   -2.8530    7.6460 S.3    46  MET46      -0.1393
     96  CE        -9.8590   -2.7720    9.0870 C.3    46  MET46       0.0692
     97  N        -17.9720    3.7600    9.1640 N.3    51  TYR51      -0.1241
     98  CA       -19.0920    2.8840    9.5030 C.3    51  TYR51       0.1605
     99  C        -19.6480    3.1870   10.8840 C.2    51  TYR51       0.2264
    100  O        -18.9260    3.6440   11.7830 O.2    51  TYR51      -0.2867
    101  CB       -18.6640    1.4150    9.4060 C.3    51  TYR51       0.0534
    102  CG       -17.5550    1.0360   10.3620 C.ar   51  TYR51      -0.0201
    103  CD1      -17.8340    0.6290   11.6660 C.ar   51  TYR51      -0.0009
    104  CD2      -16.2260    1.0920    9.9620 C.ar   51  TYR51      -0.0009
    105  CE1      -16.8110    0.2890   12.5480 C.ar   51  TYR51       0.0417
    106  CE2      -15.1910    0.7440   10.8360 C.ar   51  TYR51       0.0417
    107  CZ       -15.4900    0.3430   12.1180 C.ar   51  TYR51       0.1957
    108  OH       -14.4630    0.0070   12.9730 O.3    51  TYR51      -0.2866
    109  N        -22.8580   -1.6490   12.3590 N.3    56  GLN56      -0.1245
    110  CA       -21.6940   -1.6140   11.4670 C.3    56  GLN56       0.1566
    111  C        -21.9690   -1.8880    9.9960 C.2    56  GLN56       0.2260
    112  O        -21.0600   -1.7880    9.1650 O.2    56  GLN56      -0.2867
    113  CB       -20.5830   -2.5220   12.0030 C.3    56  GLN56       0.0367
    114  CG       -20.2490   -2.1980   13.4560 C.3    56  GLN56       0.0905
    115  CD       -18.9720   -2.8450   13.9530 C.2    56  GLN56       0.2608
    116  OE1      -18.2640   -3.5140   13.1990 O.2    56  GLN56      -0.2717
    117  NE2      -18.6740   -2.6520   15.2410 N.am   56  GLN56      -0.0878
    118  N        -22.6300    2.6820    6.3650 N.3    59  VAL59      -0.1245
    119  CA       -21.4560    3.5050    6.1180 C.3    59  VAL59       0.1561
    120  C        -21.9310    4.9250    5.8540 C.2    59  VAL59       0.2260
    121  O        -22.8690    5.1200    5.0840 O.2    59  VAL59      -0.2867
    122  CB       -20.6930    2.9990    4.8900 C.3    59  VAL59       0.0252
    123  CG1      -19.6070    3.9880    4.4890 C.3    59  VAL59       0.0019
    124  CG2      -20.1130    1.6330    5.1710 C.3    59  VAL59       0.0019
    125  N        -15.5710    9.6130   -0.5450 N.3    66  LEU66      -0.1245
    126  CA       -16.3010    8.4090   -0.9010 C.3    66  LEU66       0.1561
    127  C        -17.7410    8.7260   -1.3210 C.2    66  LEU66       0.2260
    128  O        -18.2770    8.1260   -2.2720 O.2    66  LEU66      -0.2867
    129  CB       -16.2670    7.3910    0.2550 C.3    66  LEU66       0.0270
    130  CG       -16.8910    6.0300   -0.0820 C.3    66  LEU66       0.0019
    131  CD1      -16.1050    5.3190   -1.1880 C.3    66  LEU66       0.0001
    132  CD2      -16.9760    5.1430    1.1430 C.3    66  LEU66       0.0001
    133  N        -19.4690    7.8340   -4.8310 N.3    70  PHE70      -0.1241
    134  CA       -20.6200    6.9380   -4.8180 C.3    70  PHE70       0.1605
    135  C        -21.9580    7.6420   -5.1280 C.2    70  PHE70       0.2264
    136  O        -22.9150    7.0050   -5.5770 O.2    70  PHE70      -0.2867
    137  CB       -20.7080    6.2190   -3.4770 C.3    70  PHE70       0.0534
    138  CG       -19.8030    5.0190   -3.3580 C.ar   70  PHE70      -0.0203
    139  CD1      -18.8570    4.7350   -4.3250 C.ar   70  PHE70      -0.0042
    140  CD2      -19.9230    4.1570   -2.2760 C.ar   70  PHE70      -0.0042
    141  CE1      -18.0320    3.6120   -4.1980 C.ar   70  PHE70      -0.0003
    142  CE2      -19.1050    3.0440   -2.1500 C.ar   70  PHE70      -0.0003
    143  CZ       -18.1580    2.7750   -3.1210 C.ar   70  PHE70      -0.0000
    144  N        -24.8390    4.4910    2.9490 N.3    75  PHE75      -0.1241
    145  CA       -25.3470    3.2640    2.3470 C.3    75  PHE75       0.1605
    146  C        -25.2190    2.0840    3.2890 C.2    75  PHE75       0.2264
    147  O        -24.4830    2.1410    4.2780 O.2    75  PHE75      -0.2867
    148  CB       -24.6500    2.9700    1.0100 C.3    75  PHE75       0.0534
    149  CG       -23.1710    2.7430    1.1290 C.ar   75  PHE75      -0.0203
    150  CD1      -22.2910    3.8180    1.1740 C.ar   75  PHE75      -0.0042
    151  CD2      -22.6550    1.4510    1.1670 C.ar   75  PHE75      -0.0042
    152  CE1      -20.9290    3.6080    1.2880 C.ar   75  PHE75      -0.0003
    153  CE2      -21.2940    1.2350    1.2780 C.ar   75  PHE75      -0.0003
    154  CZ       -20.4270    2.3160    1.3330 C.ar   75  PHE75      -0.0000
    155  N        -24.0180   -1.8140    3.7430 N.3    77  VAL77      -0.1245
    156  CA       -23.1400   -2.7790    3.0970 C.3    77  VAL77       0.1561
    157  C        -23.8810   -4.0770    2.7890 C.2    77  VAL77       0.2260
    158  O        -23.3300   -4.9720    2.1460 O.2    77  VAL77      -0.2867
    159  CB       -21.9090   -3.1210    3.9610 C.3    77  VAL77       0.0252
    160  CG1      -21.2300   -1.8310    4.4480 C.3    77  VAL77       0.0019
    161  CG2      -22.3170   -3.9810    5.1320 C.3    77  VAL77       0.0019
    162  N        -25.8880   -5.1870   -1.8990 N.3    80  HIS80      -0.1241
    163  CA       -24.7530   -5.2860   -2.8040 C.3    80  HIS80       0.1621
    164  C        -24.9700   -4.7080   -4.2140 C.2    80  HIS80       0.2264
    165  O        -24.0250   -4.2030   -4.8200 O.2    80  HIS80      -0.2867
    166  CB       -24.2880   -6.7380   -2.8820 C.3    80  HIS80       0.0745
    167  CG       -23.7980   -7.2660   -1.5710 C.ar   80  HIS80       0.0817
    168  ND1      -23.3520   -8.5600   -1.4060 N.ar   80  HIS80      -0.2268
    169  CD2      -23.7010   -6.6790   -0.3540 C.ar   80  HIS80       0.1154
    170  CE1      -22.9850   -8.7410   -0.1510 C.ar   80  HIS80       0.1986
    171  NE2      -23.1890   -7.6150    0.5110 N.ar   80  HIS80      -0.2212
    172  N        -23.9570   -1.2630   -4.2340 N.3    83  ILE83      -0.1231
    173  CA       -22.5030   -1.1290   -4.1250 C.3    83  ILE83       0.1692
    174  C        -21.8470   -1.3580   -5.4960 C.2    83  ILE83       0.2592
    175  O        -20.9750   -0.6060   -5.9350 O.2    83  ILE83      -0.2718
    176  CB       -21.9370   -2.0900   -3.0800 C.3    83  ILE83       0.0266
    177  CG1      -22.4210   -1.6810   -1.6830 C.3    83  ILE83       0.0019
    178  CG2      -20.4020   -2.0890   -3.1080 C.3    83  ILE83       0.0020
    179  CD1      -22.0690   -2.6950   -0.6280 C.3    83  ILE83       0.0001
    180  N        -22.2980   -2.4010   -6.1760 N.am   84  TYR84      -0.1976
    181  CA       -21.8880   -2.6640   -7.5510 C.3    84  TYR84       0.1639
    182  C        -22.0670   -1.4490   -8.4640 C.2    84  TYR84       0.2290
    183  O        -21.1370   -1.0390   -9.1540 O.2    84  TYR84      -0.2864
    184  CB       -22.7150   -3.8320   -8.0750 C.3    84  TYR84       0.0560
    185  CG       -22.3410   -4.3320   -9.4410 C.ar   84  TYR84      -0.0198
    186  CD1      -22.8920   -3.7730  -10.5900 C.ar   84  TYR84      -0.0009
    187  CD2      -21.4680   -5.3860   -9.5820 C.ar   84  TYR84      -0.0009
    188  CE1      -22.5600   -4.2500  -11.8410 C.ar   84  TYR84       0.0417
    189  CE2      -21.1370   -5.8770  -10.8330 C.ar   84  TYR84       0.0417
    190  CZ       -21.6790   -5.3060  -11.9530 C.ar   84  TYR84       0.1957
    191  OH       -21.3300   -5.8080  -13.1920 O.3    84  TYR84      -0.2866
@<TRIPOS>BOND
     1    31    30   ar
     2   191   190    1
     3    32    30   ar
     4    30    29    1
     5   190   188   ar
     6   190   189   ar
     7   188   186   ar
     8    29    28    1
     9    25    24    1
    10    25    28    1
    11    25    26    1
    12    27    26    2
    13   189   187   ar
    14   186   185   ar
    15    22    21    1
    16    22    23    1
    17    26    33   am
    18    47    48    1
    19    47    46    1
    20    48    49    1
    21    21    18    1
    22   187   185   ar
    23    42    43    1
    24    35    36    2
    25    35    34    1
    26   185   184    1
    27    23    17    1
    28    33    34    1
    29    46    43    1
    30   183   182    2
    31    43    44    1
    32    34    37    1
    33    20    19    2
    34   182   181    1
    35    18    19    1
    36    18    17    1
    37    17    11   am
    38    15    13    1
    39   184   181    1
    40   181   180    1
    41    37    38    1
    42    44    45    2
    43    11    10    1
    44    11    12    2
    45    13    10    1
    46    13    14    1
    47    10     9    1
    48    16    14    1
    49    38    39    1
    50   180   174   am
    51   175   174    2
    52   136   135    2
    53   174   173    1
    54   135   134    1
    55    39    40    2
    56    39    41   am
    57   133   134    1
    58   165   164    2
    59   134   137    1
    60   139   141   ar
    61   139   138   ar
    62    56    55    1
    63   172   173    1
    64   164   163    1
    65   141   143   ar
    66     4     3    2
    67   173   176    1
    68    50    51    1
    69    55    57    1
    70    55    54    1
    71     6     7    1
    72     6     5    1
    73     7     8    1
    74    75    74    1
    75   137   138    1
    76   138   140   ar
    77     3     2    1
    78   143   142   ar
    79   178   176    1
    80   176   177    1
    81    54    51    1
    82   166   163    1
    83   166   167    1
    84    51    52    1
    85   163   162    1
    86    74    76    1
    87    74    73    1
    88     5     2    1
    89     1     2    1
    90   140   142   ar
    91   128   127    2
    92    58    52   am
    93    58    59    1
    94   177   179    1
    95    52    53    2
    96   167   168   ar
    97   167   169   ar
    98   168   170   ar
    99   127   126    1
   100    73    70    1
   101   131   130    1
   102    69    70    1
   103   126   125    1
   104   126   129    1
   105    62    59    1
   106    62    63    1
   107    59    60    1
   108    70    71    1
   109   169   171   ar
   110   170   171   ar
   111    60    61    2
   112   130   129    1
   113   130   132    1
   114    63    65   ar
   115    63    64   ar
   116    65    67   ar
   117   148   149    1
   118   148   145    1
   119    71    77   am
   120    71    72    2
   121   149   151   ar
   122   149   150   ar
   123   151   153   ar
   124   150   152   ar
   125   153   154   ar
   126   152   154   ar
   127    64    66   ar
   128    77    78    1
   129    67    68   ar
   130   158   157    2
   131   145   144    1
   132   145   146    1
   133    66    68   ar
   134    88    86    1
   135    78    79    1
   136   157   156    1
   137   156   155    1
   138   156   159    1
   139   146   147    2
   140    86    85    1
   141    79    80    2
   142   159   160    1
   143   159   161    1
   144    81    82    1
   145   123   122    1
   146    85    82    1
   147    85    87    1
   148   122   124    1
   149   122   119    1
   150   121   120    2
   151    82    83    1
   152   120   119    1
   153   119   118    1
   154    83    89   am
   155    83    84    2
   156    89    90    1
   157    95    94    1
   158    95    96    1
   159    94    93    1
   160    93    90    1
   161    90    91    1
   162    91    92    2
   163    97    98    1
   164   112   111    2
   165   101    98    1
   166   101   102    1
   167    98    99    1
   168   104   102   ar
   169   104   106   ar
   170   111   110    1
   171   102   103   ar
   172   106   107   ar
   173    99   100    2
   174   110   113    1
   175   110   109    1
   176   103   105   ar
   177   113   114    1
   178   107   105   ar
   179   107   108    1
   180   116   115    2
   181   114   115    1
   182   115   117   am
