@<TRIPOS>MOLECULE
tmp/4mdoA00.pdb
 158 158 0 0 0
SMALL
GASTEIGER

@<TRIPOS>ATOM
      1  N         -3.6710  -44.5070   11.5980 N.3    18  GLN18      -0.1245
      2  CA        -3.1830  -45.8470   11.3820 C.3    18  GLN18       0.1566
      3  C         -2.2080  -46.2780   12.4540 C.2    18  GLN18       0.2260
      4  O         -2.0940  -47.4560   12.6980 O.2    18  GLN18      -0.2867
      5  CB        -2.5380  -45.9700   10.0080 C.3    18  GLN18       0.0367
      6  CG        -3.3900  -45.4590    8.8510 C.3    18  GLN18       0.0905
      7  CD        -2.8290  -45.8840    7.4920 C.2    18  GLN18       0.2608
      8  OE1       -2.4090  -45.0580    6.6630 O.2    18  GLN18      -0.2717
      9  NE2       -2.8390  -47.1860    7.2530 N.am   18  GLN18      -0.0878
     10  N         -4.9350  -36.6790    6.3380 N.3   121  HIS121     -0.1226
     11  CA        -4.8100  -38.1190    5.9530 C.3   121  HIS121      0.1752
     12  C         -6.0570  -38.9540    6.4060 C.2   121  HIS121      0.2596
     13  O         -5.9820  -39.9180    7.1760 O.2   121  HIS121     -0.2718
     14  CB        -3.4870  -38.6920    6.4850 C.3   121  HIS121      0.0759
     15  CG        -3.0010  -39.9110    5.7520 C.ar  121  HIS121      0.0818
     16  ND1       -1.6790  -40.0820    5.3910 N.ar  121  HIS121     -0.2268
     17  CD2       -3.6490  -41.0270    5.3430 C.ar  121  HIS121      0.1154
     18  CE1       -1.5430  -41.2360    4.7700 C.ar  121  HIS121      0.1986
     19  NE2       -2.7200  -41.8310    4.7340 N.ar  121  HIS121     -0.2212
     20  N         -7.2040  -38.4850    5.9140 N.am  122  TRP122     -0.1976
     21  CA        -8.5300  -39.1470    5.9140 C.3   122  TRP122      0.1640
     22  C         -9.3490  -39.0500    7.1910 C.2   122  TRP122      0.2290
     23  O        -10.5730  -39.2580    7.1600 O.2   122  TRP122     -0.2864
     24  CB        -8.4600  -40.5990    5.4620 C.3   122  TRP122      0.0576
     25  CG        -7.7010  -40.8100    4.2260 C.ar  122  TRP122      0.0006
     26  CD1       -7.2140  -39.8600    3.3820 C.ar  122  TRP122      0.0946
     27  CD2       -7.3280  -42.0720    3.6800 C.ar  122  TRP122      0.0152
     28  NE1       -6.5520  -40.4580    2.3430 N.ar  122  TRP122     -0.2442
     29  CE2       -6.6070  -41.8180    2.5050 C.ar  122  TRP122      0.0810
     30  CE3       -7.5450  -43.3990    4.0690 C.ar  122  TRP122      0.0012
     31  CZ2       -6.1030  -42.8350    1.7130 C.ar  122  TRP122      0.0191
     32  CZ3       -7.0410  -44.4040    3.2930 C.ar  122  TRP122      0.0001
     33  CH2       -6.3230  -44.1170    2.1250 C.ar  122  TRP122      0.0015
     34  N         -3.5960  -36.2780    1.5760 N.3   166  ASN166     -0.1225
     35  CA        -3.1390  -37.5980    1.1020 C.3   166  ASN166      0.1785
     36  C         -4.1510  -38.3080    0.1590 C.2   166  ASN166      0.2597
     37  O         -5.2450  -38.6740    0.5780 O.2   166  ASN166     -0.2718
     38  CB        -2.8360  -38.5040    2.2840 C.3   166  ASN166      0.1169
     39  CG        -2.2500  -39.8190    1.8630 C.2   166  ASN166      0.2627
     40  OD1       -1.0550  -39.9260    1.6160 O.2   166  ASN166     -0.2716
     41  ND2       -3.0960  -40.8330    1.7640 N.am  166  ASN166     -0.0877
     42  N         -3.7810  -38.5120   -1.1010 N.am  167  GLU167     -0.1979
     43  CA        -4.5540  -39.3870   -1.9690 C.3   167  GLU167      0.1602
     44  C         -6.0330  -39.0390   -1.9950 C.2   167  GLU167      0.2287
     45  O         -6.8620  -39.8070   -1.5470 O.2   167  GLU167     -0.2864
     46  CB        -4.3970  -40.8360   -1.5330 C.3   167  GLU167      0.0415
     47  CG        -2.9660  -41.2950   -1.6070 C.3   167  GLU167      0.1163
     48  CD        -2.7880  -42.7110   -1.1260 C.2   167  GLU167      0.3649
     49  OE1       -3.7500  -43.2760   -0.6400 O.co2 167  GLU167     -0.2457
     50  OE2       -1.6740  -43.2570   -1.1980 O.co2 167  GLU167     -0.2457
     51  N         -8.6010  -41.6370   -3.1290 N.3   170  CYS170     -0.1235
     52  CA        -9.1300  -42.6030   -2.1710 C.3   170  CYS170      0.1677
     53  C        -10.3230  -42.0170   -1.4370 C.2   170  CYS170      0.2270
     54  O        -11.3730  -42.6600   -1.2760 O.2   170  CYS170     -0.2867
     55  CB        -8.0500  -43.0550   -1.1630 C.3   170  CYS170      0.0956
     56  SG        -6.7840  -44.1330   -1.8850 S.3   170  CYS170     -0.0801
     57  N        -14.3200  -47.1680    1.9670 N.3   181  PHE181     -0.1241
     58  CA       -13.6120  -46.3520    2.9650 C.3   181  PHE181      0.1605
     59  C        -14.5800  -45.3050    3.4600 C.2   181  PHE181      0.2264
     60  O        -15.4840  -44.9260    2.7360 O.2   181  PHE181     -0.2867
     61  CB       -12.4190  -45.6080    2.3110 C.3   181  PHE181      0.0534
     62  CG       -11.1470  -46.4250    2.1470 C.ar  181  PHE181     -0.0203
     63  CD1      -11.0630  -47.7590    2.5040 C.ar  181  PHE181     -0.0042
     64  CD2      -10.0230  -45.8240    1.5960 C.ar  181  PHE181     -0.0042
     65  CE1       -9.8750  -48.4680    2.3530 C.ar  181  PHE181     -0.0003
     66  CE2       -8.8240  -46.5370    1.4370 C.ar  181  PHE181     -0.0003
     67  CZ        -8.7500  -47.8640    1.8160 C.ar  181  PHE181     -0.0000
     68  N         -1.8440  -40.4090   -5.4620 N.3   236  ASN236     -0.1240
     69  CA        -1.4710  -41.7740   -5.7390 C.3   236  ASN236      0.1653
     70  C         -1.8380  -42.1600   -7.1420 C.2   236  ASN236      0.2266
     71  O         -2.5090  -41.4310   -7.8640 O.2   236  ASN236     -0.2867
     72  CB        -2.1270  -42.7340   -4.7600 C.3   236  ASN236      0.1155
     73  CG        -3.6430  -42.7190   -4.8360 C.2   236  ASN236      0.2627
     74  OD1       -4.2860  -41.6820   -5.0810 O.2   236  ASN236     -0.2716
     75  ND2       -4.2230  -43.8710   -4.5920 N.am  236  ASN236     -0.0877
     76  N          2.5510  -47.7440   -5.8510 N.3   309  TYR309     -0.1241
     77  CA         2.6470  -49.1250   -5.3970 C.3   309  TYR309      0.1605
     78  C          2.8050  -50.2370   -6.4710 C.2   309  TYR309      0.2264
     79  O          3.5560  -51.1810   -6.2630 O.2   309  TYR309     -0.2867
     80  CB         1.4440  -49.3980   -4.5260 C.3   309  TYR309      0.0534
     81  CG         1.5230  -48.6560   -3.2190 C.ar  309  TYR309     -0.0201
     82  CD1        2.2070  -49.2030   -2.1460 C.ar  309  TYR309     -0.0009
     83  CD2        0.9320  -47.4000   -3.0570 C.ar  309  TYR309     -0.0009
     84  CE1        2.2980  -48.5380   -0.9530 C.ar  309  TYR309      0.0417
     85  CE2        1.0260  -46.7310   -1.8590 C.ar  309  TYR309      0.0417
     86  CZ         1.7170  -47.3160   -0.8240 C.ar  309  TYR309      0.1957
     87  OH         1.8470  -46.6850    0.3680 O.3   309  TYR309     -0.2866
     88  N         -4.9840  -55.7760   -4.6170 N.3   350  TRP350     -0.1241
     89  CA        -4.7090  -54.7580   -5.6430 C.3   350  TRP350      0.1605
     90  C         -3.1950  -54.5270   -5.8840 C.2   350  TRP350      0.2264
     91  O         -2.8340  -53.7070   -6.7250 O.2   350  TRP350     -0.2867
     92  CB        -5.3620  -53.4360   -5.2470 C.3   350  TRP350      0.0550
     93  CG        -4.9380  -52.9650   -3.8840 C.ar  350  TRP350      0.0003
     94  CD1       -5.5300  -53.2660   -2.6940 C.ar  350  TRP350      0.0946
     95  CD2       -3.8210  -52.1240   -3.5660 C.ar  350  TRP350      0.0152
     96  NE1       -4.8690  -52.6520   -1.6610 N.ar  350  TRP350     -0.2442
     97  CE2       -3.8100  -51.9580   -2.1630 C.ar  350  TRP350      0.0810
     98  CE3       -2.8330  -51.4830   -4.3350 C.ar  350  TRP350      0.0012
     99  CZ2       -2.8430  -51.1870   -1.5030 C.ar  350  TRP350      0.0191
    100  CZ3       -1.8730  -50.7230   -3.6930 C.ar  350  TRP350      0.0001
    101  CH2       -1.8840  -50.5730   -2.2830 C.ar  350  TRP350      0.0015
    102  N          5.0420  -42.0160   -0.5500 N.3   378  GLU378     -0.1245
    103  CA         4.7000  -43.3710   -0.1730 C.3   378  GLU378      0.1567
    104  C          5.1290  -44.3630   -1.2440 C.2   378  GLU378      0.2260
    105  O          4.8410  -44.1800   -2.4220 O.2   378  GLU378     -0.2867
    106  CB         3.1870  -43.5260    0.0590 C.3   378  GLU378      0.0388
    107  CG         2.6430  -43.1200    1.4350 C.3   378  GLU378      0.1160
    108  CD         1.1440  -43.3690    1.5680 C.2   378  GLU378      0.3649
    109  OE1        0.6400  -44.3450    0.9750 O.co2 378  GLU378     -0.2457
    110  OE2        0.4570  -42.5860    2.2530 O.co2 378  GLU378     -0.2457
    111  N          6.6530  -46.5970    2.8760 N.3   428  TRP428     -0.1241
    112  CA         5.4520  -46.9460    3.5880 C.3   428  TRP428      0.1605
    113  C          5.5970  -48.3860    4.0700 C.2   428  TRP428      0.2264
    114  O          5.7740  -49.2640    3.2780 O.2   428  TRP428     -0.2867
    115  CB         4.1800  -46.7950    2.7250 C.3   428  TRP428      0.0550
    116  CG         2.9720  -47.0080    3.5530 C.ar  428  TRP428      0.0003
    117  CD1        2.2950  -48.1600    3.7040 C.ar  428  TRP428      0.0946
    118  CD2        2.3440  -46.0590    4.4120 C.ar  428  TRP428      0.0152
    119  NE1        1.2680  -47.9980    4.5960 N.ar  428  TRP428     -0.2442
    120  CE2        1.2820  -46.7080    5.0440 C.ar  428  TRP428      0.0810
    121  CE3        2.5700  -44.7140    4.6980 C.ar  428  TRP428      0.0012
    122  CZ2        0.4570  -46.0660    5.9420 C.ar  428  TRP428      0.0191
    123  CZ3        1.7570  -44.0780    5.5970 C.ar  428  TRP428      0.0001
    124  CH2        0.7070  -44.7440    6.1970 C.ar  428  TRP428      0.0015
    125  N         -4.4310  -50.9380    8.4710 N.3   435  GLU435     -0.1231
    126  CA        -4.5730  -50.7360    7.0210 C.3   435  GLU435      0.1699
    127  C         -6.0470  -50.6010    6.6210 C.2   435  GLU435      0.2592
    128  O         -6.5830  -51.3490    5.7950 O.2   435  GLU435     -0.2718
    129  CB        -3.8440  -51.8440    6.2430 C.3   435  GLU435      0.0402
    130  CG        -3.7540  -51.6760    4.7080 C.3   435  GLU435      0.1161
    131  CD        -3.3070  -50.3010    4.1930 C.2   435  GLU435      0.3649
    132  OE1       -2.4650  -49.6070    4.8460 O.co2 435  GLU435     -0.2457
    133  OE2       -3.8060  -49.9230    3.0890 O.co2 435  GLU435     -0.2457
    134  N         -6.6920  -49.6220    7.2440 N.am  436  TRP436     -0.1976
    135  CA        -8.0260  -49.1720    6.8620 C.3   436  TRP436      0.1640
    136  C         -9.0260  -50.3190    6.7850 C.2   436  TRP436      0.2290
    137  O         -9.1570  -51.0830    7.7330 O.2   436  TRP436     -0.2864
    138  CB        -7.9390  -48.3660    5.5720 C.3   436  TRP436      0.0576
    139  CG        -6.8910  -47.2810    5.6190 C.ar  436  TRP436      0.0006
    140  CD1       -5.7140  -47.2440    4.9270 C.ar  436  TRP436      0.0946
    141  CD2       -6.9320  -46.0780    6.4020 C.ar  436  TRP436      0.0152
    142  NE1       -5.0360  -46.0800    5.2070 N.ar  436  TRP436     -0.2442
    143  CE2       -5.7530  -45.3550    6.1210 C.ar  436  TRP436      0.0810
    144  CE3       -7.8630  -45.5350    7.3010 C.ar  436  TRP436      0.0012
    145  CZ2       -5.4750  -44.1100    6.7050 C.ar  436  TRP436      0.0191
    146  CZ3       -7.5860  -44.2960    7.8890 C.ar  436  TRP436      0.0001
    147  CH2       -6.4000  -43.5980    7.5870 C.ar  436  TRP436      0.0015
    148  N          2.4040  -53.5660    6.2910 N.3   444  PHE444     -0.1241
    149  CA         3.2540  -52.8000    5.3730 C.3   444  PHE444      0.1605
    150  C          4.5530  -52.3430    6.0270 C.2   444  PHE444      0.2264
    151  O          5.3730  -51.7180    5.3770 O.2   444  PHE444     -0.2867
    152  CB         2.5160  -51.5500    4.8790 C.3   444  PHE444      0.0534
    153  CG         1.7390  -51.7490    3.6100 C.ar  444  PHE444     -0.0203
    154  CD1        2.3670  -51.6590    2.3850 C.ar  444  PHE444     -0.0042
    155  CD2        0.3710  -51.9770    3.6460 C.ar  444  PHE444     -0.0042
    156  CE1        1.6590  -51.8310    1.2180 C.ar  444  PHE444     -0.0003
    157  CE2       -0.3530  -52.1350    2.4680 C.ar  444  PHE444     -0.0003
    158  CZ         0.2970  -52.0680    1.2550 C.ar  444  PHE444     -0.0000
@<TRIPOS>BOND
     1    71    70    2
     2    70    69    1
     3    91    90    2
     4    78    79    2
     5    78    77    1
     6    90    89    1
     7    76    77    1
     8    69    68    1
     9    69    72    1
    10    89    92    1
    11    89    88    1
    12    77    80    1
    13    92    93    1
    14    74    73    2
    15    73    72    1
    16    73    75   am
    17    80    81    1
    18    98   100   ar
    19    98    95   ar
    20    93    95   ar
    21    93    94   ar
    22   100   101   ar
    23    95    97   ar
    24    81    83   ar
    25    81    82   ar
    26    51    52    1
    27    83    85   ar
    28    94    96   ar
    29   105   104    2
    30   101    99   ar
    31    52    53    1
    32    52    55    1
    33    97    96   ar
    34    97    99   ar
    35    82    84   ar
    36    44    43    1
    37    44    45    2
    38    43    46    1
    39    43    42    1
    40    56    55    1
    41    85    86   ar
    42    47    46    1
    43    47    48    1
    44    53    54    2
    45   104   103    1
    46    50    48   ar
    47    48    49   ar
    48    42    36   am
    49    84    86   ar
    50    86    87    1
    51   102   103    1
    52   103   106    1
    53   106   107    1
    54    36    37    2
    55    36    35    1
    56   109   108   ar
    57    35    34    1
    58    35    38    1
    59   156   158   ar
    60   156   154   ar
    61   158   157   ar
    62   107   108    1
    63    66    64   ar
    64    66    67   ar
    65   108   110   ar
    66    64    62   ar
    67    40    39    2
    68    31    33   ar
    69    31    29   ar
    70    41    39   am
    71    67    65   ar
    72    39    38    1
    73    57    58    1
    74    33    32   ar
    75    62    61    1
    76    62    63   ar
    77    61    58    1
    78    28    29   ar
    79    28    26   ar
    80    65    63   ar
    81   154   153   ar
    82   157   155   ar
    83    29    27   ar
    84   115   116    1
    85   115   112    1
    86    60    59    2
    87   111   112    1
    88    58    59    1
    89   133   131   ar
    90   114   113    2
    91    32    30   ar
    92    26    25   ar
    93   116   117   ar
    94   116   118   ar
    95   112   113    1
    96   153   155   ar
    97   153   152    1
    98    27    30   ar
    99    27    25   ar
   100   117   119   ar
   101   131   130    1
   102   131   132   ar
   103    25    24    1
   104   118   121   ar
   105   118   120   ar
   106   119   120   ar
   107   121   123   ar
   108   130   129    1
   109    19    18   ar
   110    19    17   ar
   111    18    16   ar
   112   152   149    1
   113   140   142   ar
   114   140   139   ar
   115   120   122   ar
   116   142   143   ar
   117    17    15   ar
   118   149   150    1
   119   149   148    1
   120   151   150    2
   121    16    15   ar
   122    24    21    1
   123   138   139    1
   124   138   135    1
   125   123   124   ar
   126   139   141   ar
   127    15    14    1
   128   128   127    2
   129    21    20    1
   130    21    22    1
   131    20    12   am
   132   122   124   ar
   133    11    10    1
   134    11    12    1
   135    11    14    1
   136   143   141   ar
   137   143   145   ar
   138   129   126    1
   139   141   144   ar
   140    12    13    2
   141   127   126    1
   142   127   134   am
   143     8     7    2
   144   145   147   ar
   145   136   135    1
   146   136   137    2
   147   135   134    1
   148   126   125    1
   149    23    22    2
   150     9     7   am
   151   144   146   ar
   152     7     6    1
   153   147   146   ar
   154     6     5    1
   155     5     2    1
   156     2     1    1
   157     2     3    1
   158     3     4    2
