@<TRIPOS>MOLECULE
tmp/4mdoA01.pdb
 125 126 0 0 0
SMALL
GASTEIGER

@<TRIPOS>ATOM
      1  N         -7.2040  -38.4850    5.9140 N.3   122  TRP122     -0.1241
      2  CA        -8.5300  -39.1470    5.9140 C.3   122  TRP122      0.1605
      3  C         -9.3490  -39.0500    7.1910 C.2   122  TRP122      0.2264
      4  O        -10.5730  -39.2580    7.1600 O.2   122  TRP122     -0.2867
      5  CB        -8.4600  -40.5990    5.4620 C.3   122  TRP122      0.0550
      6  CG        -7.7010  -40.8100    4.2260 C.ar  122  TRP122      0.0003
      7  CD1       -7.2140  -39.8600    3.3820 C.ar  122  TRP122      0.0946
      8  CD2       -7.3280  -42.0720    3.6800 C.ar  122  TRP122      0.0152
      9  NE1       -6.5520  -40.4580    2.3430 N.ar  122  TRP122     -0.2442
     10  CE2       -6.6070  -41.8180    2.5050 C.ar  122  TRP122      0.0810
     11  CE3       -7.5450  -43.3990    4.0690 C.ar  122  TRP122      0.0012
     12  CZ2       -6.1030  -42.8350    1.7130 C.ar  122  TRP122      0.0191
     13  CZ3       -7.0410  -44.4040    3.2930 C.ar  122  TRP122      0.0001
     14  CH2       -6.3230  -44.1170    2.1250 C.ar  122  TRP122      0.0015
     15  N         -7.9090  -39.2570   -4.4990 N.3   169  TRP169     -0.1227
     16  CA        -8.5690  -40.3600   -5.2290 C.3   169  TRP169      0.1737
     17  C         -9.2600  -41.3290   -4.2430 C.2   169  TRP169      0.2595
     18  O        -10.3570  -41.7870   -4.5000 O.2   169  TRP169     -0.2718
     19  CB        -7.5810  -41.1370   -6.1430 C.3   169  TRP169      0.0564
     20  CG        -8.2600  -42.1640   -7.0200 C.ar  169  TRP169      0.0003
     21  CD1       -8.7510  -41.9690   -8.2890 C.ar  169  TRP169      0.0946
     22  CD2       -8.5560  -43.5280   -6.6970 C.ar  169  TRP169      0.0152
     23  NE1       -9.3120  -43.1440   -8.7740 N.ar  169  TRP169     -0.2442
     24  CE2       -9.1980  -44.1040   -7.8080 C.ar  169  TRP169      0.0810
     25  CE3       -8.3440  -44.3150   -5.5830 C.ar  169  TRP169      0.0012
     26  CZ2       -9.6180  -45.4150   -7.8220 C.ar  169  TRP169      0.0191
     27  CZ3       -8.7830  -45.6370   -5.5970 C.ar  169  TRP169      0.0001
     28  CH2       -9.4070  -46.1670   -6.7080 C.ar  169  TRP169      0.0015
     29  N         -8.6010  -41.6370   -3.1290 N.am  170  CYS170     -0.1970
     30  CA        -9.1300  -42.6030   -2.1710 C.3   170  CYS170      0.1712
     31  C        -10.3230  -42.0170   -1.4370 C.2   170  CYS170      0.2296
     32  O        -11.3730  -42.6600   -1.2760 O.2   170  CYS170     -0.2864
     33  CB        -8.0500  -43.0550   -1.1630 C.3   170  CYS170      0.0983
     34  SG        -6.7840  -44.1330   -1.8850 S.3   170  CYS170     -0.0798
     35  N        -13.1940  -44.2480   -3.0500 N.3   174  LEU174     -0.1245
     36  CA       -13.4280  -45.2690   -2.0560 C.3   174  LEU174      0.1561
     37  C        -14.4290  -44.7890   -0.9870 C.2   174  LEU174      0.2260
     38  O        -15.1610  -45.5860   -0.3950 O.2   174  LEU174     -0.2867
     39  CB       -12.1060  -45.7660   -1.4680 C.3   174  LEU174      0.0270
     40  CG       -11.1820  -46.4380   -2.5000 C.3   174  LEU174      0.0019
     41  CD1      -10.0080  -47.1090   -1.8080 C.3   174  LEU174      0.0001
     42  CD2      -11.9390  -47.4580   -3.3350 C.3   174  LEU174      0.0001
     43  N        -17.5850  -46.5640   -4.0840 N.3   178  THR178     -0.1218
     44  CA       -17.7770  -47.9410   -3.6460 C.3   178  THR178      0.1862
     45  C        -18.2250  -48.0150   -2.2010 C.2   178  THR178      0.2287
     46  O        -18.6680  -49.0670   -1.7420 O.2   178  THR178     -0.2866
     47  CB       -16.4900  -48.7950   -3.8100 C.3   178  THR178      0.1770
     48  OG1      -15.4090  -48.2910   -2.9870 O.3   178  THR178     -0.2211
     49  CG2      -16.0600  -48.8230   -5.2600 C.3   178  THR178      0.0375
     50  N        -16.1980  -48.2930    0.2520 N.3   180  TYR180     -0.1227
     51  CA       -15.2390  -49.1830    0.9390 C.3   180  TYR180      0.1736
     52  C        -14.5270  -48.4730    2.1080 C.2   180  TYR180      0.2595
     53  O        -14.1950  -49.0920    3.1130 O.2   180  TYR180     -0.2718
     54  CB       -14.2420  -49.6820   -0.1180 C.3   180  TYR180      0.0548
     55  CG       -13.1790  -50.6850    0.2780 C.ar  180  TYR180     -0.0200
     56  CD1      -13.5030  -51.9990    0.6170 C.ar  180  TYR180     -0.0009
     57  CD2      -11.8190  -50.3440    0.2000 C.ar  180  TYR180     -0.0009
     58  CE1      -12.5120  -52.9320    0.9250 C.ar  180  TYR180      0.0417
     59  CE2      -10.8150  -51.2670    0.5060 C.ar  180  TYR180      0.0417
     60  CZ       -11.1610  -52.5720    0.8750 C.ar  180  TYR180      0.1957
     61  OH       -10.1400  -53.5000    1.1840 O.3   180  TYR180     -0.2866
     62  N        -14.3200  -47.1680    1.9670 N.am  181  PHE181     -0.1976
     63  CA       -13.6120  -46.3520    2.9650 C.3   181  PHE181      0.1639
     64  C        -14.5800  -45.3050    3.4600 C.2   181  PHE181      0.2290
     65  O        -15.4840  -44.9260    2.7360 O.2   181  PHE181     -0.2864
     66  CB       -12.4190  -45.6080    2.3110 C.3   181  PHE181      0.0560
     67  CG       -11.1470  -46.4250    2.1470 C.ar  181  PHE181     -0.0200
     68  CD1      -11.0630  -47.7590    2.5040 C.ar  181  PHE181     -0.0042
     69  CD2      -10.0230  -45.8240    1.5960 C.ar  181  PHE181     -0.0042
     70  CE1       -9.8750  -48.4680    2.3530 C.ar  181  PHE181     -0.0003
     71  CE2       -8.8240  -46.5370    1.4370 C.ar  181  PHE181     -0.0003
     72  CZ        -8.7500  -47.8640    1.8160 C.ar  181  PHE181     -0.0000
     73  N         -1.8440  -40.4090   -5.4620 N.3   236  ASN236     -0.1240
     74  CA        -1.4710  -41.7740   -5.7390 C.3   236  ASN236      0.1653
     75  C         -1.8380  -42.1600   -7.1420 C.2   236  ASN236      0.2266
     76  O         -2.5090  -41.4310   -7.8640 O.2   236  ASN236     -0.2867
     77  CB        -2.1270  -42.7340   -4.7600 C.3   236  ASN236      0.1155
     78  CG        -3.6430  -42.7190   -4.8360 C.2   236  ASN236      0.2627
     79  OD1       -4.2860  -41.6820   -5.0810 O.2   236  ASN236     -0.2716
     80  ND2       -4.2230  -43.8710   -4.5920 N.am  236  ASN236     -0.0877
     81  N        -15.4150  -44.9750  -12.9170 N.3   326  PHE326     -0.1241
     82  CA       -14.3720  -44.0000  -12.5820 C.3   326  PHE326      0.1605
     83  C        -13.0100  -44.3400  -13.2150 C.2   326  PHE326      0.2264
     84  O        -12.0910  -43.5310  -13.1590 O.2   326  PHE326     -0.2867
     85  CB       -14.2200  -43.9360  -11.0660 C.3   326  PHE326      0.0534
     86  CG       -13.9530  -45.2670  -10.4420 C.ar  326  PHE326     -0.0203
     87  CD1      -12.6500  -45.7600  -10.3410 C.ar  326  PHE326     -0.0042
     88  CD2      -14.9890  -46.0430   -9.9700 C.ar  326  PHE326     -0.0042
     89  CE1      -12.3860  -47.0070   -9.7530 C.ar  326  PHE326     -0.0003
     90  CE2      -14.7340  -47.2870   -9.3850 C.ar  326  PHE326     -0.0003
     91  CZ       -13.4350  -47.7700   -9.2790 C.ar  326  PHE326     -0.0000
     92  N         -4.9860  -57.5550   -2.4740 N.3   349  PHE349     -0.1227
     93  CA        -5.4460  -58.0140   -3.7710 C.3   349  PHE349      0.1736
     94  C         -5.0500  -57.0760   -4.9090 C.2   349  PHE349      0.2595
     95  O         -4.8230  -57.5260   -6.0340 O.2   349  PHE349     -0.2718
     96  CB        -6.9700  -58.1750   -3.7670 C.3   349  PHE349      0.0547
     97  CG        -7.7110  -56.8750   -3.6490 C.ar  349  PHE349     -0.0202
     98  CD1       -7.9170  -56.2830   -2.3920 C.ar  349  PHE349     -0.0042
     99  CD2       -8.1790  -56.2220   -4.7940 C.ar  349  PHE349     -0.0042
    100  CE1       -8.5870  -55.0760   -2.2860 C.ar  349  PHE349     -0.0003
    101  CE2       -8.8490  -55.0190   -4.6900 C.ar  349  PHE349     -0.0003
    102  CZ        -9.0550  -54.4480   -3.4390 C.ar  349  PHE349     -0.0000
    103  N         -4.9840  -55.7760   -4.6170 N.am  350  TRP350     -0.1976
    104  CA        -4.7090  -54.7580   -5.6430 C.3   350  TRP350      0.1640
    105  C         -3.1950  -54.5270   -5.8840 C.2   350  TRP350      0.2290
    106  O         -2.8340  -53.7070   -6.7250 O.2   350  TRP350     -0.2864
    107  CB        -5.3620  -53.4360   -5.2470 C.3   350  TRP350      0.0576
    108  CG        -4.9380  -52.9650   -3.8840 C.ar  350  TRP350      0.0006
    109  CD1       -5.5300  -53.2660   -2.6940 C.ar  350  TRP350      0.0946
    110  CD2       -3.8210  -52.1240   -3.5660 C.ar  350  TRP350      0.0152
    111  NE1       -4.8690  -52.6520   -1.6610 N.ar  350  TRP350     -0.2442
    112  CE2       -3.8100  -51.9580   -2.1630 C.ar  350  TRP350      0.0810
    113  CE3       -2.8330  -51.4830   -4.3350 C.ar  350  TRP350      0.0012
    114  CZ2       -2.8430  -51.1870   -1.5030 C.ar  350  TRP350      0.0191
    115  CZ3       -1.8730  -50.7230   -3.6930 C.ar  350  TRP350      0.0001
    116  CH2       -1.8840  -50.5730   -2.2830 C.ar  350  TRP350      0.0015
    117  N         -4.4310  -50.9380    8.4710 N.3   435  GLU435     -0.1245
    118  CA        -4.5730  -50.7360    7.0210 C.3   435  GLU435      0.1567
    119  C         -6.0470  -50.6010    6.6210 C.2   435  GLU435      0.2260
    120  O         -6.5830  -51.3490    5.7950 O.2   435  GLU435     -0.2867
    121  CB        -3.8440  -51.8440    6.2430 C.3   435  GLU435      0.0388
    122  CG        -3.7540  -51.6760    4.7080 C.3   435  GLU435      0.1160
    123  CD        -3.3070  -50.3010    4.1930 C.2   435  GLU435      0.3649
    124  OE1       -2.4650  -49.6070    4.8460 O.co2 435  GLU435     -0.2457
    125  OE2       -3.8060  -49.9230    3.0890 O.co2 435  GLU435     -0.2457
@<TRIPOS>BOND
     1    83    84    2
     2    83    82    1
     3    81    82    1
     4    82    85    1
     5    85    86    1
     6    86    87   ar
     7    86    88   ar
     8    87    89   ar
     9    88    90   ar
    10    89    91   ar
    11    90    91   ar
    12    23    21   ar
    13    23    24   ar
    14    21    20   ar
    15    76    75    2
    16    26    24   ar
    17    26    28   ar
    18    24    22   ar
    19    75    74    1
    20    20    22   ar
    21    20    19    1
    22   106   105    2
    23    28    27   ar
    24    22    25   ar
    25    19    16    1
    26    95    94    2
    27   105   104    1
    28    74    73    1
    29    74    77    1
    30   104   107    1
    31   104   103    1
    32    27    25   ar
    33    49    47    1
    34   107   108    1
    35    16    15    1
    36    16    17    1
    37    79    78    2
    38    94   103   am
    39    94    93    1
    40    78    77    1
    41    78    80   am
    42    99   101   ar
    43    99    97   ar
    44   101   102   ar
    45    18    17    2
    46   113   115   ar
    47   113   110   ar
    48    17    29   am
    49    43    44    1
    50   108   110   ar
    51   108   109   ar
    52    47    44    1
    53    47    48    1
    54    93    96    1
    55    93    92    1
    56    96    97    1
    57   115   116   ar
    58    97    98   ar
    59    44    45    1
    60   110   112   ar
    61   102   100   ar
    62    42    40    1
    63    29    30    1
    64    35    36    1
    65   109   111   ar
    66    40    41    1
    67    40    39    1
    68    98   100   ar
    69   116   114   ar
    70    45    46    2
    71    30    31    1
    72    30    33    1
    73   112   111   ar
    74   112   114   ar
    75    36    39    1
    76    36    37    1
    77    34    33    1
    78    31    32    2
    79    37    38    2
    80    54    55    1
    81    54    51    1
    82    57    55   ar
    83    57    59   ar
    84    50    51    1
    85    55    56   ar
    86    59    60   ar
    87    56    58   ar
    88    60    58   ar
    89    60    61    1
    90    51    52    1
    91    71    69   ar
    92    71    72   ar
    93    69    67   ar
    94    12    14   ar
    95    12    10   ar
    96    72    70   ar
    97    62    52   am
    98    62    63    1
    99    52    53    2
   100    14    13   ar
   101    67    66    1
   102    67    68   ar
   103    66    63    1
   104     9    10   ar
   105     9     7   ar
   106    70    68   ar
   107    10     8   ar
   108    65    64    2
   109    63    64    1
   110   125   123   ar
   111    13    11   ar
   112     7     6   ar
   113     8    11   ar
   114     8     6   ar
   115   123   122    1
   116   123   124   ar
   117     6     5    1
   118   122   121    1
   119     5     2    1
   120   120   119    2
   121     1     2    1
   122     2     3    1
   123   121   118    1
   124   119   118    1
   125   118   117    1
   126     4     3    2
