@<TRIPOS>MOLECULE
tmp/4mdpA00.pdb
 102 103 0 0 0
SMALL
GASTEIGER

@<TRIPOS>ATOM
      1  N          7.7700   39.2200   -4.3930 N.3   169  TRP169     -0.1227
      2  CA         8.4450   40.2610   -5.1630 C.3   169  TRP169      0.1737
      3  C          9.1040   41.2560   -4.1990 C.2   169  TRP169      0.2595
      4  O         10.2450   41.6540   -4.4430 O.2   169  TRP169     -0.2718
      5  CB         7.5070   40.9820   -6.1570 C.3   169  TRP169      0.0564
      6  CG         8.1650   42.0320   -7.0160 C.ar  169  TRP169      0.0003
      7  CD1        8.6140   41.8730   -8.2970 C.ar  169  TRP169      0.0946
      8  CD2        8.4850   43.3920   -6.6570 C.ar  169  TRP169      0.0152
      9  NE1        9.1530   43.0550   -8.7690 N.ar  169  TRP169     -0.2442
     10  CE2        9.0590   44.0050   -7.7990 C.ar  169  TRP169      0.0810
     11  CE3        8.2840   44.1610   -5.5170 C.ar  169  TRP169      0.0012
     12  CZ2        9.4710   45.3240   -7.8140 C.ar  169  TRP169      0.0191
     13  CZ3        8.6990   45.4960   -5.5190 C.ar  169  TRP169      0.0001
     14  CH2        9.3440   46.0480   -6.6500 C.ar  169  TRP169      0.0015
     15  N          8.4340   41.6460   -3.1040 N.am  170  CYS170     -0.1970
     16  CA         9.0440   42.6170   -2.1580 C.3   170  CYS170      0.1712
     17  C         10.2850   42.0780   -1.4720 C.2   170  CYS170      0.2296
     18  O         11.3630   42.7550   -1.3900 O.2   170  CYS170     -0.2864
     19  CB         8.0380   43.1050   -1.1430 C.3   170  CYS170      0.0983
     20  SG         6.8580   44.2740   -1.9630 S.3   170  CYS170     -0.0798
     21  N         13.1460   44.2910   -2.9790 N.3   174  LEU174     -0.1245
     22  CA        13.4180   45.3120   -1.9890 C.3   174  LEU174      0.1561
     23  C         14.4240   44.8290   -0.8970 C.2   174  LEU174      0.2260
     24  O         15.2250   45.6350   -0.3810 O.2   174  LEU174     -0.2867
     25  CB        12.0990   45.8320   -1.4230 C.3   174  LEU174      0.0270
     26  CG        11.1360   46.4100   -2.4630 C.3   174  LEU174      0.0019
     27  CD1        9.8810   46.8910   -1.7480 C.3   174  LEU174      0.0001
     28  CD2       11.8100   47.5510   -3.2220 C.3   174  LEU174      0.0001
     29  N         17.5250   46.4930   -4.0270 N.3   178  THR178     -0.1218
     30  CA        17.7250   47.8640   -3.5770 C.3   178  THR178      0.1862
     31  C         18.1370   48.0300   -2.1010 C.2   178  THR178      0.2287
     32  O         18.5490   49.1130   -1.6800 O.2   178  THR178     -0.2866
     33  CB        16.4670   48.7180   -3.8650 C.3   178  THR178      0.1770
     34  OG1       15.4170   48.2880   -3.0320 O.3   178  THR178     -0.2211
     35  CG2       16.0110   48.5950   -5.3280 C.3   178  THR178      0.0375
     36  N         16.1280   48.2660    0.3310 N.3   180  TYR180     -0.1227
     37  CA        15.1550   49.1700    0.9470 C.3   180  TYR180      0.1736
     38  C         14.4400   48.4730    2.1040 C.2   180  TYR180      0.2595
     39  O         14.0510   49.1080    3.0680 O.2   180  TYR180     -0.2718
     40  CB        14.1620   49.6240   -0.1430 C.3   180  TYR180      0.0548
     41  CG        13.1010   50.6110    0.2650 C.ar  180  TYR180     -0.0200
     42  CD1       13.4360   51.9130    0.6460 C.ar  180  TYR180     -0.0009
     43  CD2       11.7350   50.2670    0.1930 C.ar  180  TYR180     -0.0009
     44  CE1       12.4300   52.8470    0.9880 C.ar  180  TYR180      0.0417
     45  CE2       10.7240   51.1910    0.5180 C.ar  180  TYR180      0.0417
     46  CZ        11.0720   52.4720    0.9110 C.ar  180  TYR180      0.1957
     47  OH        10.0680   53.3770    1.2640 O.3   180  TYR180     -0.2866
     48  N         14.2650   47.1670    2.0140 N.am  181  PHE181     -0.1976
     49  CA        13.6040   46.3680    3.0310 C.3   181  PHE181      0.1639
     50  C         14.5680   45.3520    3.5990 C.2   181  PHE181      0.2290
     51  O         15.5660   45.0220    2.9520 O.2   181  PHE181     -0.2864
     52  CB        12.4500   45.5570    2.3810 C.3   181  PHE181      0.0560
     53  CG        11.1610   46.3030    2.2090 C.ar  181  PHE181     -0.0200
     54  CD1       11.0370   47.6540    2.4620 C.ar  181  PHE181     -0.0042
     55  CD2       10.0560   45.6250    1.7320 C.ar  181  PHE181     -0.0042
     56  CE1        9.8250   48.3080    2.2970 C.ar  181  PHE181     -0.0003
     57  CE2        8.8500   46.2810    1.5420 C.ar  181  PHE181     -0.0003
     58  CZ         8.7260   47.6220    1.8430 C.ar  181  PHE181     -0.0000
     59  N          1.1100   45.7050  -10.0230 N.3   238  ASP238     -0.1239
     60  CA         0.3400   46.8420  -10.4700 C.3   238  ASP238      0.1674
     61  C          0.0180   46.8090  -11.9440 C.2   238  ASP238      0.2266
     62  O          0.6210   46.0790  -12.7130 O.2   238  ASP238     -0.2867
     63  CB         1.0180   48.1270  -10.0060 C.3   238  ASP238      0.1410
     64  CG         1.0780   48.2130   -8.4310 C.2   238  ASP238      0.3668
     65  OD1        0.0640   47.8710   -7.7000 O.co2 238  ASP238     -0.2456
     66  OD2        2.1870   48.6030   -7.9610 O.co2 238  ASP238     -0.2456
     67  N         15.4950   45.0710  -12.8600 N.3   326  PHE326     -0.1241
     68  CA        14.4470   44.0760  -12.5130 C.3   326  PHE326      0.1605
     69  C         13.0850   44.3600  -13.1860 C.2   326  PHE326      0.2264
     70  O         12.1770   43.5580  -13.1160 O.2   326  PHE326     -0.2867
     71  CB        14.2480   44.0240  -10.9810 C.3   326  PHE326      0.0534
     72  CG        13.9040   45.3490  -10.3550 C.ar  326  PHE326     -0.0203
     73  CD1       12.5930   45.7790  -10.2930 C.ar  326  PHE326     -0.0042
     74  CD2       14.8840   46.1310   -9.7780 C.ar  326  PHE326     -0.0042
     75  CE1       12.2640   47.0050   -9.7190 C.ar  326  PHE326     -0.0003
     76  CE2       14.5760   47.3640   -9.2020 C.ar  326  PHE326     -0.0003
     77  CZ        13.2590   47.8070   -9.1500 C.ar  326  PHE326     -0.0000
     78  N          4.8030   57.3330   -2.3600 N.3   349  PHE349     -0.1227
     79  CA         5.3210   57.8700   -3.6300 C.3   349  PHE349      0.1736
     80  C          4.9650   56.9890   -4.8020 C.2   349  PHE349      0.2595
     81  O          4.7830   57.4630   -5.9240 O.2   349  PHE349     -0.2718
     82  CB         6.8400   58.0440   -3.5520 C.3   349  PHE349      0.0547
     83  CG         7.6020   56.7430   -3.4650 C.ar  349  PHE349     -0.0202
     84  CD1        8.0030   56.0960   -4.6150 C.ar  349  PHE349     -0.0042
     85  CD2        7.9330   56.1840   -2.2260 C.ar  349  PHE349     -0.0042
     86  CE1        8.6990   54.8980   -4.5580 C.ar  349  PHE349     -0.0003
     87  CE2        8.6310   54.9740   -2.1530 C.ar  349  PHE349     -0.0003
     88  CZ         8.9970   54.3320   -3.3350 C.ar  349  PHE349     -0.0000
     89  N          4.8010   55.6980   -4.5270 N.am  350  TRP350     -0.1976
     90  CA         4.5490   54.6980   -5.5650 C.3   350  TRP350      0.1640
     91  C          3.0540   54.4320   -5.8400 C.2   350  TRP350      0.2290
     92  O          2.7550   53.6400   -6.7070 O.2   350  TRP350     -0.2864
     93  CB         5.2160   53.3620   -5.1930 C.3   350  TRP350      0.0576
     94  CG         4.7900   52.8870   -3.8260 C.ar  350  TRP350      0.0006
     95  CD1        5.3810   53.2060   -2.6640 C.ar  350  TRP350      0.0946
     96  CD2        3.6630   52.0440   -3.4810 C.ar  350  TRP350      0.0152
     97  NE1        4.7130   52.6290   -1.6000 N.ar  350  TRP350     -0.2442
     98  CE2        3.6600   51.9110   -2.0700 C.ar  350  TRP350      0.0810
     99  CE3        2.6560   51.4100   -4.2240 C.ar  350  TRP350      0.0012
    100  CZ2        2.6980   51.1730   -1.3780 C.ar  350  TRP350      0.0191
    101  CZ3        1.7000   50.6710   -3.5550 C.ar  350  TRP350      0.0001
    102  CH2        1.7300   50.5440   -2.1400 C.ar  350  TRP350      0.0015
@<TRIPOS>BOND
     1    69    70    2
     2    69    68    1
     3    67    68    1
     4    62    61    2
     5    68    71    1
     6    61    60    1
     7    71    72    1
     8    60    59    1
     9    60    63    1
    10    72    73   ar
    11    72    74   ar
    12    73    75   ar
    13    63    64    1
    14    74    76   ar
    15    75    77   ar
    16    76    77   ar
    17     9     7   ar
    18     9    10   ar
    19    64    66   ar
    20    64    65   ar
    21     7     6   ar
    22    12    10   ar
    23    12    14   ar
    24    10     8   ar
    25     6     8   ar
    26     6     5    1
    27    92    91    2
    28     8    11   ar
    29    14    13   ar
    30     5     2    1
    31    81    80    2
    32    91    90    1
    33    90    93    1
    34    90    89    1
    35    13    11   ar
    36    35    33    1
    37    93    94    1
    38     2     1    1
    39     2     3    1
    40    80    89   am
    41    80    79    1
    42    84    86   ar
    43    84    83   ar
    44    86    88   ar
    45     4     3    2
    46    99   101   ar
    47    99    96   ar
    48     3    15   am
    49    29    30    1
    50    33    30    1
    51    33    34    1
    52    94    96   ar
    53    94    95   ar
    54    79    82    1
    55    79    78    1
    56    30    31    1
    57   101   102   ar
    58    82    83    1
    59    96    98   ar
    60    83    85   ar
    61    88    87   ar
    62    28    26    1
    63    15    16    1
    64    21    22    1
    65    95    97   ar
    66    26    27    1
    67    26    25    1
    68    85    87   ar
    69    16    17    1
    70    16    19    1
    71   102   100   ar
    72    31    32    2
    73    98    97   ar
    74    98   100   ar
    75    22    25    1
    76    22    23    1
    77    20    19    1
    78    17    18    2
    79    23    24    2
    80    40    41    1
    81    40    37    1
    82    43    41   ar
    83    43    45   ar
    84    41    42   ar
    85    36    37    1
    86    45    46   ar
    87    42    44   ar
    88    46    44   ar
    89    46    47    1
    90    37    38    1
    91    57    55   ar
    92    57    58   ar
    93    55    53   ar
    94    58    56   ar
    95    48    38   am
    96    48    49    1
    97    38    39    2
    98    53    52    1
    99    53    54   ar
   100    56    54   ar
   101    52    49    1
   102    51    50    2
   103    49    50    1
