@<TRIPOS>MOLECULE
tmp/4mdqA00.pdb
 127 123 0 0 0
SMALL
GASTEIGER

@<TRIPOS>ATOM
      1  N          7.9040   19.2480    5.0300 N.3    30  LEU30      -0.1231
      2  CA         7.0830   19.8370    6.0790 C.3    30  LEU30       0.1693
      3  C          6.9790   21.3610    5.9230 C.2    30  LEU30       0.2592
      4  O          5.9090   21.9390    6.1270 O.2    30  LEU30      -0.2718
      5  CB         7.6500   19.4490    7.4440 C.3    30  LEU30       0.0284
      6  CG         6.7730   19.6870    8.6660 C.3    30  LEU30       0.0019
      7  CD1        5.5740   18.7520    8.7210 C.3    30  LEU30       0.0001
      8  CD2        7.6300   19.4940    9.8900 C.3    30  LEU30       0.0001
      9  N          8.0720   22.0150    5.5400 N.am   31  PHE31      -0.1976
     10  CA         8.0540   23.4640    5.3100 C.3    31  PHE31       0.1639
     11  C          7.0600   23.8480    4.2050 C.2    31  PHE31       0.2290
     12  O          6.2290   24.7500    4.3800 O.2    31  PHE31      -0.2864
     13  CB         9.4610   23.9940    4.9570 C.3    31  PHE31       0.0560
     14  CG         9.4430   25.3640    4.3600 C.ar   31  PHE31      -0.0200
     15  CD1        9.2370   26.4680    5.1640 C.ar   31  PHE31      -0.0042
     16  CD2        9.5760   25.5500    2.9950 C.ar   31  PHE31      -0.0042
     17  CE1        9.1680   27.7410    4.6260 C.ar   31  PHE31      -0.0003
     18  CE2        9.5190   26.8170    2.4400 C.ar   31  PHE31      -0.0003
     19  CZ         9.3200   27.9170    3.2600 C.ar   31  PHE31      -0.0000
     20  N          4.5970   22.0230    3.0020 N.3    33  LEU33      -0.1231
     21  CA         3.2560   21.6820    3.4460 C.3    33  LEU33       0.1693
     22  C          2.6790   22.8030    4.3070 C.2    33  LEU33       0.2592
     23  O          1.5330   23.1870    4.1230 O.2    33  LEU33      -0.2718
     24  CB         3.2340   20.3440    4.1970 C.3    33  LEU33       0.0284
     25  CG         3.2770   19.0950    3.3040 C.3    33  LEU33       0.0019
     26  CD1        3.5710   17.8520    4.0980 C.3    33  LEU33       0.0001
     27  CD2        1.9760   18.8980    2.5340 C.3    33  LEU33       0.0001
     28  N          3.4790   23.3330    5.2330 N.am   34  GLY34      -0.1957
     29  CA         3.0720   24.4770    6.0570 C.3    34  GLY34       0.1869
     30  C          2.6820   25.6810    5.2280 C.2    34  GLY34       0.2309
     31  O          1.6580   26.3000    5.4700 O.2    34  GLY34      -0.2863
     32  N         -0.6690   24.9990    3.6830 N.3    37  ILE37      -0.1231
     33  CA        -1.6990   25.1620    4.7100 C.3    37  ILE37       0.1692
     34  C         -1.9390   26.6390    5.0350 C.2    37  ILE37       0.2591
     35  O         -3.0780   27.0730    5.0980 O.2    37  ILE37      -0.2718
     36  CB        -1.3360   24.3730    5.9820 C.3    37  ILE37       0.0266
     37  CG1       -1.4580   22.8800    5.7190 C.3    37  ILE37       0.0019
     38  CG2       -2.2040   24.7920    7.1630 C.3    37  ILE37       0.0020
     39  CD1       -0.7050   22.0250    6.7150 C.3    37  ILE37       0.0001
     40  N         -0.8730   27.4180    5.1980 N.am   38  MET38      -0.1979
     41  CA        -1.0070   28.8510    5.4720 C.3    38  MET38       0.1605
     42  C         -1.6820   29.6140    4.3470 C.2    38  MET38       0.2287
     43  O         -2.6140   30.3720    4.5840 O.2    38  MET38      -0.2864
     44  CB         0.3640   29.5010    5.6750 C.3    38  MET38       0.0413
     45  CG         1.0940   29.0890    6.9390 C.3    38  MET38       0.0598
     46  SD         0.1840   29.5150    8.4120 S.3    38  MET38      -0.1393
     47  CE         0.3020   31.3060    8.3390 C.3    38  MET38       0.0692
     48  N         -6.0300   26.1580    8.1590 N.3    43  TYR43      -0.1241
     49  CA        -5.9590   26.0790    9.6170 C.3    43  TYR43       0.1605
     50  C         -7.1830   26.7980   10.2130 C.2    43  TYR43       0.2264
     51  O         -7.7060   27.7630    9.6410 O.2    43  TYR43      -0.2867
     52  CB        -4.6220   26.6620   10.1580 C.3    43  TYR43       0.0534
     53  CG        -4.4090   28.1360    9.8370 C.ar   43  TYR43      -0.0201
     54  CD1       -4.8300   29.1320   10.7190 C.ar   43  TYR43      -0.0009
     55  CD2       -3.8200   28.5350    8.6400 C.ar   43  TYR43      -0.0009
     56  CE1       -4.6640   30.4770   10.4200 C.ar   43  TYR43       0.0417
     57  CE2       -3.6440   29.8810    8.3370 C.ar   43  TYR43       0.0417
     58  CZ        -4.0670   30.8450    9.2290 C.ar   43  TYR43       0.1957
     59  OH        -3.8920   32.1780    8.9260 O.3    43  TYR43      -0.2866
     60  N         -5.5310   27.4600   15.7590 N.3    48  GLN48      -0.1245
     61  CA        -4.5530   27.3400   14.6680 C.3    48  GLN48       0.1566
     62  C         -3.7770   26.0080   14.5970 C.2    48  GLN48       0.2260
     63  O         -3.0390   25.7520   13.6250 O.2    48  GLN48      -0.2867
     64  CB        -3.5660   28.5020   14.7380 C.3    48  GLN48       0.0367
     65  CG        -4.1630   29.8870   14.4950 C.3    48  GLN48       0.0905
     66  CD        -3.1900   30.9990   14.8730 C.2    48  GLN48       0.2608
     67  OE1       -3.1050   32.0330   14.2130 O.2    48  GLN48      -0.2717
     68  NE2       -2.4340   30.7690   15.9370 N.am   48  GLN48      -0.0878
     69  N         -3.3800   12.5580    2.6420 N.3    62  PHE62      -0.1241
     70  CA        -3.1970   12.1610    4.0410 C.3    62  PHE62       0.1605
     71  C         -4.2060   11.1130    4.5100 C.2    62  PHE62       0.2264
     72  O         -3.9260   10.3810    5.4490 O.2    62  PHE62      -0.2867
     73  CB        -3.2770   13.3930    4.9670 C.3    62  PHE62       0.0534
     74  CG        -1.9770   14.1680    5.1100 C.ar   62  PHE62      -0.0203
     75  CD1       -0.8930   13.9550    4.2660 C.ar   62  PHE62      -0.0042
     76  CD2       -1.8600   15.1330    6.1040 C.ar   62  PHE62      -0.0042
     77  CE1        0.2760   14.6820    4.4180 C.ar   62  PHE62      -0.0003
     78  CE2       -0.6970   15.8640    6.2530 C.ar   62  PHE62      -0.0003
     79  CZ         0.3710   15.6360    5.4070 C.ar   62  PHE62      -0.0000
     80  N         -6.5570   17.2350   10.8470 N.3    67  PHE67      -0.1241
     81  CA        -5.5410   16.7660   11.8180 C.3    67  PHE67       0.1605
     82  C         -5.0680   17.9350   12.6600 C.2    67  PHE67       0.2264
     83  O         -5.3660   19.0970   12.3370 O.2    67  PHE67      -0.2867
     84  CB        -4.3440   16.0800   11.1210 C.3    67  PHE67       0.0534
     85  CG        -3.5910   16.9660   10.1620 C.ar   67  PHE67      -0.0203
     86  CD1       -2.4570   17.6550   10.5740 C.ar   67  PHE67      -0.0042
     87  CD2       -4.0020   17.0880    8.8330 C.ar   67  PHE67      -0.0042
     88  CE1       -1.7640   18.4690    9.6890 C.ar   67  PHE67      -0.0003
     89  CE2       -3.3050   17.8820    7.9440 C.ar   67  PHE67      -0.0003
     90  CZ        -2.1880   18.5810    8.3740 C.ar   67  PHE67      -0.0000
     91  N         -1.7160   19.9730   14.1440 N.3    69  VAL69      -0.1245
     92  CA        -0.2770   20.1240   13.8810 C.3    69  VAL69       0.1561
     93  C          0.5660   19.4520   14.9820 C.2    69  VAL69       0.2260
     94  O          1.7190   19.0800   14.7600 O.2    69  VAL69      -0.2867
     95  CB         0.1540   21.5910   13.6980 C.3    69  VAL69       0.0252
     96  CG1       -0.6040   22.2350   12.5400 C.3    69  VAL69       0.0019
     97  CG2       -0.0100   22.3800   14.9840 C.3    69  VAL69       0.0019
     98  N          2.7140   14.8520   15.6230 N.3    72  HIS72      -0.1241
     99  CA         3.9280   14.7830   14.8290 C.3    72  HIS72       0.1621
    100  C          4.1810   13.4190   14.2130 C.2    72  HIS72       0.2264
    101  O          4.4410   13.3350   13.0100 O.2    72  HIS72      -0.2867
    102  CB         5.1410   15.2150   15.6540 C.3    72  HIS72       0.0745
    103  CG         5.0460   16.6180   16.1630 C.ar   72  HIS72       0.0817
    104  ND1        5.8640   17.1110   17.1560 N.ar   72  HIS72      -0.2268
    105  CD2        4.2130   17.6270   15.8280 C.ar   72  HIS72       0.1154
    106  CE1        5.5540   18.3730   17.3940 C.ar   72  HIS72       0.1986
    107  NE2        4.5440   18.7070   16.6100 N.ar   72  HIS72      -0.2212
    108  N          1.6720   12.7760   11.3590 N.3    75  ILE75      -0.1231
    109  CA         2.0010   13.5910   10.1940 C.3    75  ILE75       0.1692
    110  C          3.1660   12.9740    9.4290 C.2    75  ILE75       0.2592
    111  O          3.0940   12.8230    8.2120 O.2    75  ILE75      -0.2718
    112  CB         2.3140   15.0480   10.5850 C.3    75  ILE75       0.0266
    113  CG1        1.0360   15.7380   11.0820 C.3    75  ILE75       0.0019
    114  CG2        2.8980   15.8030    9.3970 C.3    75  ILE75       0.0020
    115  CD1        1.2410   17.1000   11.7140 C.3    75  ILE75       0.0001
    116  N          4.2200   12.5920   10.1540 N.am   76  TYR76      -0.1976
    117  CA         5.3570   11.8890    9.5740 C.3    76  TYR76       0.1639
    118  C          4.9170   10.6440    8.8140 C.2    76  TYR76       0.2290
    119  O          5.4200   10.3810    7.7290 O.2    76  TYR76      -0.2864
    120  CB         6.3670   11.4950   10.6570 C.3    76  TYR76       0.0560
    121  CG         7.6910   10.9650   10.1180 C.ar   76  TYR76      -0.0198
    122  CD1        7.8750    9.6040    9.8590 C.ar   76  TYR76      -0.0009
    123  CD2        8.7680   11.8260    9.8850 C.ar   76  TYR76      -0.0009
    124  CE1        9.0860    9.1210    9.3700 C.ar   76  TYR76       0.0417
    125  CE2        9.9770   11.3550    9.4090 C.ar   76  TYR76       0.0417
    126  CZ        10.1320   10.0090    9.1470 C.ar   76  TYR76       0.1957
    127  OH        11.3450    9.5600    8.6690 O.3    76  TYR76      -0.2866
@<TRIPOS>BOND
     1    18    16   ar
     2    18    19   ar
     3    27    25    1
     4    69    70    1
     5    16    14   ar
     6    20    21    1
     7    19    17   ar
     8    25    26    1
     9    25    24    1
    10    21    24    1
    11    21    22    1
    12    32    33    1
    13    70    71    1
    14    70    73    1
    15    23    22    2
    16    11    12    2
    17    11    10    1
    18    75    77   ar
    19    75    74   ar
    20    22    28   am
    21    42    43    2
    22    42    41    1
    23    14    13    1
    24    14    15   ar
    25    77    79   ar
    26    71    72    2
    27    17    15   ar
    28    33    34    1
    29    33    36    1
    30    13    10    1
    31    73    74    1
    32     1     2    1
    33    34    35    2
    34    34    40   am
    35    74    76   ar
    36    40    41    1
    37    30    31    2
    38    30    29    1
    39    28    29    1
    40    10     9    1
    41    79    78   ar
    42    41    44    1
    43     9     3   am
    44    44    45    1
    45    37    36    1
    46    37    39    1
    47     3     2    1
    48     3     4    2
    49    36    38    1
    50     2     5    1
    51    76    78   ar
    52    45    46    1
    53     5     6    1
    54   119   118    2
    55    89    90   ar
    56    89    87   ar
    57    48    49    1
    58   111   110    2
    59    57    55   ar
    60    57    58   ar
    61    47    46    1
    62    90    88   ar
    63    55    53   ar
    64     6     7    1
    65     6     8    1
    66   127   126    1
    67   118   117    1
    68    87    85   ar
    69    59    58    1
    70   126   124   ar
    71   126   125   ar
    72    58    56   ar
    73   124   122   ar
    74   114   112    1
    75   125   123   ar
    76   110   116   am
    77   110   109    1
    78   117   116    1
    79   117   120    1
    80    49    52    1
    81    49    50    1
    82    51    50    2
    83    88    86   ar
    84    53    52    1
    85    53    54   ar
    86   122   121   ar
    87   123   121   ar
    88   121   120    1
    89    85    86   ar
    90    85    84    1
    91   109   112    1
    92   109   108    1
    93    56    54   ar
    94   112   113    1
    95    80    81    1
    96   113   115    1
    97    84    81    1
    98    81    82    1
    99    83    82    2
   100    96    95    1
   101   101   100    2
   102    63    62    2
   103    95    92    1
   104    95    97    1
   105    92    91    1
   106    92    93    1
   107    67    66    2
   108   100    99    1
   109    65    64    1
   110    65    66    1
   111    62    61    1
   112    61    64    1
   113    61    60    1
   114    94    93    2
   115    99    98    1
   116    99   102    1
   117    66    68   am
   118   102   103    1
   119   105   103   ar
   120   105   107   ar
   121   103   104   ar
   122   107   106   ar
   123   104   106   ar
