@<TRIPOS>MOLECULE
tmp/4mdsA00.pdb
 179 175 0 0 0
SMALL
GASTEIGER

@<TRIPOS>ATOM
      1  N        -17.6640    3.4350  -28.9620 N.3    25  THR25      -0.1218
      2  CA       -16.6110    4.2510  -28.3510 C.3    25  THR25       0.1862
      3  C        -15.3630    3.4350  -28.1530 C.2    25  THR25       0.2287
      4  O        -15.4210    2.3620  -27.5650 O.2    25  THR25      -0.2866
      5  CB       -17.0230    4.7950  -26.9740 C.3    25  THR25       0.1770
      6  OG1      -18.1300    5.6900  -27.1430 O.3    25  THR25      -0.2211
      7  CG2      -15.8590    5.5700  -26.3190 C.3    25  THR25       0.0375
      8  N        -16.2790    6.8200  -18.3880 N.3    41  HIS41      -0.1241
      9  CA       -17.1580    7.3610  -19.4140 C.3    41  HIS41       0.1621
     10  C        -17.1590    6.5110  -20.7170 C.2    41  HIS41       0.2264
     11  O        -18.0050    6.7170  -21.5950 O.2    41  HIS41      -0.2867
     12  CB       -16.9550    8.8850  -19.6180 C.3    41  HIS41       0.0745
     13  CG       -15.7290    9.2630  -20.3960 C.ar   41  HIS41       0.0817
     14  ND1      -14.7840   10.1490  -19.9150 N.ar   41  HIS41      -0.2268
     15  CD2      -15.3380    8.9400  -21.6510 C.ar   41  HIS41       0.1154
     16  CE1      -13.8540   10.3400  -20.8340 C.ar   41  HIS41       0.1986
     17  NE2      -14.1620    9.6090  -21.8950 N.ar   41  HIS41      -0.2212
     18  N        -20.6070    5.1670  -21.6970 N.3    44  CYS44      -0.1221
     19  CA       -21.7020    6.1120  -21.9380 C.3    44  CYS44       0.1808
     20  C        -22.0480    6.3160  -23.3970 C.2    44  CYS44       0.2602
     21  O        -21.1600    6.4320  -24.2230 O.2    44  CYS44      -0.2717
     22  CB       -21.3540    7.4700  -21.3550 C.3    44  CYS44       0.0970
     23  SG       -21.3820    7.4380  -19.5510 S.3    44  CYS44      -0.0800
     24  N        -23.3400    6.4020  -23.7030 N.am   45  THR45      -0.1939
     25  CA       -23.7830    6.9690  -24.9870 C.3    45  THR45       0.2028
     26  C        -23.5650    8.4880  -24.9030 C.2    45  THR45       0.2642
     27  O        -23.3560    9.0060  -23.8300 O.2    45  THR45      -0.2714
     28  CB       -25.2750    6.6970  -25.2540 C.3    45  THR45       0.1808
     29  OG1      -26.0790    7.3200  -24.2380 O.3    45  THR45      -0.2208
     30  CG2      -25.5610    5.2220  -25.2510 C.3    45  THR45       0.0379
     31  N        -23.6570    9.2020  -26.0270 N.am   46  ALA46      -0.1977
     32  CA       -23.6360   10.6700  -25.9920 C.3    46  ALA46       0.1597
     33  C        -24.7290   11.2200  -25.0660 C.2    46  ALA46       0.2287
     34  O        -24.4880   12.1730  -24.3110 O.2    46  ALA46      -0.2864
     35  CB       -23.7920   11.2470  -27.3990 C.3    46  ALA46       0.0319
     36  N        -24.0240   11.0800  -21.2730 N.3    49  MET49      -0.1230
     37  CA       -23.0630   12.0750  -20.7740 C.3    49  MET49       0.1702
     38  C        -23.7240   13.2740  -20.0970 C.2    49  MET49       0.2592
     39  O        -23.0790   13.9740  -19.2960 O.2    49  MET49      -0.2718
     40  CB       -22.1510   12.5830  -21.9000 C.3    49  MET49       0.0401
     41  CG       -21.1220   11.5660  -22.4010 C.3    49  MET49       0.0596
     42  SD       -20.1150   10.7050  -21.1490 S.3    49  MET49      -0.1393
     43  CE       -19.2710   12.0660  -20.3390 C.3    49  MET49       0.0692
     44  N        -24.9970   13.5160  -20.4220 N.am   50  LEU50      -0.1980
     45  CA       -25.7120   14.6860  -19.8870 C.3    50  LEU50       0.1596
     46  C        -26.1050   14.5110  -18.4160 C.2    50  LEU50       0.2287
     47  O        -26.1370   15.4860  -17.6710 O.2    50  LEU50      -0.2864
     48  CB       -26.9390   15.0750  -20.7460 C.3    50  LEU50       0.0297
     49  CG       -27.0570   14.7340  -22.2520 C.3    50  LEU50       0.0022
     50  CD1      -28.2750   15.3790  -22.9260 C.3    50  LEU50       0.0001
     51  CD2      -25.7850   14.9280  -23.1110 C.3    50  LEU50       0.0001
     52  N         -3.9350   17.0610  -26.6290 N.3   140  PHE140     -0.1227
     53  CA        -4.8070   15.8750  -26.7060 C.3   140  PHE140      0.1736
     54  C         -5.9040   16.1190  -27.7070 C.2   140  PHE140      0.2595
     55  O         -6.4900   17.2120  -27.7600 O.2   140  PHE140     -0.2718
     56  CB        -5.4980   15.6290  -25.3640 C.3   140  PHE140      0.0547
     57  CG        -4.6100   15.1150  -24.2670 C.ar  140  PHE140     -0.0202
     58  CD1       -4.3760   15.8810  -23.1360 C.ar  140  PHE140     -0.0042
     59  CD2       -4.0710   13.8360  -24.3200 C.ar  140  PHE140     -0.0042
     60  CE1       -3.6050   15.4030  -22.0790 C.ar  140  PHE140     -0.0003
     61  CE2       -3.3040   13.3430  -23.2330 C.ar  140  PHE140     -0.0003
     62  CZ        -3.0930   14.1420  -22.1230 C.ar  140  PHE140     -0.0000
     63  N         -6.1800   15.1070  -28.5250 N.am  141  LEU141     -0.1966
     64  CA        -7.3150   15.1570  -29.4140 C.3   141  LEU141      0.1728
     65  C         -8.3590   14.1350  -29.0030 C.2   141  LEU141      0.2616
     66  O         -8.1150   13.3100  -28.1260 O.2   141  LEU141     -0.2715
     67  CB        -6.8500   14.8230  -30.8250 C.3   141  LEU141      0.0311
     68  CG        -6.2090   15.7980  -31.8110 C.3   141  LEU141      0.0022
     69  CD1       -5.9880   17.2010  -31.3560 C.3   141  LEU141      0.0001
     70  CD2       -4.9860   15.1840  -32.5120 C.3   141  LEU141      0.0001
     71  N         -9.5170   14.1630  -29.6560 N.am  142  ASN142     -0.1972
     72  CA       -10.5130   13.1410  -29.3530 C.3   142  ASN142      0.1688
     73  C         -9.9150   11.7710  -29.6080 C.2   142  ASN142      0.2292
     74  O         -9.1860   11.5710  -30.5870 O.2   142  ASN142     -0.2864
     75  CB       -11.7720   13.3080  -30.1910 C.3   142  ASN142      0.1181
     76  CG       -12.8960   12.4180  -29.7050 C.2   142  ASN142      0.2629
     77  OD1      -13.0690   12.2290  -28.4870 O.2   142  ASN142     -0.2716
     78  ND2      -13.6540   11.8510  -30.6450 N.am  142  ASN142     -0.0877
     79  N         -8.0290   10.4270  -27.1650 N.3   144  SER144     -0.1202
     80  CA        -6.8710   10.3620  -26.2600 C.3   144  SER144      0.2020
     81  C         -7.2170    9.9450  -24.8190 C.2   144  SER144      0.2619
     82  O         -6.3090    9.7120  -24.0250 O.2   144  SER144     -0.2717
     83  CB        -6.1350   11.7050  -26.2110 C.3   144  SER144      0.2103
     84  OG        -7.0460   12.6790  -25.7280 O.3   144  SER144     -0.2182
     85  N         -8.5020    9.8810  -24.4770 N.am  145  CYS145     -0.1969
     86  CA        -8.8880    9.5160  -23.1140 C.3   145  CYS145      0.1712
     87  C         -8.2440    8.2020  -22.7220 C.2   145  CYS145      0.2296
     88  O         -8.1180    7.2830  -23.5440 O.2   145  CYS145     -0.2864
     89  CB       -10.4060    9.4580  -22.9680 C.3   145  CYS145      0.0983
     90  SG       -11.1190   11.0650  -23.3240 S.3   145  CYS145     -0.0798
     91  N         -6.0340   10.5360  -18.4400 N.3   163  HIS163     -0.1226
     92  CA        -6.7560   11.6100  -19.0970 C.3   163  HIS163      0.1752
     93  C         -8.2470   11.3180  -19.2740 C.2   163  HIS163      0.2596
     94  O         -8.6160   10.2680  -19.8180 O.2   163  HIS163     -0.2718
     95  CB        -6.1370   11.8660  -20.4720 C.3   163  HIS163      0.0759
     96  CG        -6.7850   13.0050  -21.1690 C.ar  163  HIS163      0.0818
     97  ND1       -6.8670   14.2620  -20.6030 N.ar  163  HIS163     -0.2268
     98  CD2       -7.4270   13.0720  -22.3530 C.ar  163  HIS163      0.1154
     99  CE1       -7.5200   15.0670  -21.4310 C.ar  163  HIS163      0.1986
    100  NE2       -7.8730   14.3690  -22.4970 N.ar  163  HIS163     -0.2212
    101  N         -9.1070   12.2830  -18.8960 N.am  164  HIS164     -0.1961
    102  CA       -10.5570   12.1160  -19.0660 C.3   164  HIS164      0.1787
    103  C        -11.2420   13.1160  -19.9930 C.2   164  HIS164      0.2620
    104  O        -12.2080   12.7660  -20.6600 O.2   164  HIS164     -0.2715
    105  CB       -11.2890   12.2020  -17.7190 C.3   164  HIS164      0.0785
    106  CG       -11.1910   10.9800  -16.8720 C.ar  164  HIS164      0.0821
    107  ND1      -10.0140   10.5260  -16.2930 N.ar  164  HIS164     -0.2267
    108  CD2      -12.1620   10.1260  -16.4790 C.ar  164  HIS164      0.1154
    109  CE1      -10.2860    9.4500  -15.5630 C.ar  164  HIS164      0.1986
    110  NE2      -11.5740    9.1810  -15.6710 N.ar  164  HIS164     -0.2212
    111  N        -10.7890   14.3720  -20.0140 N.am  165  MET165     -0.1963
    112  CA       -11.5460   15.3750  -20.7790 C.3   165  MET165      0.1736
    113  C        -10.7750   16.6340  -21.0580 C.2   165  MET165      0.2616
    114  O         -9.7910   16.9240  -20.3940 O.2   165  MET165     -0.2715
    115  CB       -12.8250   15.7740  -20.0330 C.3   165  MET165      0.0427
    116  CG       -12.5910   16.3920  -18.7080 C.3   165  MET165      0.0599
    117  SD       -14.1370   16.2730  -17.7770 S.3   165  MET165     -0.1393
    118  CE       -13.6710   17.1540  -16.3170 C.3   165  MET165      0.0692
    119  N        -11.2380   17.3590  -22.0650 N.am  166  GLU166     -0.1963
    120  CA       -10.7710   18.7100  -22.3450 C.3   166  GLU166      0.1733
    121  C        -11.8440   19.6830  -21.8580 C.2   166  GLU166      0.2616
    122  O        -13.0470   19.3860  -21.9150 O.2   166  GLU166     -0.2715
    123  CB       -10.5720   18.8800  -23.8400 C.3   166  GLU166      0.0429
    124  CG       -10.0080   20.2540  -24.2140 C.3   166  GLU166      0.1163
    125  CD        -9.4870   20.3020  -25.6430 C.2   166  GLU166      0.3649
    126  OE1      -10.0520   21.0450  -26.4650 O.co2 166  GLU166     -0.2457
    127  OE2       -8.4830   19.6190  -25.9570 O.co2 166  GLU166     -0.2457
    128  N        -11.4030   20.8300  -21.3450 N.am  167  LEU167     -0.1964
    129  CA       -12.3110   21.8710  -20.8630 C.3   167  LEU167      0.1713
    130  C        -12.5230   22.9210  -21.9500 C.2   167  LEU167      0.2458
    131  O        -11.7970   22.9420  -22.9400 O.2   167  LEU167     -0.2730
    132  CB       -11.7360   22.4990  -19.5880 C.3   167  LEU167      0.0310
    133  CG       -11.7520   21.5460  -18.3770 C.3   167  LEU167      0.0022
    134  CD1      -10.8640   22.1500  -17.2780 C.3   167  LEU167      0.0001
    135  CD2      -13.1890   21.3140  -17.8650 C.3   167  LEU167      0.0001
    136  N        -13.5280   23.8010  -21.7970 N.am  168  PRO168     -0.2727
    137  CA       -13.7590   24.7740  -22.8760 C.3   168  PRO168      0.1402
    138  C        -12.5900   25.6620  -23.2940 C.2   168  PRO168      0.2269
    139  O        -12.5680   26.0850  -24.4660 O.2   168  PRO168     -0.2865
    140  CB       -14.9100   25.6230  -22.3320 C.3   168  PRO168      0.0296
    141  CG       -15.6890   24.6290  -21.5110 C.3   168  PRO168      0.0237
    142  CD       -14.5750   23.8930  -20.7600 C.3   168  PRO168      0.0939
    143  N        -17.0100   14.0090  -14.5070 N.3   187  ASP187     -0.1225
    144  CA       -17.0930   13.3580  -15.8160 C.3   187  ASP187      0.1805
    145  C        -18.5340   13.3320  -16.3630 C.2   187  ASP187      0.2598
    146  O        -19.1390   12.2670  -16.5970 O.2   187  ASP187     -0.2718
    147  CB       -16.4100   11.9700  -15.8320 C.3   187  ASP187      0.1424
    148  CG       -16.8890   11.0370  -14.7320 C.2   187  ASP187      0.3668
    149  OD1      -17.6630   11.4550  -13.8360 O.co2 187  ASP187     -0.2456
    150  OD2      -16.4640    9.8550  -14.7720 O.co2 187  ASP187     -0.2456
    151  N        -19.0720   14.5190  -16.5900 N.am  188  ARG188     -0.1966
    152  CA       -20.3970   14.6370  -17.1810 C.3   188  ARG188      0.1729
    153  C        -20.4930   16.0270  -17.7910 C.2   188  ARG188      0.2616
    154  O        -19.6330   16.8690  -17.5330 O.2   188  ARG188     -0.2715
    155  CB       -21.4920   14.3550  -16.1460 C.3   188  ARG188      0.0348
    156  CG       -21.4980   15.2750  -14.9680 C.3   188  ARG188      0.0492
    157  CD       -22.6100   14.8790  -14.0150 C.3   188  ARG188      0.2205
    158  NE       -22.6590   15.7860  -12.8720 N.pl3 188  ARG188     -0.0865
    159  CZ       -21.9470   15.6260  -11.7610 C.cat 188  ARG188      0.5346
    160  NH1      -22.0640   16.5080  -10.7750 N.pl3 188  ARG188      0.1354
    161  NH2      -21.1170   14.5900  -11.6390 N.pl3 188  ARG188      0.1354
    162  N        -21.4970   16.2310  -18.6360 N.am  189  GLN189     -0.1977
    163  CA       -21.6660   17.4890  -19.3580 C.3   189  GLN189      0.1601
    164  C        -22.2120   18.5890  -18.4440 C.2   189  GLN189      0.2287
    165  O        -23.3870   18.5600  -18.0410 O.2   189  GLN189     -0.2864
    166  CB       -22.6020   17.2520  -20.5520 C.3   189  GLN189      0.0394
    167  CG       -22.6840   18.3980  -21.5710 C.3   189  GLN189      0.0908
    168  CD       -23.9670   18.3520  -22.3920 C.2   189  GLN189      0.2608
    169  OE1      -24.9650   17.7440  -21.9800 O.2   189  GLN189     -0.2717
    170  NE2      -23.9590   19.0090  -23.5590 N.am  189  GLN189     -0.0878
    171  N        -18.7770   23.5400  -16.2920 N.3   192  GLN192     -0.1245
    172  CA       -17.5360   23.6370  -15.5130 C.3   192  GLN192      0.1566
    173  C        -16.4120   24.3130  -16.3200 C.2   192  GLN192      0.2260
    174  O        -16.3080   24.1400  -17.5420 O.2   192  GLN192     -0.2867
    175  CB       -17.0940   22.2540  -15.0010 C.3   192  GLN192      0.0367
    176  CG       -16.8140   21.2230  -16.1140 C.3   192  GLN192      0.0905
    177  CD       -16.8030   19.7740  -15.6390 C.2   192  GLN192      0.2608
    178  OE1      -17.2950   18.8720  -16.3380 O.2   192  GLN192     -0.2717
    179  NE2      -16.2520   19.5400  -14.4620 N.am  192  GLN192     -0.0878
@<TRIPOS>BOND
     1    70    68    1
     2    68    69    1
     3    68    67    1
     4    67    64    1
     5    78    76   am
     6    74    73    2
     7    75    76    1
     8    75    72    1
     9    76    77    2
    10    71    72    1
    11    71    65   am
    12    73    72    1
    13    64    65    1
    14    64    63    1
    15    65    66    2
    16     1     2    1
    17    63    54   am
    18     2     3    1
    19     2     5    1
    20     3     4    2
    21    55    54    2
    22    54    53    1
    23    35    32    1
    24    79    80    1
    25     6     5    1
    26     5     7    1
    27    53    52    1
    28    53    56    1
    29   126   125   ar
    30    80    83    1
    31    80    81    1
    32    83    84    1
    33    31    32    1
    34    31    26   am
    35    32    33    1
    36   127   125   ar
    37   125   124    1
    38    56    57    1
    39    28    30    1
    40    28    25    1
    41    28    29    1
    42    33    34    2
    43    25    26    1
    44    25    24    1
    45    26    27    2
    46    81    85   am
    47    81    82    2
    48    85    86    1
    49   139   138    2
    50    59    57   ar
    51    59    61   ar
    52    57    58   ar
    53    21    20    2
    54   124   123    1
    55   123   120    1
    56    24    20   am
    57   170   168   am
    58    88    87    2
    59    20    19    1
    60    90    89    1
    61   138   137    1
    62    61    62   ar
    63    58    60   ar
    64    86    89    1
    65    86    87    1
    66    51    49    1
    67   131   130    2
    68    50    49    1
    69   137   140    1
    70   137   136    1
    71   100    98   ar
    72   100    99   ar
    73    41    40    1
    74    41    42    1
    75   168   169    2
    76   168   167    1
    77    98    96   ar
    78   120   119    1
    79   120   121    1
    80   140   141    1
    81    49    48    1
    82    62    60   ar
    83   119   113   am
    84   130   136   am
    85   130   129    1
    86    19    18    1
    87    19    22    1
    88   122   121    2
    89    40    37    1
    90    17    15   ar
    91    17    16   ar
    92   121   128   am
    93   136   142    1
    94    15    13   ar
    95    11    10    2
    96   167   166    1
    97   141   142    1
    98    99    97   ar
    99    22    23    1
   100   128   129    1
   101    36    37    1
   102    96    97   ar
   103    96    95    1
   104    42    43    1
   105   113   112    1
   106   113   114    2
   107   129   132    1
   108    16    14   ar
   109   112   115    1
   110   112   111    1
   111    37    38    1
   112    48    45    1
   113    10     9    1
   114   104   103    2
   115   166   163    1
   116    95    92    1
   117    44    38   am
   118    44    45    1
   119    13    14   ar
   120    13    12    1
   121    38    39    2
   122   115   116    1
   123   111   103   am
   124   103   102    1
   125    45    46    1
   126    94    93    2
   127    12     9    1
   128   132   133    1
   129     9     8    1
   130   163   162    1
   131   163   164    1
   132    93    92    1
   133    93   101   am
   134    92    91    1
   135   102   101    1
   136   102   105    1
   137   116   117    1
   138   162   153   am
   139   164   165    2
   140    46    47    2
   141   133   135    1
   142   133   134    1
   143   153   154    2
   144   153   152    1
   145   117   118    1
   146   105   106    1
   147   174   173    2
   148   152   151    1
   149   152   155    1
   150   106   108   ar
   151   106   107   ar
   152   146   145    2
   153   151   145   am
   154   108   110   ar
   155   145   144    1
   156   178   177    2
   157   173   172    1
   158   107   109   ar
   159   171   172    1
   160   155   156    1
   161   176   177    1
   162   176   175    1
   163   147   144    1
   164   147   148    1
   165   144   143    1
   166   110   109   ar
   167   177   179   am
   168   172   175    1
   169   156   157    1
   170   150   148   ar
   171   148   149   ar
   172   157   158    1
   173   158   159    2
   174   159   161    1
   175   159   160    1
