@<TRIPOS>MOLECULE
tmp/4mdzB01.pdb
 237 228 0 0 0
SMALL
GASTEIGER

@<TRIPOS>ATOM
      1  N         23.5440   21.2040   13.2070 N.3   186  ASP186     -0.1239
      2  CA        24.6570   21.8170   13.9170 C.3   186  ASP186      0.1674
      3  C         25.2390   20.8040   14.8940 C.2   186  ASP186      0.2266
      4  O         24.4980   20.1770   15.6410 O.2   186  ASP186     -0.2867
      5  CB        24.2150   23.0790   14.6490 C.3   186  ASP186      0.1410
      6  CG        25.3730   24.0280   14.9160 C.2   186  ASP186      0.3668
      7  OD1       26.4080   23.5860   15.4570 O.co2 186  ASP186     -0.2456
      8  OD2       25.2550   25.2230   14.5910 O.co2 186  ASP186     -0.2456
      9  N         27.0030   21.2270   17.7170 N.3   188  GLU188     -0.1245
     10  CA        26.8790   21.6710   19.1390 C.3   188  GLU188      0.1567
     11  C         26.0980   20.7110   20.0160 C.2   188  GLU188      0.2260
     12  O         24.9410   20.4590   19.7290 O.2   188  GLU188     -0.2867
     13  CB        26.1500   23.0190   19.2190 C.3   188  GLU188      0.0388
     14  CG        26.9630   24.2390   18.7860 C.3   188  GLU188      0.1160
     15  CD        26.2600   25.5770   19.0710 C.2   188  GLU188      0.3649
     16  OE1       25.0150   25.5940   19.2570 O.co2 188  GLU188     -0.2457
     17  OE2       26.9540   26.6250   19.1150 O.co2 188  GLU188     -0.2457
     18  N         26.9370   21.9340   25.5590 N.3   192  HIS192     -0.1241
     19  CA        27.4400   23.2780   25.2300 C.3   192  HIS192      0.1621
     20  C         26.4410   24.3430   25.6640 C.2   192  HIS192      0.2264
     21  O         26.8070   25.2920   26.3770 O.2   192  HIS192     -0.2867
     22  CB        27.8560   23.4650   23.7620 C.3   192  HIS192      0.0745
     23  CG        28.0320   24.9320   23.3690 C.ar  192  HIS192      0.0817
     24  ND1       29.1410   25.6420   23.6700 N.ar  192  HIS192     -0.2268
     25  CD2       27.1720   25.8250   22.7200 C.ar  192  HIS192      0.1154
     26  CE1       29.0170   26.9140   23.2140 C.ar  192  HIS192      0.1986
     27  NE2       27.8080   27.0300   22.6360 N.ar  192  HIS192     -0.2212
     28  N         22.6310   31.3000   20.5260 N.3   225  ASP225     -0.1239
     29  CA        22.7610   30.9210   19.1150 C.3   225  ASP225      0.1674
     30  C         21.4260   30.5270   18.4470 C.2   225  ASP225      0.2266
     31  O         21.4310   29.8320   17.4120 O.2   225  ASP225     -0.2867
     32  CB        23.7740   29.7770   18.9240 C.3   225  ASP225      0.1410
     33  CG        25.2350   30.2580   18.7440 C.2   225  ASP225      0.3668
     34  OD1       26.1080   29.3810   18.7390 O.co2 225  ASP225     -0.2456
     35  OD2       25.5260   31.4670   18.6100 O.co2 225  ASP225     -0.2456
     36  N         20.5300   30.7570   14.5540 N.3   228  LYS228     -0.1245
     37  CA        20.9630   29.7330   13.6200 C.3   228  LYS228      0.1561
     38  C         19.8160   29.0280   12.9010 C.2   228  LYS228      0.2260
     39  O         19.9890   28.6150   11.7610 O.2   228  LYS228     -0.2867
     40  CB        21.9100   28.7500   14.2820 C.3   228  LYS228      0.0271
     41  CG        23.3010   29.3350   14.5380 C.3   228  LYS228      0.0035
     42  CD        24.2700   28.2330   14.9520 C.3   228  LYS228      0.0206
     43  CE        25.5610   28.7490   15.5770 C.3   228  LYS228      0.1093
     44  NZ        26.6260   27.7030   15.7540 N.3   228  LYS228     -0.1314
     45  N         24.9280   26.6720    6.7460 N.3   236  LEU236     -0.1245
     46  CA        25.0990   26.1000    8.0840 C.3   236  LEU236      0.1561
     47  C         25.7080   24.6930    8.0970 C.2   236  LEU236      0.2260
     48  O         26.2830   24.2600    9.0990 O.2   236  LEU236     -0.2867
     49  CB        23.7590   26.0860    8.8220 C.3   236  LEU236      0.0270
     50  CG        23.7470   25.8270   10.3200 C.3   236  LEU236      0.0019
     51  CD1       24.8310   26.6140   11.0390 C.3   236  LEU236      0.0001
     52  CD2       22.3830   26.2180   10.8170 C.3   236  LEU236      0.0001
     53  N         27.8380   23.5130    5.6390 N.3   238  LYS238     -0.1231
     54  CA        29.0570   23.3750    4.8280 C.3   238  LYS238      0.1678
     55  C         30.2830   23.2260    5.7240 C.2   238  LYS238      0.2434
     56  O         30.5400   24.1110    6.5500 O.2   238  LYS238     -0.2733
     57  CB        29.2450   24.5420    3.8540 C.3   238  LYS238      0.0284
     58  CG        29.8580   24.1320    2.5160 C.3   238  LYS238      0.0035
     59  CD        30.2370   25.3490    1.6870 C.3   238  LYS238      0.0206
     60  CE        31.0390   26.3350    2.5270 C.3   238  LYS238      0.1093
     61  NZ        31.9590   27.1680    1.7030 N.3   238  LYS238     -0.1314
     62  N         31.0380   22.0960    5.5730 N.am  239  PRO239     -0.2718
     63  CA        32.1810   21.8960    6.4770 C.3   239  PRO239      0.1535
     64  C         33.4000   22.6940    5.9730 C.2   239  PRO239      0.2599
     65  O         33.5290   22.9550    4.7620 O.2   239  PRO239     -0.2715
     66  CB        32.4060   20.3660    6.4420 C.3   239  PRO239      0.0310
     67  CG        31.6840   19.8670    5.2100 C.3   239  PRO239      0.0237
     68  CD        30.9900   21.0340    4.5370 C.3   239  PRO239      0.0939
     69  N         34.2570   23.1180    6.8950 N.am  240  GLY240     -0.1941
     70  CA        35.4330   23.8870    6.5210 C.3   240  GLY240      0.2014
     71  C         35.1380   25.3490    6.2560 C.2   240  GLY240      0.2639
     72  O         34.2220   25.9230    6.8100 O.2   240  GLY240     -0.2714
     73  N         35.9160   25.9460    5.3790 N.am  241  LYS241     -0.1963
     74  CA        35.9540   27.3900    5.2280 C.3   241  LYS241      0.1728
     75  C         34.7360   27.9490    4.4960 C.2   241  LYS241      0.2616
     76  O         34.1100   27.2750    3.6770 O.2   241  LYS241     -0.2715
     77  CB        37.2630   27.7880    4.5110 C.3   241  LYS241      0.0311
     78  CG        38.4990   27.0190    4.9950 C.3   241  LYS241      0.0038
     79  CD        38.6920   27.1290    6.5180 C.3   241  LYS241      0.0206
     80  CE        39.8150   26.2490    7.0680 C.3   241  LYS241      0.1093
     81  NZ        40.0660   26.6430    8.4830 N.3   241  LYS241     -0.1314
     82  N         34.4150   29.1950    4.7950 N.am  242  LEU242     -0.1977
     83  CA        33.2980   29.8620    4.1660 C.3   242  LEU242      0.1596
     84  C         33.8000   31.0050    3.3170 C.2   242  LEU242      0.2287
     85  O         34.6660   31.7490    3.7420 O.2   242  LEU242     -0.2864
     86  CB        32.3600   30.4230    5.2470 C.3   242  LEU242      0.0297
     87  CG        31.2480   29.6250    5.9670 C.3   242  LEU242      0.0022
     88  CD1       30.0230   29.4660    5.0910 C.3   242  LEU242      0.0001
     89  CD2       31.6800   28.2630    6.4950 C.3   242  LEU242      0.0001
     90  N         29.8770   33.7210    4.9240 N.3   247  TRP247     -0.1241
     91  CA        30.1850   34.3050    6.2300 C.3   247  TRP247      0.1605
     92  C         29.2720   35.4870    6.5840 C.2   247  TRP247      0.2264
     93  O         28.7720   35.5770    7.6950 O.2   247  TRP247     -0.2867
     94  CB        31.6780   34.6830    6.2660 C.3   247  TRP247      0.0550
     95  CG        32.1630   35.2410    7.5830 C.ar  247  TRP247      0.0003
     96  CD1       32.6180   36.5410    7.8510 C.ar  247  TRP247      0.0946
     97  CD2       32.2370   34.5340    8.8660 C.ar  247  TRP247      0.0152
     98  NE1       32.9540   36.6770    9.1760 N.ar  247  TRP247     -0.2442
     99  CE2       32.7500   35.5100    9.8450 C.ar  247  TRP247      0.0810
    100  CE3       31.9370   33.2380    9.2900 C.ar  247  TRP247      0.0012
    101  CZ2       32.9460   35.1750   11.1890 C.ar  247  TRP247      0.0191
    102  CZ3       32.1270   32.9110   10.6450 C.ar  247  TRP247      0.0001
    103  CH2       32.6200   33.8580   11.5720 C.ar  247  TRP247      0.0015
    104  N         26.2620   33.9270    7.6870 N.3   250  MET250     -0.1245
    105  CA        26.4500   33.2340    8.9620 C.3   250  MET250      0.1570
    106  C         26.4860   34.1720   10.1650 C.2   250  MET250      0.2261
    107  O         25.9110   33.8520   11.2110 O.2   250  MET250     -0.2867
    108  CB        27.6730   32.3290    8.9610 C.3   250  MET250      0.0387
    109  CG        27.8700   31.6130   10.2930 C.3   250  MET250      0.0595
    110  SD        26.6840   30.2890   10.6430 S.3   250  MET250     -0.1393
    111  CE        27.5440   28.9010    9.8860 C.3   250  MET250      0.0692
    112  N         23.1130   35.4400   12.1920 N.3   253  HIS253     -0.1241
    113  CA        22.4470   34.7140   13.2980 C.3   253  HIS253      0.1621
    114  C         22.3280   35.5310   14.5750 C.2   253  HIS253      0.2264
    115  O         21.4720   35.2820   15.4460 O.2   253  HIS253     -0.2867
    116  CB        23.1430   33.3860   13.5800 C.3   253  HIS253      0.0745
    117  CG        24.3740   33.5110   14.4820 C.ar  253  HIS253      0.0817
    118  ND1       25.4530   34.2480   14.1420 N.ar  253  HIS253     -0.2268
    119  CD2       24.6650   32.9460   15.7270 C.ar  253  HIS253      0.1154
    120  CE1       26.3770   34.1660   15.1150 C.ar  253  HIS253      0.1986
    121  NE2       25.8930   33.3770   16.0870 N.ar  253  HIS253     -0.2212
    122  N         28.9110   38.2850   19.8370 N.3   280  HIS280     -0.1241
    123  CA        30.0560   38.3170   18.9060 C.3   280  HIS280      0.1621
    124  C         30.6200   39.6790   18.7560 C.2   280  HIS280      0.2264
    125  O         31.5670   39.8560   18.0000 O.2   280  HIS280     -0.2867
    126  CB        29.7150   37.7660   17.5370 C.3   280  HIS280      0.0745
    127  CG        29.4290   36.3070   17.5510 C.ar  280  HIS280      0.0817
    128  ND1       30.3980   35.3870   17.6710 N.ar  280  HIS280     -0.2268
    129  CD2       28.2130   35.6030   17.4880 C.ar  280  HIS280      0.1154
    130  CE1       29.8610   34.1470   17.6590 C.ar  280  HIS280      0.1986
    131  NE2       28.5150   34.2770   17.5420 N.ar  280  HIS280     -0.2212
    132  N         32.8540   42.7560   20.4490 N.3   282  ARG282     -0.1245
    133  CA        34.1800   42.6940   21.0600 C.3   282  ARG282      0.1563
    134  C         34.4590   44.0060   21.7570 C.2   282  ARG282      0.2260
    135  O         34.0550   45.0510   21.2720 O.2   282  ARG282     -0.2867
    136  CB        35.2450   42.5470   19.9920 C.3   282  ARG282      0.0307
    137  CG        35.5340   41.1450   19.5310 C.3   282  ARG282      0.0489
    138  CD        36.5840   41.2320   18.4460 C.3   282  ARG282      0.2205
    139  NE        36.6560   39.9490   17.8000 N.pl3 282  ARG282     -0.0865
    140  CZ        37.6660   39.1220   17.9650 C.cat 282  ARG282      0.5346
    141  NH1       38.6970   39.4950   18.7400 N.pl3 282  ARG282      0.1354
    142  NH2       37.6370   37.9380   17.3540 N.pl3 282  ARG282      0.1354
    143  N         31.5400   41.7260   15.0990 N.3   288  TYR288     -0.1241
    144  CA        30.2230   41.8940   14.4730 C.3   288  TYR288      0.1605
    145  C         28.9820   41.7630   15.3950 C.2   288  TYR288      0.2264
    146  O         29.0880   41.2560   16.5040 O.2   288  TYR288     -0.2867
    147  CB        30.1110   40.9060   13.3300 C.3   288  TYR288      0.0534
    148  CG        30.0700   39.4420   13.6980 C.ar  288  TYR288     -0.0201
    149  CD1       31.2460   38.6960   13.8740 C.ar  288  TYR288     -0.0009
    150  CD2       28.8630   38.7760   13.7730 C.ar  288  TYR288     -0.0009
    151  CE1       31.2040   37.3260   14.1550 C.ar  288  TYR288      0.0417
    152  CE2       28.8070   37.4190   14.0490 C.ar  288  TYR288      0.0417
    153  CZ        29.9670   36.7030   14.2450 C.ar  288  TYR288      0.1957
    154  OH        29.8630   35.3720   14.5110 O.3   288  TYR288     -0.2866
    155  N         31.1400   31.9160   25.8910 N.3   308  ASP308     -0.1225
    156  CA        31.0670   31.2440   24.6200 C.3   308  ASP308      0.1805
    157  C         32.4880   30.8320   24.0960 C.2   308  ASP308      0.2597
    158  O         32.7520   29.6570   23.7420 O.2   308  ASP308     -0.2718
    159  CB        30.2970   32.1060   23.6220 C.3   308  ASP308      0.1424
    160  CG        29.9900   31.3710   22.3530 C.2   308  ASP308      0.3668
    161  OD1       29.8530   30.1150   22.3850 O.co2 308  ASP308     -0.2456
    162  OD2       29.8920   32.0410   21.3090 O.co2 308  ASP308     -0.2456
    163  N         33.4030   31.7900   24.0690 N.am  309  VAL309     -0.1980
    164  CA        34.7500   31.4980   23.6270 C.3   309  VAL309      0.1595
    165  C         35.4320   30.4500   24.4990 C.2   309  VAL309      0.2287
    166  O         36.0830   29.5560   23.9770 O.2   309  VAL309     -0.2864
    167  CB        35.5910   32.7740   23.5560 C.3   309  VAL309      0.0276
    168  CG1       37.0450   32.4390   23.2050 C.3   309  VAL309      0.0022
    169  CG2       34.9570   33.7680   22.5650 C.3   309  VAL309      0.0022
    170  N         34.2570   26.9330   23.6410 N.3   312  ALA312     -0.1231
    171  CA        34.6620   26.4630   22.3310 C.3   312  ALA312      0.1694
    172  C         36.1230   25.9740   22.3600 C.2   312  ALA312      0.2591
    173  O         36.4560   24.8920   21.8530 O.2   312  ALA312     -0.2718
    174  CB        34.4590   27.5610   21.2940 C.3   312  ALA312      0.0304
    175  N         36.9690   26.7740   22.9940 N.am  313  LEU313     -0.1980
    176  CA        38.3880   26.5270   22.9990 C.3   313  LEU313      0.1596
    177  C         38.6940   25.2510   23.7490 C.2   313  LEU313      0.2287
    178  O         39.7490   24.6440   23.5210 O.2   313  LEU313     -0.2864
    179  CB        39.1250   27.6930   23.6600 C.3   313  LEU313      0.0297
    180  CG        39.1510   29.0190   22.9250 C.3   313  LEU313      0.0022
    181  CD1       39.8590   30.0120   23.8150 C.3   313  LEU313      0.0001
    182  CD2       39.8730   28.9010   21.5990 C.3   313  LEU313      0.0001
    183  N         37.5150   20.6090   18.1630 N.3   317  ARG317     -0.1245
    184  CA        36.7680   21.0430   16.9790 C.3   317  ARG317      0.1563
    185  C         37.5490   20.5520   15.7190 C.2   317  ARG317      0.2260
    186  O         38.6320   19.9880   15.8760 O.2   317  ARG317     -0.2867
    187  CB        36.4530   22.5610   17.0500 C.3   317  ARG317      0.0307
    188  CG        37.6290   23.4770   17.3770 C.3   317  ARG317      0.0489
    189  CD        37.3060   24.5550   18.4200 C.3   317  ARG317      0.2205
    190  NE        38.4630   25.4160   18.7380 N.pl3 317  ARG317     -0.0865
    191  CZ        39.5520   25.0550   19.4490 C.cat 317  ARG317      0.5346
    192  NH1       39.7000   23.8290   19.9560 N.pl3 317  ARG317      0.1354
    193  NH2       40.5270   25.9340   19.6510 N.pl3 317  ARG317      0.1354
    194  N         41.5370   20.8650   15.5870 N.3   320  LYS320     -0.1245
    195  CA        42.0960   21.4390   16.8300 C.3   320  LYS320      0.1561
    196  C         41.6740   20.6530   18.0580 C.2   320  LYS320      0.2260
    197  O         40.4770   20.4820   18.3250 O.2   320  LYS320     -0.2867
    198  CB        41.7300   22.9270   17.0070 C.3   320  LYS320      0.0271
    199  CG        41.7820   23.7260   15.7160 C.3   320  LYS320      0.0035
    200  CD        42.0770   25.2010   15.9120 C.3   320  LYS320      0.0206
    201  CE        42.6010   25.7760   14.5990 C.3   320  LYS320      0.1093
    202  NZ        42.6760   27.2610   14.6370 N.3   320  LYS320     -0.1314
    203  N         41.9970   23.0080   24.1480 N.3   323  TRP323     -0.1241
    204  CA        42.9570   23.6920   24.9850 C.3   323  TRP323      0.1605
    205  C         42.9850   23.2470   26.4480 C.2   323  TRP323      0.2264
    206  O         41.9400   22.9930   27.0410 O.2   323  TRP323     -0.2867
    207  CB        42.6270   25.1870   24.8530 C.3   323  TRP323      0.0550
    208  CG        42.9950   25.6980   23.4480 C.ar  323  TRP323      0.0003
    209  CD1       43.2240   24.9370   22.3020 C.ar  323  TRP323      0.0946
    210  CD2       43.0710   27.0940   22.9980 C.ar  323  TRP323      0.0152
    211  NE1       43.5090   25.7420   21.2290 N.ar  323  TRP323     -0.2442
    212  CE2       43.4300   27.0510   21.5730 C.ar  323  TRP323      0.0810
    213  CE3       42.9470   28.3310   23.6220 C.ar  323  TRP323      0.0012
    214  CZ2       43.6260   28.2110   20.8240 C.ar  323  TRP323      0.0191
    215  CZ3       43.1130   29.4900   22.8540 C.ar  323  TRP323      0.0001
    216  CH2       43.4520   29.4260   21.4880 C.ar  323  TRP323      0.0015
    217  N         45.7550   32.6110   26.5700 N.3   331  PHE331     -0.1241
    218  CA        44.8750   33.2600   25.6200 C.3   331  PHE331      0.1605
    219  C         43.9990   34.3930   26.2270 C.2   331  PHE331      0.2264
    220  O         43.9990   35.5390   25.7140 O.2   331  PHE331     -0.2867
    221  CB        44.0050   32.2270   24.9330 C.3   331  PHE331      0.0534
    222  CG        42.9460   32.8270   24.0510 C.ar  331  PHE331     -0.0203
    223  CD1       43.2530   33.2580   22.7550 C.ar  331  PHE331     -0.0042
    224  CD2       41.6160   32.9830   24.5110 C.ar  331  PHE331     -0.0042
    225  CE1       42.2530   33.8150   21.9330 C.ar  331  PHE331     -0.0003
    226  CE2       40.6190   33.5410   23.6870 C.ar  331  PHE331     -0.0003
    227  CZ        40.9330   33.9520   22.3960 C.ar  331  PHE331     -0.0000
    228  N         39.4510   41.2850   22.8130 N.3   339  HIS339     -0.1241
    229  CA        38.1940   40.5990   22.5830 C.3   339  HIS339      0.1621
    230  C         37.2430   40.8920   23.7410 C.2   339  HIS339      0.2264
    231  O         36.0650   41.2380   23.5160 O.2   339  HIS339     -0.2867
    232  CB        38.4700   39.1070   22.4340 C.3   339  HIS339      0.0745
    233  CG        37.3820   38.3430   21.7240 C.ar  339  HIS339      0.0817
    234  ND1       36.0570   38.5940   21.9110 N.ar  339  HIS339     -0.2268
    235  CD2       37.4530   37.2650   20.8340 C.ar  339  HIS339      0.1154
    236  CE1       35.3250   37.7370   21.1650 C.ar  339  HIS339      0.1986
    237  NE2       36.1760   36.9190   20.5130 N.ar  339  HIS339     -0.2212
@<TRIPOS>BOND
     1    59    58    1
     2    59    60    1
     3    61    60    1
     4    58    57    1
     5    84    85    2
     6    84    83    1
     7    76    75    2
     8    57    54    1
     9    83    82    1
    10    83    86    1
    11    75    82   am
    12    75    74    1
    13    77    78    1
    14    77    74    1
    15    68    67    1
    16    68    62    1
    17    65    64    2
    18    54    53    1
    19    54    55    1
    20    90    91    1
    21    78    79    1
    22    88    87    1
    23    67    66    1
    24    74    73    1
    25    86    87    1
    26    73    71   am
    27    62    55   am
    28    62    63    1
    29    55    56    2
    30    87    89    1
    31    64    63    1
    32    64    69   am
    33    91    94    1
    34    91    92    1
    35    71    70    1
    36    71    72    2
    37    94    95    1
    38    66    63    1
    39    79    80    1
    40    70    69    1
    41    92    93    2
    42    45    46    1
    43    80    81    1
    44    95    96   ar
    45    95    97   ar
    46   104   105    1
    47    96    98   ar
    48    46    47    1
    49    46    49    1
    50    47    48    2
    51    49    50    1
    52    97   100   ar
    53    97    99   ar
    54   108   105    1
    55   108   109    1
    56   105   106    1
    57    98    99   ar
    58   100   102   ar
    59    99   101   ar
    60   111   110    1
    61   106   107    2
    62   109   110    1
    63    50    52    1
    64    50    51    1
    65   102   103   ar
    66   101   103   ar
    67    39    38    2
    68   112   113    1
    69    38    37    1
    70     1     2    1
    71   113   116    1
    72   113   114    1
    73   147   148    1
    74   147   144    1
    75   116   117    1
    76    37    40    1
    77    37    36    1
    78   148   150   ar
    79   148   149   ar
    80   150   152   ar
    81   149   151   ar
    82     2     5    1
    83     2     3    1
    84   152   153   ar
    85   118   117   ar
    86   118   120   ar
    87   151   153   ar
    88   153   154    1
    89    40    41    1
    90   144   143    1
    91   144   145    1
    92   117   119   ar
    93    41    42    1
    94   114   115    2
    95     8     6   ar
    96   201   202    1
    97   201   200    1
    98     5     6    1
    99     3     4    2
   100     6     7   ar
   101    42    43    1
   102   120   121   ar
   103   145   146    2
   104    43    44    1
   105   194   195    1
   106   199   200    1
   107   199   198    1
   108   185   186    2
   109   185   184    1
   110   119   121   ar
   111   195   198    1
   112   195   196    1
   113   184   187    1
   114   184   183    1
   115   187   188    1
   116   142   140    1
   117   188   189    1
   118    31    30    2
   119   129   131   ar
   120   129   127   ar
   121   126   127    1
   122   126   123    1
   123   131   130   ar
   124   127   128   ar
   125   130   128   ar
   126     9    10    1
   127   139   140    2
   128   139   138    1
   129   140   141    1
   130   125   124    2
   131   196   197    2
   132   189   190    1
   133   138   137    1
   134    30    29    1
   135    35    33   ar
   136   190   191    2
   137    34    33   ar
   138    33    32    1
   139   124   123    1
   140    14    15    1
   141    14    13    1
   142   123   122    1
   143    32    29    1
   144    15    17   ar
   145    15    16   ar
   146    29    28    1
   147    10    13    1
   148    10    11    1
   149   191   193    1
   150   191   192    1
   151   137   136    1
   152    12    11    2
   153   136   133    1
   154   132   133    1
   155   237   235   ar
   156   237   236   ar
   157   214   216   ar
   158   214   212   ar
   159   235   233   ar
   160   133   134    1
   161   236   234   ar
   162   211   212   ar
   163   211   209   ar
   164   135   134    2
   165   174   171    1
   166   162   160   ar
   167   216   215   ar
   168   212   210   ar
   169   182   180    1
   170   233   234   ar
   171   233   232    1
   172   173   172    2
   173   225   227   ar
   174   225   223   ar
   175   209   208   ar
   176   171   172    1
   177   171   170    1
   178   160   161   ar
   179   160   159    1
   180   172   175   am
   181   227   226   ar
   182   232   229    1
   183   169   167    1
   184   229   228    1
   185   229   230    1
   186    27    25   ar
   187    27    26   ar
   188    25    23   ar
   189   223   222   ar
   190   215   213   ar
   191   180   179    1
   192   180   181    1
   193   175   176    1
   194   210   208   ar
   195   210   213   ar
   196   176   179    1
   197   176   177    1
   198   168   167    1
   199    26    24   ar
   200    23    24   ar
   201    23    22    1
   202   208   207    1
   203   231   230    2
   204   178   177    2
   205   167   164    1
   206   159   156    1
   207   164   163    1
   208   164   165    1
   209   226   224   ar
   210   158   157    2
   211    22    19    1
   212   166   165    2
   213   222   224   ar
   214   222   221    1
   215   163   157   am
   216   157   156    1
   217   203   204    1
   218   156   155    1
   219   207   204    1
   220   221   218    1
   221   204   205    1
   222    19    18    1
   223    19    20    1
   224   218   219    1
   225   218   217    1
   226    20    21    2
   227   220   219    2
   228   205   206    2
