@<TRIPOS>MOLECULE
tmp/4mdzA01.pdb
 94 90 0 0 0
SMALL
GASTEIGER

@<TRIPOS>ATOM
      1  N          3.6080   29.8740    9.5430 N.3   186  GLU186     -0.1245
      2  CA         2.8050   29.8360   10.8050 C.3   186  GLU186      0.1567
      3  C          3.1210   30.9910   11.7450 C.2   186  GLU186      0.2260
      4  O          4.2820   31.3430   11.9400 O.2   186  GLU186     -0.2867
      5  CB         2.8050   28.4640   11.5050 C.3   186  GLU186      0.0388
      6  CG         2.1420   27.3590   10.6470 C.3   186  GLU186      0.1160
      7  CD         1.7960   26.0210   11.3600 C.2   186  GLU186      0.3649
      8  OE1        0.7200   25.4360   11.0670 O.co2 186  GLU186     -0.2457
      9  OE2        2.5930   25.5180   12.1880 O.co2 186  GLU186     -0.2457
     10  N         -0.9200   31.8550   15.9990 N.3   190  HIS190     -0.1241
     11  CA        -1.3810   30.4830   15.7590 C.3   190  HIS190      0.1621
     12  C         -0.9330   29.6320   16.8770 C.2   190  HIS190      0.2264
     13  O         -1.7200   28.9110   17.4250 O.2   190  HIS190     -0.2867
     14  CB        -0.8920   29.9070   14.4610 C.3   190  HIS190      0.0745
     15  CG        -1.0380   28.4020   14.3900 C.ar  190  HIS190      0.0817
     16  ND1       -2.2260   27.7920   14.2050 N.ar  190  HIS190     -0.2268
     17  CD2       -0.0930   27.3840   14.4880 C.ar  190  HIS190      0.1154
     18  CE1       -2.0530   26.4590   14.1740 C.ar  190  HIS190      0.1986
     19  NE2       -0.7480   26.2070   14.3560 N.ar  190  HIS190     -0.2212
     20  N          4.0520   21.7680   19.3510 N.3   222  HIS222     -0.1226
     21  CA         3.8550   20.5610   18.5290 C.3   222  HIS222      0.1752
     22  C          4.6880   20.5410   17.2700 C.2   222  HIS222      0.2596
     23  O          5.1130   19.4500   16.8250 O.2   222  HIS222     -0.2718
     24  CB         2.3740   20.2970   18.2040 C.3   222  HIS222      0.0759
     25  CG         1.7690   21.2890   17.2590 C.ar  222  HIS222      0.0818
     26  ND1        1.2750   22.4900   17.6770 N.ar  222  HIS222     -0.2268
     27  CD2        1.6220   21.2620   15.8700 C.ar  222  HIS222      0.1154
     28  CE1        0.8360   23.2050   16.6150 C.ar  222  HIS222      0.1986
     29  NE2        1.0420   22.4570   15.5020 N.ar  222  HIS222     -0.2212
     30  N          4.9560   21.7170   16.6920 N.am  223  ASP223     -0.1974
     31  CA         5.6350   21.7670   15.3890 C.3   223  ASP223      0.1709
     32  C          7.1220   22.0710   15.4140 C.2   223  ASP223      0.2293
     33  O          7.7140   22.3670   14.3750 O.2   223  ASP223     -0.2864
     34  CB         4.8960   22.6600   14.3890 C.3   223  ASP223      0.1436
     35  CG         4.0020   21.8490   13.4470 C.2   223  ASP223      0.3671
     36  OD1        4.0320   20.5690   13.4570 O.co2 223  ASP223     -0.2456
     37  OD2        3.2560   22.4960   12.6770 O.co2 223  ASP223     -0.2456
     38  N         10.0550   20.9360   12.9280 N.3   226  LYS226     -0.1245
     39  CA        10.2110   21.4730   11.5790 C.3   226  LYS226      0.1561
     40  C         11.5990   22.0230   11.3950 C.2   226  LYS226      0.2260
     41  O         12.1350   22.1020   10.2910 O.2   226  LYS226     -0.2867
     42  CB         9.1700   22.5260   11.2900 C.3   226  LYS226      0.0271
     43  CG         7.9430   21.8990   10.7100 C.3   226  LYS226      0.0035
     44  CD         6.9250   22.9620   10.3920 C.3   226  LYS226      0.0206
     45  CE         5.5900   22.3590    9.9820 C.3   226  LYS226      0.1093
     46  NZ         4.5870   23.4620    9.9030 N.3   226  LYS226     -0.1314
     47  N         -0.1370   14.2280   14.3080 N.3   278  HIS278     -0.1241
     48  CA        -0.6770   13.8730   12.9950 C.3   278  HIS278      0.1621
     49  C         -1.2230   12.4690   12.9560 C.2   278  HIS278      0.2264
     50  O         -1.6280   11.9870   11.9050 O.2   278  HIS278     -0.2867
     51  CB         0.3350   14.0980   11.8720 C.3   278  HIS278      0.0745
     52  CG         0.6940   15.5540   11.6490 C.ar  278  HIS278      0.0817
     53  ND1       -0.1170   16.4140   10.9800 N.ar  278  HIS278     -0.2268
     54  CD2        1.8320   16.3030   12.0370 C.ar  278  HIS278      0.1154
     55  CE1        0.4490   17.6540   10.9550 C.ar  278  HIS278      0.1986
     56  NE2        1.6410   17.5870   11.6080 N.ar  278  HIS278     -0.2212
     57  N         -5.7020   22.1690   16.4860 N.3   306  ASP306     -0.1225
     58  CA        -4.8640   22.5780   15.3910 C.3   306  ASP306      0.1805
     59  C         -5.7670   22.6600   14.1340 C.2   306  ASP306      0.2597
     60  O         -5.8700   23.7110   13.4740 O.2   306  ASP306     -0.2718
     61  CB        -3.7210   21.5430   15.2740 C.3   306  ASP306      0.1424
     62  CG        -2.6440   21.9300   14.2610 C.2   306  ASP306      0.3668
     63  OD1       -2.4420   23.1610   14.0270 O.co2 306  ASP306     -0.2456
     64  OD2       -1.9880   20.9910   13.7070 O.co2 306  ASP306     -0.2456
     65  N         -6.4660   21.5720   13.8240 N.am  307  VAL307     -0.1980
     66  CA        -7.4510   21.6110   12.7540 C.3   307  VAL307      0.1595
     67  C         -8.4310   22.7760   12.9570 C.2   307  VAL307      0.2287
     68  O         -8.7330   23.5300   12.0180 O.2   307  VAL307     -0.2864
     69  CB        -8.2030   20.2980   12.6450 C.3   307  VAL307      0.0276
     70  CG1       -9.3580   20.4500   11.6750 C.3   307  VAL307      0.0022
     71  CG2       -7.2470   19.2070   12.1930 C.3   307  VAL307      0.0022
     72  N         -6.7720   26.0420   11.7630 N.3   310  ALA310     -0.1231
     73  CA        -6.6160   26.0880   10.3060 C.3   310  ALA310      0.1694
     74  C         -7.9440   26.4550    9.5820 C.2   310  ALA310      0.2591
     75  O         -7.9820   27.3930    8.7380 O.2   310  ALA310     -0.2718
     76  CB        -6.0770   24.7460    9.7970 C.3   310  ALA310      0.0304
     77  N         -9.0310   25.7400    9.9380 N.am  311  LEU311     -0.1980
     78  CA       -10.3080   25.8790    9.2330 C.3   311  LEU311      0.1596
     79  C        -10.8340   27.2610    9.3740 C.2   311  LEU311      0.2287
     80  O        -11.5900   27.7290    8.5230 O.2   311  LEU311     -0.2864
     81  CB       -11.3390   24.8910    9.7250 C.3   311  LEU311      0.0297
     82  CG       -10.9410   23.4500    9.4350 C.3   311  LEU311      0.0022
     83  CD1      -12.0140   22.5140    9.9690 C.3   311  LEU311      0.0001
     84  CD2      -10.6860   23.1710    7.9650 C.3   311  LEU311      0.0001
     85  N        -10.6980   11.1860   11.9720 N.3   337  HIS337     -0.1241
     86  CA        -9.5860   11.9390   12.4540 C.3   337  HIS337      0.1621
     87  C         -9.6180   12.0250   13.9590 C.2   337  HIS337      0.2264
     88  O         -8.5890   11.8450   14.6270 O.2   337  HIS337     -0.2867
     89  CB        -9.6430   13.3210   11.8690 C.3   337  HIS337      0.0745
     90  CG        -8.3370   14.0890   11.9650 C.ar  337  HIS337      0.0817
     91  ND1       -8.1400   15.2760   11.3290 N.ar  337  HIS337     -0.2268
     92  CD2       -7.1440   13.8000   12.6310 C.ar  337  HIS337      0.1154
     93  CE1       -6.9120   15.7390   11.6190 C.ar  337  HIS337      0.1986
     94  NE2       -6.3020   14.8350   12.4150 N.ar  337  HIS337     -0.2212
@<TRIPOS>BOND
     1    84    82    1
     2    80    79    2
     3    75    74    2
     4    78    79    1
     5    78    81    1
     6    78    77    1
     7    82    81    1
     8    82    83    1
     9     1     2    1
    10    74    77   am
    11    74    73    1
    12    76    73    1
    13    46    45    1
    14    45    44    1
    15    41    40    2
    16    73    72    1
    17    44    43    1
    18     6     7    1
    19     6     5    1
    20    43    42    1
    21     2     5    1
    22     2     3    1
    23    55    53   ar
    24    55    56   ar
    25    53    52   ar
    26     8     7   ar
    27    42    39    1
    28    91    93   ar
    29    91    90   ar
    30     7     9   ar
    31    40    39    1
    32    39    38    1
    33    56    54   ar
    34    93    94   ar
    35    52    51    1
    36    52    54   ar
    37    70    69    1
    38     3     4    2
    39    89    90    1
    40    89    86    1
    41    51    48    1
    42    50    49    2
    43    90    92   ar
    44    85    86    1
    45    68    67    2
    46    71    69    1
    47    94    92   ar
    48    86    87    1
    49    69    66    1
    50    37    35   ar
    51    66    67    1
    52    66    65    1
    53    49    48    1
    54    48    47    1
    55    35    36   ar
    56    35    34    1
    57    60    59    2
    58    64    62   ar
    59    65    59   am
    60    87    88    2
    61    63    62   ar
    62    59    58    1
    63    18    16   ar
    64    18    19   ar
    65    16    15   ar
    66    62    61    1
    67    19    17   ar
    68    33    32    2
    69    34    31    1
    70    15    14    1
    71    15    17   ar
    72    14    11    1
    73    61    58    1
    74    31    32    1
    75    31    30    1
    76    58    57    1
    77    29    27   ar
    78    29    28   ar
    79    11    10    1
    80    11    12    1
    81    27    25   ar
    82    28    26   ar
    83    30    22   am
    84    23    22    2
    85    12    13    2
    86    25    26   ar
    87    25    24    1
    88    22    21    1
    89    24    21    1
    90    21    20    1
