@<TRIPOS>MOLECULE
tmp/4mdzA02.pdb
 101 97 0 0 0
SMALL
GASTEIGER

@<TRIPOS>ATOM
      1  N          8.9880   28.6130   20.3020 N.3   177  SER177     -0.1202
      2  CA         8.2610   27.7560   19.4080 C.3   177  SER177      0.2020
      3  C          8.1230   28.4290   18.0570 C.2   177  SER177      0.2618
      4  O          8.1200   27.7690   17.0630 O.2   177  SER177     -0.2717
      5  CB         6.9190   27.4950   19.9820 C.3   177  SER177      0.2103
      6  OG         7.0920   26.6660   21.1010 O.3   177  SER177     -0.2182
      7  N          8.0300   29.7530   18.0260 N.am  178  HIS178     -0.1975
      8  CA         7.9670   30.5180   16.7970 C.3   178  HIS178      0.1656
      9  C          9.3490   30.7600   16.2270 C.2   178  HIS178      0.2291
     10  O          9.6030   31.7520   15.5180 O.2   178  HIS178     -0.2864
     11  CB         7.2780   31.8320   17.1010 C.3   178  HIS178      0.0771
     12  CG         6.8650   32.6130   15.8810 C.ar  178  HIS178      0.0820
     13  ND1        6.3230   32.0240   14.7760 N.ar  178  HIS178     -0.2267
     14  CD2        6.9100   33.9920   15.6160 C.ar  178  HIS178      0.1154
     15  CE1        6.0360   32.9730   13.8540 C.ar  178  HIS178      0.1986
     16  NE2        6.3950   34.1780   14.3660 N.ar  178  HIS178     -0.2212
     17  N         10.7030   28.7730   14.1140 N.3   180  THR180     -0.1203
     18  CA        10.6100   28.3630   12.7020 C.3   180  THR180      0.1994
     19  C         10.1800   29.5220   11.7680 C.2   180  THR180      0.2617
     20  O         10.0790   29.3610   10.5810 O.2   180  THR180     -0.2717
     21  CB         9.6650   27.1610   12.5340 C.3   180  THR180      0.1784
     22  OG1        8.3330   27.5810   12.7790 O.3   180  THR180     -0.2211
     23  CG2        9.9670   26.0800   13.5340 C.3   180  THR180      0.0376
     24  N         10.0150   30.7100   12.3200 N.am  181  LYS181     -0.1979
     25  CA         9.4490   31.8640   11.6130 C.3   181  LYS181      0.1596
     26  C         10.1750   32.4680   10.3920 C.2   181  LYS181      0.2287
     27  O          9.6000   33.2980    9.6640 O.2   181  LYS181     -0.2864
     28  CB         9.1630   32.9750   12.6260 C.3   181  LYS181      0.0298
     29  CG        10.3680   33.5510   13.3280 C.3   181  LYS181      0.0038
     30  CD         9.8710   34.6410   14.2580 C.3   181  LYS181      0.0206
     31  CE        11.0250   35.2590   14.9920 C.3   181  LYS181      0.1093
     32  NZ        10.4940   36.3170   15.8880 N.3   181  LYS181     -0.1314
     33  N          9.0190   29.3720    7.6590 N.3   184  ASP184     -0.1239
     34  CA         7.6660   28.7950    7.7670 C.3   184  ASP184      0.1674
     35  C          6.6430   29.8620    8.1050 C.2   184  ASP184      0.2266
     36  O          6.8740   30.7120    8.9900 O.2   184  ASP184     -0.2867
     37  CB         7.5980   27.6530    8.7900 C.3   184  ASP184      0.1410
     38  CG         6.3330   26.7780    8.6360 C.2   184  ASP184      0.3668
     39  OD1        6.4750   25.5550    8.3630 O.co2 184  ASP184     -0.2456
     40  OD2        5.1990   27.3040    8.7930 O.co2 184  ASP184     -0.2456
     41  N          3.6080   29.8740    9.5430 N.3   186  GLU186     -0.1245
     42  CA         2.8050   29.8360   10.8050 C.3   186  GLU186      0.1567
     43  C          3.1210   30.9910   11.7450 C.2   186  GLU186      0.2260
     44  O          4.2820   31.3430   11.9400 O.2   186  GLU186     -0.2867
     45  CB         2.8050   28.4640   11.5050 C.3   186  GLU186      0.0388
     46  CG         2.1420   27.3590   10.6470 C.3   186  GLU186      0.1160
     47  CD         1.7960   26.0210   11.3600 C.2   186  GLU186      0.3649
     48  OE1        0.7200   25.4360   11.0670 O.co2 186  GLU186     -0.2457
     49  OE2        2.5930   25.5180   12.1880 O.co2 186  GLU186     -0.2457
     50  N         -0.9200   31.8550   15.9990 N.3   190  HIS190     -0.1226
     51  CA        -1.3810   30.4830   15.7590 C.3   190  HIS190      0.1752
     52  C         -0.9330   29.6320   16.8770 C.2   190  HIS190      0.2595
     53  O         -1.7200   28.9110   17.4250 O.2   190  HIS190     -0.2718
     54  CB        -0.8920   29.9070   14.4610 C.3   190  HIS190      0.0759
     55  CG        -1.0380   28.4020   14.3900 C.ar  190  HIS190      0.0818
     56  ND1       -2.2260   27.7920   14.2050 N.ar  190  HIS190     -0.2268
     57  CD2       -0.0930   27.3840   14.4880 C.ar  190  HIS190      0.1154
     58  CE1       -2.0530   26.4590   14.1740 C.ar  190  HIS190      0.1986
     59  NE2       -0.7480   26.2070   14.3560 N.ar  190  HIS190     -0.2212
     60  N          0.3350   29.7660   17.2570 N.am  191  ILE191     -0.1980
     61  CA         0.9870   28.8920   18.2280 C.3   191  ILE191      0.1595
     62  C          0.3700   29.0200   19.6070 C.2   191  ILE191      0.2287
     63  O          0.1720   28.0140   20.2980 O.2   191  ILE191     -0.2864
     64  CB         2.4880   29.2090   18.3340 C.3   191  ILE191      0.0276
     65  CG1        3.1820   29.0260   16.9800 C.3   191  ILE191      0.0022
     66  CG2        3.1560   28.3270   19.3700 C.3   191  ILE191      0.0022
     67  CD1        4.6540   29.3870   16.9840 C.3   191  ILE191      0.0001
     68  N          1.5330   24.2320   22.3060 N.3   220  PRO220     -0.2116
     69  CA         2.1170   25.1420   21.3300 C.3   220  PRO220      0.1372
     70  C          3.4930   24.7090   20.7860 C.2   220  PRO220      0.2244
     71  O          4.0140   25.3670   19.8910 O.2   220  PRO220     -0.2868
     72  CB         2.2940   26.4500   22.1110 C.3   220  PRO220      0.0268
     73  CG         1.4900   26.3110   23.3150 C.3   220  PRO220      0.0207
     74  CD         1.4620   24.8440   23.6270 C.3   220  PRO220      0.0892
     75  N          4.0520   21.7680   19.3510 N.3   222  HIS222     -0.1226
     76  CA         3.8550   20.5610   18.5290 C.3   222  HIS222      0.1752
     77  C          4.6880   20.5410   17.2700 C.2   222  HIS222      0.2596
     78  O          5.1130   19.4500   16.8250 O.2   222  HIS222     -0.2718
     79  CB         2.3740   20.2970   18.2040 C.3   222  HIS222      0.0759
     80  CG         1.7690   21.2890   17.2590 C.ar  222  HIS222      0.0818
     81  ND1        1.2750   22.4900   17.6770 N.ar  222  HIS222     -0.2268
     82  CD2        1.6220   21.2620   15.8700 C.ar  222  HIS222      0.1154
     83  CE1        0.8360   23.2050   16.6150 C.ar  222  HIS222      0.1986
     84  NE2        1.0420   22.4570   15.5020 N.ar  222  HIS222     -0.2212
     85  N          4.9560   21.7170   16.6920 N.am  223  ASP223     -0.1974
     86  CA         5.6350   21.7670   15.3890 C.3   223  ASP223      0.1709
     87  C          7.1220   22.0710   15.4140 C.2   223  ASP223      0.2293
     88  O          7.7140   22.3670   14.3750 O.2   223  ASP223     -0.2864
     89  CB         4.8960   22.6600   14.3890 C.3   223  ASP223      0.1436
     90  CG         4.0020   21.8490   13.4470 C.2   223  ASP223      0.3671
     91  OD1        4.0320   20.5690   13.4570 O.co2 223  ASP223     -0.2456
     92  OD2        3.2560   22.4960   12.6770 O.co2 223  ASP223     -0.2456
     93  N         10.0550   20.9360   12.9280 N.3   226  LYS226     -0.1245
     94  CA        10.2110   21.4730   11.5790 C.3   226  LYS226      0.1561
     95  C         11.5990   22.0230   11.3950 C.2   226  LYS226      0.2260
     96  O         12.1350   22.1020   10.2910 O.2   226  LYS226     -0.2867
     97  CB         9.1700   22.5260   11.2900 C.3   226  LYS226      0.0271
     98  CG         7.9430   21.8990   10.7100 C.3   226  LYS226      0.0035
     99  CD         6.9250   22.9620   10.3920 C.3   226  LYS226      0.0206
    100  CE         5.5900   22.3590    9.9820 C.3   226  LYS226      0.1093
    101  NZ         4.5870   23.4620    9.9030 N.3   226  LYS226     -0.1314
@<TRIPOS>BOND
     1    33    34    1
     2    34    35    1
     3    34    37    1
     4    35    36    2
     5    39    38   ar
     6    38    37    1
     7    38    40   ar
     8    41    42    1
     9    27    26    2
    10   101   100    1
    11   100    99    1
    12    96    95    2
    13    99    98    1
    14    26    25    1
    15    20    19    2
    16    46    47    1
    17    46    45    1
    18    98    97    1
    19    42    45    1
    20    42    43    1
    21    48    47   ar
    22    97    94    1
    23    47    49   ar
    24    95    94    1
    25    94    93    1
    26    25    24    1
    27    25    28    1
    28    43    44    2
    29    19    24   am
    30    19    18    1
    31    21    18    1
    32    21    22    1
    33    21    23    1
    34    28    29    1
    35    92    90   ar
    36    18    17    1
    37    29    30    1
    38    90    91   ar
    39    90    89    1
    40    15    16   ar
    41    15    13   ar
    42    58    56   ar
    43    58    59   ar
    44    56    55   ar
    45    30    31    1
    46    59    57   ar
    47    16    14   ar
    48    88    87    2
    49    89    86    1
    50    55    54    1
    51    55    57   ar
    52    54    51    1
    53    13    12   ar
    54    31    32    1
    55    86    87    1
    56    86    85    1
    57    84    82   ar
    58    84    83   ar
    59    10     9    2
    60    14    12   ar
    61    51    50    1
    62    51    52    1
    63    82    80   ar
    64    12    11    1
    65     9     8    1
    66    83    81   ar
    67    85    77   am
    68     8    11    1
    69     8     7    1
    70    78    77    2
    71    52    60   am
    72    52    53    2
    73    65    67    1
    74    65    64    1
    75     4     3    2
    76    60    61    1
    77    80    81   ar
    78    80    79    1
    79    77    76    1
    80     7     3   am
    81     3     2    1
    82    79    76    1
    83    61    64    1
    84    61    62    1
    85    64    66    1
    86    76    75    1
    87     2     5    1
    88     2     1    1
    89    62    63    2
    90    71    70    2
    91     5     6    1
    92    70    69    1
    93    69    72    1
    94    69    68    1
    95    72    73    1
    96    68    74    1
    97    73    74    1
