@<TRIPOS>MOLECULE
tmp/4me4B00.pdb
 152 145 0 0 0
SMALL
GASTEIGER

@<TRIPOS>ATOM
      1  N         27.0900   20.6690   17.7050 N.3   188  GLU188     -0.1245
      2  CA        27.0780   21.0350   19.1270 C.3   188  GLU188      0.1567
      3  C         26.1260   20.2010   19.9740 C.2   188  GLU188      0.2260
      4  O         24.9990   19.9160   19.5510 O.2   188  GLU188     -0.2867
      5  CB        26.7760   22.5010   19.3170 C.3   188  GLU188      0.0388
      6  CG        27.9510   23.3810   18.9580 C.3   188  GLU188      0.1160
      7  CD        27.5340   24.8170   18.8310 C.2   188  GLU188      0.3649
      8  OE1       26.3920   25.0550   18.4270 O.co2 188  GLU188     -0.2457
      9  OE2       28.2940   25.7280   19.1610 O.co2 188  GLU188     -0.2457
     10  N         26.8780   20.7890   25.8750 N.3   192  HIS192     -0.1241
     11  CA        27.4940   22.0740   25.5850 C.3   192  HIS192      0.1621
     12  C         26.5220   23.2000   25.8780 C.2   192  HIS192      0.2264
     13  O         26.9000   24.2130   26.4930 O.2   192  HIS192     -0.2867
     14  CB        28.0220   22.1420   24.1550 C.3   192  HIS192      0.0745
     15  CG        28.2040   23.5490   23.6620 C.ar  192  HIS192      0.0817
     16  ND1       29.1930   24.3480   24.1000 N.ar  192  HIS192     -0.2268
     17  CD2       27.4530   24.3070   22.7900 C.ar  192  HIS192      0.1154
     18  CE1       29.0970   25.5520   23.5070 C.ar  192  HIS192      0.1986
     19  NE2       28.0380   25.5250   22.7020 N.ar  192  HIS192     -0.2212
     20  N         22.5930   29.9640   20.2930 N.3   225  ASP225     -0.1239
     21  CA        22.6470   29.5510   18.8850 C.3   225  ASP225      0.1674
     22  C         21.3520   29.0860   18.1980 C.2   225  ASP225      0.2266
     23  O         21.4340   28.4840   17.1160 O.2   225  ASP225     -0.2867
     24  CB        23.6570   28.4270   18.7070 C.3   225  ASP225      0.1410
     25  CG        25.0820   28.9330   18.4080 C.2   225  ASP225      0.3668
     26  OD1       25.3250   30.0940   18.0020 O.co2 225  ASP225     -0.2456
     27  OD2       25.9850   28.1080   18.5790 O.co2 225  ASP225     -0.2456
     28  N         20.3320   29.1700   14.3520 N.3   228  LYS228     -0.1245
     29  CA        20.7820   28.2210   13.3390 C.3   228  LYS228      0.1561
     30  C         19.6500   27.4680   12.6530 C.2   228  LYS228      0.2260
     31  O         19.8180   27.0260   11.5100 O.2   228  LYS228     -0.2867
     32  CB        21.8160   27.2710   13.8940 C.3   228  LYS228      0.0271
     33  CG        23.1330   27.9710   14.1490 C.3   228  LYS228      0.0035
     34  CD        24.1400   26.9850   14.6820 C.3   228  LYS228      0.0206
     35  CE        25.4030   27.7110   15.1240 C.3   228  LYS228      0.1093
     36  NZ        26.4330   26.7310   15.5630 N.3   228  LYS228     -0.1314
     37  N         28.8590   36.7460   19.3890 N.3   280  HIS280     -0.1241
     38  CA        30.0680   36.7800   18.5480 C.3   280  HIS280      0.1621
     39  C         30.6620   38.1640   18.4250 C.2   280  HIS280      0.2264
     40  O         31.6390   38.3650   17.6950 O.2   280  HIS280     -0.2867
     41  CB        29.8450   36.1870   17.1680 C.3   280  HIS280      0.0745
     42  CG        29.4550   34.7300   17.1690 C.ar  280  HIS280      0.0817
     43  ND1       30.3570   33.7410   17.2310 N.ar  280  HIS280     -0.2268
     44  CD2       28.1900   34.1100   17.0850 C.ar  280  HIS280      0.1154
     45  CE1       29.7290   32.5480   17.2030 C.ar  280  HIS280      0.1986
     46  NE2       28.3950   32.7760   17.1080 N.ar  280  HIS280     -0.2212
     47  N         32.9420   41.2640   19.8250 N.3   282  ARG282     -0.1245
     48  CA        34.2160   41.2500   20.5250 C.3   282  ARG282      0.1563
     49  C         34.4340   42.5280   21.2970 C.2   282  ARG282      0.2260
     50  O         33.9670   43.6050   20.8780 O.2   282  ARG282     -0.2867
     51  CB        35.3390   41.0210   19.5490 C.3   282  ARG282      0.0307
     52  CG        35.4690   39.5780   19.1230 C.3   282  ARG282      0.0489
     53  CD        36.5290   39.4560   18.0560 C.3   282  ARG282      0.2205
     54  NE        36.5000   38.1140   17.4930 N.pl3 282  ARG282     -0.0865
     55  CZ        37.4550   37.2050   17.6310 C.cat 282  ARG282      0.5346
     56  NH1       38.5700   37.4740   18.3270 N.pl3 282  ARG282      0.1354
     57  NH2       37.2760   36.0200   17.0680 N.pl3 282  ARG282      0.1354
     58  N         31.2440   40.3150   15.0720 N.3   288  TYR288     -0.1241
     59  CA        30.0600   40.4710   14.2440 C.3   288  TYR288      0.1605
     60  C         28.7970   40.2820   15.0910 C.2   288  TYR288      0.2264
     61  O         28.8800   39.7470   16.1910 O.2   288  TYR288     -0.2867
     62  CB        30.1090   39.4950   13.0630 C.3   288  TYR288      0.0534
     63  CG        30.0020   38.0060   13.3680 C.ar  288  TYR288     -0.0201
     64  CD1       28.7510   37.3600   13.4040 C.ar  288  TYR288     -0.0009
     65  CD2       31.1580   37.2170   13.5210 C.ar  288  TYR288     -0.0009
     66  CE1       28.6550   35.9830   13.6280 C.ar  288  TYR288      0.0417
     67  CE2       31.0760   35.8500   13.7450 C.ar  288  TYR288      0.0417
     68  CZ        29.8220   35.2380   13.8000 C.ar  288  TYR288      0.1957
     69  OH        29.7370   33.8830   14.0260 O.3   288  TYR288     -0.2866
     70  N         31.2900   30.5120   25.9780 N.3   308  ASP308     -0.1225
     71  CA        31.1140   29.7500   24.7600 C.3   308  ASP308      0.1805
     72  C         32.4880   29.3880   24.1940 C.2   308  ASP308      0.2597
     73  O         32.7810   28.2090   23.8630 O.2   308  ASP308     -0.2718
     74  CB        30.3480   30.6030   23.7550 C.3   308  ASP308      0.1424
     75  CG        29.8180   29.8140   22.5900 C.2   308  ASP308      0.3668
     76  OD1       29.4660   28.6190   22.7440 O.co2 308  ASP308     -0.2456
     77  OD2       29.7130   30.4300   21.5130 O.co2 308  ASP308     -0.2456
     78  N         33.3510   30.3920   24.0880 N.am  309  VAL309     -0.1980
     79  CA        34.6780   30.1120   23.5910 C.3   309  VAL309      0.1595
     80  C         35.4050   29.1220   24.5080 C.2   309  VAL309      0.2287
     81  O         36.0730   28.2030   24.0250 O.2   309  VAL309     -0.2864
     82  CB        35.4690   31.3920   23.3630 C.3   309  VAL309      0.0276
     83  CG1       36.8860   31.0520   22.9380 C.3   309  VAL309      0.0022
     84  CG2       34.7560   32.2270   22.3020 C.3   309  VAL309      0.0022
     85  N         34.3210   25.5570   23.7570 N.3   312  ALA312     -0.1231
     86  CA        34.6840   25.0660   22.4440 C.3   312  ALA312      0.1694
     87  C         36.1040   24.5790   22.5260 C.2   312  ALA312      0.2591
     88  O         36.4020   23.4600   22.1130 O.2   312  ALA312     -0.2718
     89  CB        34.5400   26.1610   21.4020 C.3   312  ALA312      0.0304
     90  N         36.9560   25.4000   23.1460 N.am  313  LEU313     -0.1980
     91  CA        38.3850   25.1500   23.1610 C.3   313  LEU313      0.1596
     92  C         38.6970   23.8800   23.9380 C.2   313  LEU313      0.2287
     93  O         39.7570   23.2510   23.7380 O.2   313  LEU313     -0.2864
     94  CB        39.1360   26.3340   23.7650 C.3   313  LEU313      0.0297
     95  CG        39.2210   27.6230   22.9550 C.3   313  LEU313      0.0022
     96  CD1       39.6630   28.7430   23.8780 C.3   313  LEU313      0.0001
     97  CD2       40.1880   27.5060   21.7880 C.3   313  LEU313      0.0001
     98  N         37.2200   18.9180   18.3580 N.3   317  ARG317     -0.1245
     99  CA        36.5090   19.4460   17.1870 C.3   317  ARG317      0.1563
    100  C         37.3130   19.0980   15.9140 C.2   317  ARG317      0.2260
    101  O         38.4050   18.5410   16.0290 O.2   317  ARG317     -0.2867
    102  CB        36.1310   20.9470   17.3660 C.3   317  ARG317      0.0307
    103  CG        37.2780   21.9440   17.4690 C.3   317  ARG317      0.0489
    104  CD        37.0980   22.9050   18.6520 C.3   317  ARG317      0.2205
    105  NE        38.3270   23.6740   18.9320 N.pl3 317  ARG317     -0.0865
    106  CZ        39.3720   23.2470   19.6580 C.cat 317  ARG317      0.5346
    107  NH1       39.3740   22.0410   20.2210 N.pl3 317  ARG317      0.1354
    108  NH2       40.4340   24.0310   19.8270 N.pl3 317  ARG317      0.1354
    109  N         41.3040   19.1910   15.7190 N.3   320  LYS320     -0.1245
    110  CA        41.8910   19.7840   16.9290 C.3   320  LYS320      0.1561
    111  C         41.4330   19.1100   18.2170 C.2   320  LYS320      0.2260
    112  O         40.2340   19.0440   18.5060 O.2   320  LYS320     -0.2867
    113  CB        41.5960   21.2950   16.9910 C.3   320  LYS320      0.0271
    114  CG        42.2390   22.0960   15.8660 C.3   320  LYS320      0.0035
    115  CD        41.7080   23.5190   15.7710 C.3   320  LYS320      0.0206
    116  CE        42.2710   24.2010   14.5270 C.3   320  LYS320      0.1093
    117  NZ        42.0140   25.6710   14.4940 N.3   320  LYS320     -0.1314
    118  N         41.9650   21.5730   24.2310 N.3   323  TRP323     -0.1241
    119  CA        43.0250   22.2370   24.9970 C.3   323  TRP323      0.1605
    120  C         42.9690   21.8620   26.4610 C.2   323  TRP323      0.2264
    121  O         41.8870   21.5800   27.0240 O.2   323  TRP323     -0.2867
    122  CB        42.9310   23.7600   24.8420 C.3   323  TRP323      0.0550
    123  CG        43.4330   24.2890   23.4910 C.ar  323  TRP323      0.0003
    124  CD1       43.7630   23.5490   22.3690 C.ar  323  TRP323      0.0946
    125  CD2       43.5550   25.7080   23.0810 C.ar  323  TRP323      0.0152
    126  NE1       44.1130   24.3930   21.3390 N.ar  323  TRP323     -0.2442
    127  CE2       43.9800   25.6950   21.6990 C.ar  323  TRP323      0.0810
    128  CE3       43.3160   26.9430   23.7190 C.ar  323  TRP323      0.0012
    129  CZ2       44.2020   26.8700   20.9900 C.ar  323  TRP323      0.0191
    130  CZ3       43.5720   28.1210   22.9850 C.ar  323  TRP323      0.0001
    131  CH2       43.9930   28.0790   21.6470 C.ar  323  TRP323      0.0015
    132  N         45.7210   31.2700   26.5290 N.3   331  PHE331     -0.1241
    133  CA        44.8840   31.8960   25.5150 C.3   331  PHE331      0.1605
    134  C         44.0360   33.0460   26.0770 C.2   331  PHE331      0.2264
    135  O         43.9910   34.1480   25.5070 O.2   331  PHE331     -0.2867
    136  CB        43.9980   30.8580   24.8320 C.3   331  PHE331      0.0534
    137  CG        42.9260   31.4620   23.9480 C.ar  331  PHE331     -0.0203
    138  CD1       43.2200   31.8580   22.6410 C.ar  331  PHE331     -0.0042
    139  CD2       41.6070   31.6550   24.4340 C.ar  331  PHE331     -0.0042
    140  CE1       42.2260   32.4300   21.8340 C.ar  331  PHE331     -0.0003
    141  CE2       40.6220   32.2220   23.6330 C.ar  331  PHE331     -0.0003
    142  CZ        40.9280   32.6060   22.3250 C.ar  331  PHE331     -0.0000
    143  N         39.2890   39.9860   22.3190 N.3   339  HIS339     -0.1241
    144  CA        38.0820   39.2170   22.1800 C.3   339  HIS339      0.1621
    145  C         37.1670   39.4660   23.3770 C.2   339  HIS339      0.2264
    146  O         35.9670   39.6750   23.2160 O.2   339  HIS339     -0.2867
    147  CB        38.4610   37.7440   22.0750 C.3   339  HIS339      0.0745
    148  CG        37.3930   36.8460   21.4580 C.ar  339  HIS339      0.0817
    149  ND1       36.0560   37.0690   21.5980 N.ar  339  HIS339     -0.2268
    150  CD2       37.5150   35.6590   20.7090 C.ar  339  HIS339      0.1154
    151  CE1       35.3680   36.0970   20.9490 C.ar  339  HIS339      0.1986
    152  NE2       36.2580   35.2330   20.4160 N.ar  339  HIS339     -0.2212
@<TRIPOS>BOND
     1    31    30    2
     2    30    29    1
     3    62    63    1
     4    62    59    1
     5    29    32    1
     6    29    28    1
     7    63    64   ar
     8    63    65   ar
     9    64    66   ar
    10    65    67   ar
    11    66    68   ar
    12    67    68   ar
    13    68    69    1
    14    32    33    1
    15    33    34    1
    16    59    58    1
    17    59    60    1
    18   117   116    1
    19   116   115    1
    20    34    35    1
    21    60    61    2
    22    35    36    1
    23   109   110    1
    24   115   114    1
    25   114   113    1
    26   100   101    2
    27   100    99    1
    28   110   113    1
    29   110   111    1
    30    57    55    1
    31    44    46   ar
    32    44    42   ar
    33    46    45   ar
    34    23    22    2
    35    41    42    1
    36    41    38    1
    37    42    43   ar
    38    99   102    1
    39    99    98    1
    40    45    43   ar
    41   102   103    1
    42   103   104    1
    43    54    55    2
    44    54    53    1
    45    55    56    1
    46    40    39    2
    47     1     2    1
    48    26    25   ar
    49    53    52    1
    50    22    21    1
    51   111   112    2
    52    25    27   ar
    53    25    24    1
    54    39    38    1
    55     8     7   ar
    56    38    37    1
    57   104   105    1
    58    24    21    1
    59     7     6    1
    60     7     9   ar
    61    21    20    1
    62   105   106    2
    63     6     5    1
    64    52    51    1
    65     2     5    1
    66     2     3    1
    67    51    48    1
    68     4     3    2
    69   106   108    1
    70   106   107    1
    71    47    48    1
    72   152   150   ar
    73   152   151   ar
    74    48    49    1
    75   150   148   ar
    76    50    49    2
    77   151   149   ar
    78   129   131   ar
    79   129   127   ar
    80   126   127   ar
    81   126   124   ar
    82    89    86    1
    83   148   149   ar
    84   148   147    1
    85    77    75   ar
    86   131   130   ar
    87   127   125   ar
    88    97    95    1
    89   140   142   ar
    90   140   138   ar
    91   147   144    1
    92    88    87    2
    93   144   143    1
    94   144   145    1
    95    84    82    1
    96   142   141   ar
    97   124   123   ar
    98    86    87    1
    99    86    85    1
   100    87    90   am
   101    75    76   ar
   102    75    74    1
   103   138   137   ar
   104    19    17   ar
   105    19    18   ar
   106    17    15   ar
   107    83    82    1
   108    95    94    1
   109    95    96    1
   110   130   128   ar
   111   125   123   ar
   112   125   128   ar
   113    90    91    1
   114    91    94    1
   115    91    92    1
   116   146   145    2
   117    82    79    1
   118   123   122    1
   119    18    16   ar
   120    79    78    1
   121    79    80    1
   122   141   139   ar
   123    15    16   ar
   124    15    14    1
   125    93    92    2
   126    74    71    1
   127    73    72    2
   128   137   139   ar
   129   137   136    1
   130    81    80    2
   131    78    72   am
   132    14    11    1
   133    72    71    1
   134   118   119    1
   135    71    70    1
   136   136   133    1
   137   122   119    1
   138   119   120    1
   139   135   134    2
   140   133   134    1
   141   133   132    1
   142    11    10    1
   143    11    12    1
   144    12    13    2
   145   120   121    2
