@<TRIPOS>MOLECULE
tmp/4me4B02.pdb
 109 107 0 0 0
SMALL
GASTEIGER

@<TRIPOS>ATOM
      1  N         24.4390   39.0230   20.3860 N.3   278  GLU278     -0.1245
      2  CA        25.7200   39.6090   20.8330 C.3   278  GLU278      0.1567
      3  C         26.8830   38.6250   20.9840 C.2   278  GLU278      0.2260
      4  O         28.0320   39.0460   21.0690 O.2   278  GLU278     -0.2867
      5  CB        25.5430   40.3060   22.1800 C.3   278  GLU278      0.0388
      6  CG        24.7100   41.5700   22.1740 C.3   278  GLU278      0.1160
      7  CD        24.5550   42.1360   23.5790 C.2   278  GLU278      0.3649
      8  OE1       24.6430   41.3440   24.5580 O.co2 278  GLU278     -0.2457
      9  OE2       24.3660   43.3720   23.7090 O.co2 278  GLU278     -0.2457
     10  N         30.0890   39.1340   19.1420 N.3   281  GLU281     -0.1231
     11  CA        30.7130   40.4450   19.2430 C.3   281  GLU281      0.1699
     12  C         31.9930   40.3780   20.1110 C.2   281  GLU281      0.2592
     13  O         32.1210   39.5260   21.0090 O.2   281  GLU281     -0.2718
     14  CB        29.7300   41.4540   19.7970 C.3   281  GLU281      0.0402
     15  CG        28.4780   41.5970   18.9540 C.3   281  GLU281      0.1161
     16  CD        28.6450   42.5180   17.7470 C.2   281  GLU281      0.3649
     17  OE1       29.8010   42.8770   17.3930 O.co2 281  GLU281     -0.2457
     18  OE2       27.5970   42.8810   17.1460 O.co2 281  GLU281     -0.2457
     19  N         32.9420   41.2640   19.8250 N.am  282  ARG282     -0.1966
     20  CA        34.2160   41.2500   20.5250 C.3   282  ARG282      0.1729
     21  C         34.4340   42.5280   21.2970 C.2   282  ARG282      0.2616
     22  O         33.9670   43.6050   20.8780 O.2   282  ARG282     -0.2715
     23  CB        35.3390   41.0210   19.5490 C.3   282  ARG282      0.0348
     24  CG        35.4690   39.5780   19.1230 C.3   282  ARG282      0.0492
     25  CD        36.5290   39.4560   18.0560 C.3   282  ARG282      0.2205
     26  NE        36.5000   38.1140   17.4930 N.pl3 282  ARG282     -0.0865
     27  CZ        37.4550   37.2050   17.6310 C.cat 282  ARG282      0.5346
     28  NH1       38.5700   37.4740   18.3270 N.pl3 282  ARG282      0.1354
     29  NH2       37.2760   36.0200   17.0680 N.pl3 282  ARG282      0.1354
     30  N         35.1220   42.4100   22.4350 N.am  283  TRP283     -0.1974
     31  CA        35.3100   43.5450   23.3180 C.3   283  TRP283      0.1640
     32  C         35.9520   44.6590   22.5050 C.2   283  TRP283      0.2290
     33  O         35.5380   45.8260   22.5730 O.2   283  TRP283     -0.2864
     34  CB        36.1200   43.1260   24.5470 C.3   283  TRP283      0.0576
     35  CG        36.4920   44.2940   25.4160 C.ar  283  TRP283      0.0006
     36  CD1       37.6760   45.0340   25.3780 C.ar  283  TRP283      0.0946
     37  CD2       35.6640   44.9490   26.4400 C.ar  283  TRP283      0.0152
     38  NE1       37.6490   46.0550   26.2930 N.ar  283  TRP283     -0.2442
     39  CE2       36.4730   46.0630   26.9690 C.ar  283  TRP283      0.0810
     40  CE3       34.3940   44.7250   26.9710 C.ar  283  TRP283      0.0012
     41  CZ2       36.0040   46.8980   27.9810 C.ar  283  TRP283      0.0191
     42  CZ3       33.9330   45.5730   27.9940 C.ar  283  TRP283      0.0001
     43  CH2       34.7150   46.6350   28.4790 C.ar  283  TRP283      0.0015
     44  N         28.2180   46.1930   24.2140 N.3   297  ILE297     -0.1245
     45  CA        27.7090   44.8280   24.3260 C.3   297  ILE297      0.1561
     46  C         27.1850   44.6700   25.7450 C.2   297  ILE297      0.2260
     47  O         27.8520   45.0890   26.6880 O.2   297  ILE297     -0.2867
     48  CB        28.8240   43.7870   24.1080 C.3   297  ILE297      0.0252
     49  CG1       29.6180   44.0930   22.8250 C.3   297  ILE297      0.0019
     50  CG2       28.2680   42.3700   24.1300 C.3   297  ILE297      0.0019
     51  CD1       31.0420   43.5770   22.8540 C.3   297  ILE297      0.0001
     52  N         25.9190   39.3010   27.1060 N.3   301  GLY301     -0.1210
     53  CA        26.6150   38.9120   25.8770 C.3   301  GLY301      0.1956
     54  C         28.0980   38.6650   26.1330 C.2   301  GLY301      0.2611
     55  O         28.6770   37.6330   25.7180 O.2   301  GLY301     -0.2717
     56  N         28.7070   39.6060   26.8550 N.am  302  ARG302     -0.1979
     57  CA        30.1180   39.5080   27.2150 C.3   302  ARG302      0.1597
     58  C         30.3990   38.2540   28.0300 C.2   302  ARG302      0.2287
     59  O         31.4160   37.5870   27.8110 O.2   302  ARG302     -0.2864
     60  CB        30.5610   40.7540   27.9680 C.3   302  ARG302      0.0334
     61  CG        30.9770   41.8890   27.0580 C.3   302  ARG302      0.0492
     62  CD        30.3000   43.1990   27.3980 C.3   302  ARG302      0.2205
     63  NE        30.7740   43.7370   28.6560 N.pl3 302  ARG302     -0.0865
     64  CZ        30.0980   44.5910   29.4140 C.cat 302  ARG302      0.5346
     65  NH1       28.9080   45.0330   29.0480 N.pl3 302  ARG302      0.1354
     66  NH2       30.6310   45.0030   30.5510 N.pl3 302  ARG302      0.1354
     67  N         30.1900   35.0800   25.5160 N.3   305  SER305     -0.1202
     68  CA        31.4000   34.8840   24.6630 C.3   305  SER305      0.2020
     69  C         32.4390   34.0970   25.4160 C.2   305  SER305      0.2618
     70  O         32.8810   33.0420   24.9520 O.2   305  SER305     -0.2717
     71  CB        32.0370   36.1970   24.2380 C.3   305  SER305      0.2103
     72  OG        31.0120   37.0610   23.7910 O.3   305  SER305     -0.2182
     73  N         32.7860   34.5860   26.6030 N.am  306  ILE306     -0.1979
     74  CA        33.8070   33.9300   27.4060 C.3   306  ILE306      0.1595
     75  C         33.4690   32.4570   27.6230 C.2   306  ILE306      0.2287
     76  O         34.3350   31.5820   27.4130 O.2   306  ILE306     -0.2864
     77  CB        34.0350   34.6590   28.7560 C.3   306  ILE306      0.0276
     78  CG1       34.6890   36.0080   28.4900 C.3   306  ILE306      0.0022
     79  CG2       34.8480   33.7990   29.7170 C.3   306  ILE306      0.0022
     80  CD1       34.6840   36.9530   29.6550 C.3   306  ILE306      0.0001
     81  N         39.2890   39.9860   22.3190 N.3   339  HIS339     -0.1226
     82  CA        38.0820   39.2170   22.1800 C.3   339  HIS339      0.1752
     83  C         37.1670   39.4660   23.3770 C.2   339  HIS339      0.2596
     84  O         35.9670   39.6750   23.2160 O.2   339  HIS339     -0.2718
     85  CB        38.4610   37.7440   22.0750 C.3   339  HIS339      0.0759
     86  CG        37.3930   36.8460   21.4580 C.ar  339  HIS339      0.0818
     87  ND1       36.0560   37.0690   21.5980 N.ar  339  HIS339     -0.2268
     88  CD2       37.5150   35.6590   20.7090 C.ar  339  HIS339      0.1154
     89  CE1       35.3680   36.0970   20.9490 C.ar  339  HIS339      0.1986
     90  NE2       36.2580   35.2330   20.4160 N.ar  339  HIS339     -0.2212
     91  N         37.7370   39.4980   24.5810 N.am  340  PHE340     -0.1962
     92  CA        36.9510   39.4630   25.8050 C.3   340  PHE340      0.1771
     93  C         37.0810   40.6380   26.7440 C.2   340  PHE340      0.2619
     94  O         38.1230   41.2830   26.8140 O.2   340  PHE340     -0.2715
     95  CB        37.3460   38.2430   26.5870 C.3   340  PHE340      0.0574
     96  CG        37.3120   37.0120   25.7950 C.ar  340  PHE340     -0.0200
     97  CD1       36.1150   36.5590   25.2590 C.ar  340  PHE340     -0.0042
     98  CD2       38.4700   36.2930   25.5690 C.ar  340  PHE340     -0.0042
     99  CE1       36.0680   35.3940   24.5100 C.ar  340  PHE340     -0.0003
    100  CE2       38.4340   35.1230   24.8170 C.ar  340  PHE340     -0.0003
    101  CZ        37.2280   34.6710   24.2890 C.ar  340  PHE340     -0.0000
    102  N         36.0160   40.8670   27.5090 N.am  341  ASP341     -0.1971
    103  CA        36.0040   41.7900   28.6380 C.3   341  ASP341      0.1709
    104  C         37.1630   41.4990   29.5970 C.2   341  ASP341      0.2293
    105  O         37.2760   40.3890   30.1220 O.2   341  ASP341     -0.2864
    106  CB        34.6690   41.6510   29.3800 C.3   341  ASP341      0.1436
    107  CG        34.4290   42.7530   30.3820 C.2   341  ASP341      0.3671
    108  OD1       35.2830   42.9760   31.2810 O.co2 341  ASP341     -0.2456
    109  OD2       33.3570   43.3840   30.2720 O.co2 341  ASP341     -0.2456
@<TRIPOS>BOND
     1    29    27    1
     2    18    16   ar
     3    17    16   ar
     4    26    27    2
     5    26    25    1
     6    27    28    1
     7    16    15    1
     8    25    24    1
     9    15    14    1
    10    24    23    1
    11    10    11    1
    12    11    14    1
    13    11    12    1
    14    23    20    1
    15    19    12   am
    16    19    20    1
    17    12    13    2
    18     1     2    1
    19    90    88   ar
    20    90    89   ar
    21    20    21    1
    22    88    86   ar
    23     2     3    1
    24     2     5    1
    25    22    21    2
    26    89    87   ar
    27     3     4    2
    28    21    30   am
    29    86    87   ar
    30    86    85    1
    31    85    82    1
    32     6     5    1
    33     6     7    1
    34    82    81    1
    35    82    83    1
    36    30    31    1
    37    32    33    2
    38    32    31    1
    39    49    51    1
    40    49    48    1
    41    84    83    2
    42    31    34    1
    43    83    91   am
    44     7     9   ar
    45     7     8   ar
    46    72    71    1
    47    48    50    1
    48    48    45    1
    49    44    45    1
    50    71    68    1
    51   101    99   ar
    52   101   100   ar
    53    45    46    1
    54    99    97   ar
    55    34    35    1
    56    91    92    1
    57    68    69    1
    58    68    67    1
    59   100    98   ar
    60    70    69    2
    61    97    96   ar
    62    36    35   ar
    63    36    38   ar
    64    35    37   ar
    65    69    73   am
    66    98    96   ar
    67    55    54    2
    68    46    47    2
    69    96    95    1
    70    92    95    1
    71    92    93    1
    72    53    54    1
    73    53    52    1
    74    54    56   am
    75    38    39   ar
    76    37    39   ar
    77    37    40   ar
    78    73    74    1
    79    93    94    2
    80    93   102   am
    81    56    57    1
    82    39    41   ar
    83    40    42   ar
    84    61    62    1
    85    61    60    1
    86    57    60    1
    87    57    58    1
    88    62    63    1
    89    74    75    1
    90    74    77    1
    91    76    75    2
    92   102   103    1
    93    59    58    2
    94    41    43   ar
    95    42    43   ar
    96    78    77    1
    97    78    80    1
    98   103   106    1
    99   103   104    1
   100    63    64    2
   101    77    79    1
   102    65    64    1
   103   106   107    1
   104    64    66    1
   105   104   105    2
   106   109   107   ar
   107   107   108   ar
