@<TRIPOS>MOLECULE
tmp/4mecE00.pdb
 172 162 0 0 0
SMALL
GASTEIGER

@<TRIPOS>ATOM
      1  N        -28.4070  -77.0140   90.6090 N.3     9  LYS9       -0.1245
      2  CA       -27.7950  -75.9270   91.3690 C.3     9  LYS9        0.1561
      3  C        -27.7430  -74.6420   90.5490 C.2     9  LYS9        0.2260
      4  O        -28.0690  -73.5620   91.0520 O.2     9  LYS9       -0.2867
      5  CB       -26.3940  -76.3230   91.8420 C.3     9  LYS9        0.0271
      6  CG       -26.4130  -77.4070   92.9020 C.3     9  LYS9        0.0035
      7  CD       -25.0670  -77.5460   93.6000 C.3     9  LYS9        0.0206
      8  CE       -23.9670  -77.9230   92.6220 C.3     9  LYS9        0.1093
      9  NZ       -24.1530  -79.2810   92.0130 N.3     9  LYS9       -0.1314
     10  N        -31.5720  -73.4200   89.6960 N.3    12  THR12      -0.1203
     11  CA       -32.3150  -72.8880   90.8440 C.3    12  THR12       0.1994
     12  C        -31.5930  -71.7290   91.5450 C.2    12  THR12       0.2617
     13  O        -31.9800  -71.3220   92.6440 O.2    12  THR12      -0.2717
     14  CB       -32.5950  -73.9930   91.8860 C.3    12  THR12       0.1784
     15  OG1      -31.3520  -74.5290   92.3590 O.3    12  THR12      -0.2211
     16  CG2      -33.4460  -75.1140   91.2850 C.3    12  THR12       0.0376
     17  N        -30.5480  -71.2010   90.9110 N.am   13  LYS13      -0.1979
     18  CA       -29.7460  -70.1360   91.5080 C.3    13  LYS13       0.1596
     19  C        -30.5450  -68.8430   91.6600 C.2    13  LYS13       0.2287
     20  O        -30.3870  -68.1320   92.6510 O.2    13  LYS13      -0.2864
     21  CB       -28.4640  -69.8960   90.6990 C.3    13  LYS13       0.0298
     22  CG       -27.3540  -69.1680   91.4510 C.3    13  LYS13       0.0038
     23  CD       -26.5010  -70.1110   92.2930 C.3    13  LYS13       0.0206
     24  CE       -27.0190  -70.2400   93.7190 C.3    13  LYS13       0.1093
     25  NZ       -26.2140  -71.2050   94.5190 N.3    13  LYS13      -0.1314
     26  N        -33.2680  -69.5170   94.5360 N.3    16  HIS16      -0.1241
     27  CA       -32.6770  -69.6960   95.8620 C.3    16  HIS16       0.1621
     28  C        -32.4340  -68.4040   96.5790 C.2    16  HIS16       0.2264
     29  O        -32.5430  -68.3450   97.8050 O.2    16  HIS16      -0.2867
     30  CB       -31.3780  -70.4710   95.8110 C.3    16  HIS16       0.0745
     31  CG       -30.8120  -70.7380   97.1750 C.ar   16  HIS16       0.0817
     32  ND1      -29.8330  -69.9920   97.7170 N.ar   16  HIS16      -0.2268
     33  CD2      -31.1830  -71.6620   98.1390 C.ar   16  HIS16       0.1154
     34  CE1      -29.5560  -70.4480   98.9540 C.ar   16  HIS16       0.1986
     35  NE2      -30.3800  -71.4790   99.2120 N.ar   16  HIS16      -0.2212
     36  N        -35.6590  -67.1780   97.8090 N.3    19  ALA19      -0.1231
     37  CA       -36.0200  -67.9620   98.9810 C.3    19  ALA19       0.1694
     38  C        -35.4370  -67.3820  100.2670 C.2    19  ALA19       0.2591
     39  O        -36.1640  -67.0830  101.2130 O.2    19  ALA19      -0.2718
     40  CB       -35.5620  -69.4010   98.7990 C.3    19  ALA19       0.0304
     41  N        -34.1170  -67.2320  100.3020 N.am   20  GLU20      -0.1979
     42  CA       -33.4490  -66.7830  101.5220 C.3    20  GLU20       0.1602
     43  C        -33.5360  -65.2800  101.7290 C.2    20  GLU20       0.2287
     44  O        -33.5560  -64.8170  102.8670 O.2    20  GLU20      -0.2864
     45  CB       -31.9990  -67.2750  101.5870 C.3    20  GLU20       0.0415
     46  CG       -31.0400  -66.6760  100.5700 C.3    20  GLU20       0.1163
     47  CD       -29.6460  -67.2730  100.6750 C.2    20  GLU20       0.3649
     48  OE1      -29.1830  -67.5180  101.8120 O.co2  20  GLU20      -0.2457
     49  OE2      -29.0110  -67.4950   99.6210 O.co2  20  GLU20      -0.2457
     50  N        -37.4120  -65.1340  106.0470 N.3    25  MET25      -0.1245
     51  CA       -36.1210  -65.7790  106.2520 C.3    25  MET25       0.1570
     52  C        -35.0330  -64.8050  106.6900 C.2    25  MET25       0.2261
     53  O        -34.1070  -65.1980  107.3950 O.2    25  MET25      -0.2867
     54  CB       -35.6910  -66.5510  105.0030 C.3    25  MET25       0.0387
     55  CG       -36.2950  -67.9430  104.9100 C.3    25  MET25       0.0595
     56  SD       -35.5900  -69.0710  106.1300 S.3    25  MET25      -0.1393
     57  CE       -36.9100  -70.2690  106.2950 C.3    25  MET25       0.0692
     58  N        -32.5460  -65.2480  109.7730 N.3    29  GLN29      -0.1245
     59  CA       -31.1010  -65.1180  109.5910 C.3    29  GLN29       0.1566
     60  C        -30.4550  -64.3390  110.7300 C.2    29  GLN29       0.2260
     61  O        -29.5630  -64.8500  111.4100 O.2    29  GLN29      -0.2867
     62  CB       -30.7880  -64.4360  108.2560 C.3    29  GLN29       0.0367
     63  CG       -30.7680  -65.3700  107.0580 C.3    29  GLN29       0.0905
     64  CD       -29.4230  -66.0430  106.8520 C.2    29  GLN29       0.2608
     65  OE1      -28.6380  -66.2080  107.7890 O.2    29  GLN29      -0.2717
     66  NE2      -29.1470  -66.4340  105.6130 N.am   29  GLN29      -0.0878
     67  N        -34.6280  -82.9310   96.6950 N.3   124  TYR124     -0.1227
     68  CA       -33.4660  -82.0740   96.4700 C.3   124  TYR124      0.1736
     69  C        -33.6180  -80.7350   97.1740 C.2   124  TYR124      0.2596
     70  O        -32.6820  -80.2700   97.8210 O.2   124  TYR124     -0.2718
     71  CB       -33.2190  -81.8480   94.9690 C.3   124  TYR124      0.0548
     72  CG       -32.1800  -80.7760   94.6680 C.ar  124  TYR124     -0.0200
     73  CD1      -30.8140  -81.0580   94.7380 C.ar  124  TYR124     -0.0009
     74  CD2      -32.5650  -79.4790   94.3180 C.ar  124  TYR124     -0.0009
     75  CE1      -29.8650  -80.0800   94.4710 C.ar  124  TYR124      0.0417
     76  CE2      -31.6250  -78.4970   94.0500 C.ar  124  TYR124      0.0417
     77  CZ       -30.2780  -78.8000   94.1270 C.ar  124  TYR124      0.1957
     78  OH       -29.3530  -77.8200   93.8550 O.3   124  TYR124     -0.2866
     79  N        -34.7970  -80.1320   97.0240 N.am  125  THR125     -0.1939
     80  CA       -35.0860  -78.7920   97.5270 C.3   125  THR125      0.2028
     81  C        -35.0110  -78.7100   99.0480 C.2   125  THR125      0.2642
     82  O        -34.4480  -77.7570   99.6060 O.2   125  THR125     -0.2714
     83  CB       -36.4820  -78.3290   97.0680 C.3   125  THR125      0.1808
     84  OG1      -36.5430  -78.3440   95.6380 O.3   125  THR125     -0.2208
     85  CG2      -36.7810  -76.9200   97.5540 C.3   125  THR125      0.0379
     86  N        -35.5860  -79.7130   99.7070 N.am  126  ARG126     -0.1977
     87  CA       -35.7310  -79.7080  101.1600 C.3   126  ARG126      0.1597
     88  C        -34.5210  -80.2680  101.8970 C.2   126  ARG126      0.2287
     89  O        -33.9590  -79.6110  102.7750 O.2   126  ARG126     -0.2864
     90  CB       -36.9930  -80.4750  101.5810 C.3   126  ARG126      0.0334
     91  CG       -38.3180  -79.7730  101.2990 C.3   126  ARG126      0.0492
     92  CD       -38.3930  -78.3700  101.8950 C.3   126  ARG126      0.2205
     93  NE       -37.9870  -78.3210  103.3000 N.pl3 126  ARG126     -0.0865
     94  CZ       -37.8730  -77.2060  104.0170 C.cat 126  ARG126      0.5346
     95  NH1      -38.1390  -76.0230  103.4780 N.pl3 126  ARG126      0.1354
     96  NH2      -37.4920  -77.2750  105.2840 N.pl3 126  ARG126      0.1354
     97  N        -31.3900  -81.1060  100.9640 N.3   128  LEU128     -0.1231
     98  CA       -30.0900  -80.4730  100.7280 C.3   128  LEU128      0.1693
     99  C        -29.9490  -79.1420  101.4500 C.2   128  LEU128      0.2592
    100  O        -28.8390  -78.7570  101.8200 O.2   128  LEU128     -0.2718
    101  CB       -29.8230  -80.2820   99.2330 C.3   128  LEU128      0.0284
    102  CG       -29.3490  -81.4930   98.4240 C.3   128  LEU128      0.0019
    103  CD1      -27.9650  -81.9610   98.8590 C.3   128  LEU128      0.0001
    104  CD2      -30.3570  -82.6270   98.5140 C.3   128  LEU128      0.0001
    105  N        -31.0730  -78.4510  101.6370 N.am  129  GLY129     -0.1957
    106  CA       -31.1090  -77.1930  102.3780 C.3   129  GLY129      0.1869
    107  C        -30.9830  -77.3960  103.8780 C.2   129  GLY129      0.2309
    108  O        -30.4800  -76.5240  104.5910 O.2   129  GLY129     -0.2863
    109  N        -27.1360  -78.2410  105.0120 N.3   132  SER132     -0.1202
    110  CA       -26.1430  -77.2080  104.7300 C.3   132  SER132      0.2020
    111  C        -26.5500  -75.8630  105.3290 C.2   132  SER132      0.2619
    112  O        -25.8410  -75.3210  106.1770 O.2   132  SER132     -0.2717
    113  CB       -25.9150  -77.0720  103.2230 C.3   132  SER132      0.2103
    114  OG       -27.1310  -76.7750  102.5670 O.3   132  SER132     -0.2182
    115  N        -27.6870  -75.3330  104.8790 N.am  133  GLY133     -0.1956
    116  CA       -28.1980  -74.0470  105.3500 C.3   133  GLY133      0.1869
    117  C        -28.8590  -74.1390  106.7120 C.2   133  GLY133      0.2309
    118  O        -28.7320  -73.2320  107.5370 O.2   133  GLY133     -0.2863
    119  N        -26.5860  -74.3210  110.2780 N.3   136  VAL136     -0.1231
    120  CA       -26.2030  -73.0390  110.8690 C.3   136  VAL136      0.1692
    121  C        -27.3860  -72.4350  111.6190 C.2   136  VAL136      0.2591
    122  O        -27.2080  -71.8090  112.6670 O.2   136  VAL136     -0.2718
    123  CB       -25.7100  -72.0410  109.7960 C.3   136  VAL136      0.0266
    124  CG1      -25.3830  -70.6900  110.4170 C.3   136  VAL136      0.0020
    125  CG2      -24.4920  -72.5910  109.0670 C.3   136  VAL136      0.0020
    126  N        -28.5840  -72.6390  111.0710 N.am  137  LEU137     -0.1980
    127  CA       -29.8340  -72.1070  111.6260 C.3   137  LEU137      0.1596
    128  C        -30.2020  -72.6880  112.9900 C.2   137  LEU137      0.2287
    129  O        -30.9660  -72.0720  113.7400 O.2   137  LEU137     -0.2864
    130  CB       -30.9940  -72.3280  110.6490 C.3   137  LEU137      0.0297
    131  CG       -30.9950  -71.5470  109.3320 C.3   137  LEU137      0.0022
    132  CD1      -32.0900  -72.0580  108.4060 C.3   137  LEU137      0.0001
    133  CD2      -31.1460  -70.0510  109.5740 C.3   137  LEU137      0.0001
    134  N        -23.4880  -84.9180  101.6410 N.3   169  LYS169     -0.1245
    135  CA       -23.9420  -83.9690  100.6290 C.3   169  LYS169      0.1561
    136  C        -23.2980  -84.2780   99.2830 C.2   169  LYS169      0.2260
    137  O        -23.9430  -84.1500   98.2470 O.2   169  LYS169     -0.2867
    138  CB       -23.6320  -82.5300  101.0460 C.3   169  LYS169      0.0271
    139  CG       -24.2000  -81.4280  100.1530 C.3   169  LYS169      0.0035
    140  CD       -24.0020  -80.0880  100.8590 C.3   169  LYS169      0.0206
    141  CE       -24.0190  -78.8930   99.9160 C.3   169  LYS169      0.1093
    142  NZ       -25.3200  -78.7130   99.2290 N.3   169  LYS169     -0.1314
    143  N        -39.8010  -74.7510   95.2450 N.3   197  PHE197     -0.1241
    144  CA       -39.3620  -73.5060   95.8630 C.3   197  PHE197      0.1605
    145  C        -40.5160  -72.5210   96.0080 C.2   197  PHE197      0.2264
    146  O        -40.6650  -71.8970   97.0550 O.2   197  PHE197     -0.2867
    147  CB       -38.2440  -72.8650   95.0400 C.3   197  PHE197      0.0534
    148  CG       -36.8650  -73.1300   95.5690 C.ar  197  PHE197     -0.0203
    149  CD1      -36.1610  -74.2650   95.1870 C.ar  197  PHE197     -0.0042
    150  CD2      -36.2610  -72.2330   96.4400 C.ar  197  PHE197     -0.0042
    151  CE1      -34.8850  -74.5080   95.6740 C.ar  197  PHE197     -0.0003
    152  CE2      -34.9860  -72.4710   96.9300 C.ar  197  PHE197     -0.0003
    153  CZ       -34.2950  -73.6090   96.5470 C.ar  197  PHE197     -0.0000
    154  N        -42.7460  -73.2060   98.7760 N.3   200  ASN200     -0.1240
    155  CA       -41.9940  -72.9150   99.9870 C.3   200  ASN200      0.1653
    156  C        -41.9020  -71.4080  100.2280 C.2   200  ASN200      0.2266
    157  O        -42.0230  -70.9460  101.3660 O.2   200  ASN200     -0.2867
    158  CB       -40.5930  -73.5300   99.8880 C.3   200  ASN200      0.1155
    159  CG       -40.0970  -74.0920  101.2090 C.2   200  ASN200      0.2627
    160  OD1      -39.5020  -75.1710  101.2500 O.2   200  ASN200     -0.2716
    161  ND2      -40.3400  -73.3680  102.2960 N.am  200  ASN200     -0.0877
    162  N        -43.6660  -68.9060  103.3720 N.3   204  PHE204     -0.1241
    163  CA       -43.0000  -67.8890  104.1840 C.3   204  PHE204      0.1605
    164  C        -43.7560  -66.5710  104.1420 C.2   204  PHE204      0.2264
    165  O        -43.8660  -65.8790  105.1540 O.2   204  PHE204     -0.2867
    166  CB       -41.5700  -67.6480  103.6960 C.3   204  PHE204      0.0534
    167  CG       -40.6940  -68.8680  103.7290 C.ar  204  PHE204     -0.0203
    168  CD1      -40.6930  -69.7210  104.8310 C.ar  204  PHE204     -0.0042
    169  CD2      -39.8430  -69.1480  102.6660 C.ar  204  PHE204     -0.0042
    170  CE1      -39.8810  -70.8450  104.8570 C.ar  204  PHE204     -0.0003
    171  CE2      -39.0250  -70.2660  102.6900 C.ar  204  PHE204     -0.0003
    172  CZ       -39.0410  -71.1130  103.7880 C.ar  204  PHE204     -0.0000
@<TRIPOS>BOND
     1    10    11    1
     2     3     4    2
     3     3     2    1
     4     1     2    1
     5    21    22    1
     6    21    18    1
     7    11    12    1
     8    11    14    1
     9    17    18    1
    10    17    12   am
    11    16    14    1
    12     2     5    1
    13    22    23    1
    14    18    19    1
    15    12    13    2
    16    19    20    2
    17     5     6    1
    18    14    15    1
    19     9     8    1
    20    23    24    1
    21     8     7    1
    22     6     7    1
    23    24    25    1
    24    78    77    1
    25    76    77   ar
    26    76    74   ar
    27    77    75   ar
    28    74    72   ar
    29    75    73   ar
    30    26    27    1
    31    72    73   ar
    32    72    71    1
    33    71    68    1
    34   147   148    1
    35   147   144    1
    36   149   148   ar
    37   149   151   ar
    38   143   144    1
    39   148   150   ar
    40    84    83    1
    41   151   153   ar
    42    30    27    1
    43    30    31    1
    44    27    28    1
    45   144   145    1
    46   145   146    2
    47   150   152   ar
    48    68    67    1
    49    68    69    1
    50   153   152   ar
    51    28    29    2
    52    79    69   am
    53    79    80    1
    54    83    80    1
    55    83    85    1
    56    69    70    2
    57    31    32   ar
    58    31    33   ar
    59    80    81    1
    60    32    34   ar
    61    36    37    1
    62    33    35   ar
    63   137   136    2
    64   102   104    1
    65   102   103    1
    66   102   101    1
    67   154   155    1
    68    40    37    1
    69    34    35   ar
    70    37    38    1
    71    81    82    2
    72    81    86   am
    73   142   141    1
    74   101    98    1
    75   136   135    1
    76    49    47   ar
    77    86    87    1
    78   158   155    1
    79   158   159    1
    80   141   140    1
    81   155   156    1
    82   139   140    1
    83   139   138    1
    84   156   157    2
    85    38    41   am
    86    38    39    2
    87    41    42    1
    88    46    47    1
    89    46    45    1
    90   135   138    1
    91   135   134    1
    92    47    48   ar
    93    98    97    1
    94    98    99    1
    95    87    90    1
    96    87    88    1
    97   159   160    2
    98   159   161   am
    99    91    90    1
   100    91    92    1
   101    99   105   am
   102    99   100    2
   103    42    45    1
   104    42    43    1
   105   105   106    1
   106    43    44    2
   107    92    93    1
   108    88    89    2
   109   106   107    1
   110   114   113    1
   111   169   171   ar
   112   169   167   ar
   113   171   172   ar
   114   113   110    1
   115    93    94    2
   116   162   163    1
   117    95    94    1
   118   166   167    1
   119   166   163    1
   120   167   168   ar
   121   172   170   ar
   122   107   108    2
   123    94    96    1
   124   164   163    1
   125   164   165    2
   126   110   109    1
   127   110   111    1
   128   168   170   ar
   129   115   111   am
   130   115   116    1
   131    55    54    1
   132    55    56    1
   133    54    51    1
   134   111   112    2
   135   116   117    1
   136    66    64   am
   137    50    51    1
   138    56    57    1
   139    51    52    1
   140    52    53    2
   141   117   118    2
   142    64    63    1
   143    64    65    2
   144    63    62    1
   145    62    59    1
   146   132   131    1
   147   125   123    1
   148   131   133    1
   149   131   130    1
   150    59    58    1
   151    59    60    1
   152   123   124    1
   153   123   120    1
   154   119   120    1
   155   130   127    1
   156    60    61    2
   157   120   121    1
   158   126   121   am
   159   126   127    1
   160   121   122    2
   161   127   128    1
   162   128   129    2
