@<TRIPOS>MOLECULE
tmp/4medA00.pdb
 169 158 0 0 0
SMALL
GASTEIGER

@<TRIPOS>ATOM
      1  N         81.4950   39.0730    5.7090 N.3    12  LEU12      -0.1231
      2  CA        80.0890   38.8490    6.0410 C.3    12  LEU12       0.1693
      3  C         79.8760   37.5470    6.7430 C.2    12  LEU12       0.2592
      4  O         78.9310   37.3790    7.4690 O.2    12  LEU12      -0.2718
      5  CB        79.2580   38.7720    4.7900 C.3    12  LEU12       0.0284
      6  CG        78.9700   40.0950    4.1020 C.3    12  LEU12       0.0019
      7  CD1       78.2470   39.8350    2.7780 C.3    12  LEU12       0.0001
      8  CD2       78.1500   40.9820    5.0340 C.3    12  LEU12       0.0001
      9  N         80.7270   36.5860    6.4890 N.am   13  GLY13      -0.1957
     10  CA        80.5070   35.2810    7.0720 C.3    13  GLY13       0.1869
     11  C         81.5450   34.3040    6.5760 C.2    13  GLY13       0.2309
     12  O         82.2620   34.5590    5.5870 O.2    13  GLY13      -0.2863
     13  N         81.3030   26.9920    3.3980 N.3    17  PHE17      -0.1241
     14  CA        80.9760   27.4830    2.0800 C.3    17  PHE17       0.1605
     15  C         82.0400   28.4740    1.6190 C.2    17  PHE17       0.2264
     16  O         81.8570   29.2020    0.6340 O.2    17  PHE17      -0.2867
     17  CB        79.6410   28.1960    2.1760 C.3    17  PHE17       0.0534
     18  CG        79.5420   29.2100    3.3240 C.ar   17  PHE17      -0.0203
     19  CD1       80.1580   30.4810    3.2350 C.ar   17  PHE17      -0.0042
     20  CD2       78.7960   28.9100    4.4820 C.ar   17  PHE17      -0.0042
     21  CE1       80.0500   31.3960    4.2730 C.ar   17  PHE17      -0.0003
     22  CE2       78.6810   29.8340    5.5070 C.ar   17  PHE17      -0.0003
     23  CZ        79.3080   31.0750    5.3970 C.ar   17  PHE17      -0.0000
     24  N         82.8140   34.7700    2.9250 N.3    20  VAL20      -0.1245
     25  CA        82.1320   35.7280    2.0690 C.3    20  VAL20       0.1561
     26  C         82.4960   37.0990    2.5600 C.2    20  VAL20       0.2260
     27  O         82.5830   37.2820    3.7610 O.2    20  VAL20      -0.2867
     28  CB        80.6110   35.5060    2.1100 C.3    20  VAL20       0.0252
     29  CG1       79.8780   36.5300    1.2600 C.3    20  VAL20       0.0019
     30  CG2       80.2660   34.0810    1.6270 C.3    20  VAL20       0.0019
     31  N         78.5470   40.2510   -3.0760 N.3    33  ALA33      -0.1245
     32  CA        79.1910   39.4230   -2.0870 C.3    33  ALA33       0.1562
     33  C         80.2650   38.6430   -2.7950 C.2    33  ALA33       0.2260
     34  O         80.0430   38.1180   -3.8770 O.2    33  ALA33      -0.2867
     35  CB        78.1910   38.4770   -1.4810 C.3    33  ALA33       0.0290
     36  N         82.8280   35.4560   -2.6350 N.3    35  LYS35      -0.1245
     37  CA        82.8880   34.1980   -1.9190 C.3    35  LYS35       0.1561
     38  C         84.0840   33.4450   -2.3740 C.2    35  LYS35       0.2260
     39  O         84.2030   33.1150   -3.5470 O.2    35  LYS35      -0.2867
     40  CB        81.6320   33.3500   -2.1100 C.3    35  LYS35       0.0271
     41  CG        81.5800   32.1350   -1.1700 C.3    35  LYS35       0.0035
     42  CD        80.2800   31.3410   -1.3110 C.3    35  LYS35       0.0206
     43  CE        80.3990   30.3470   -2.4420 C.3    35  LYS35       0.1093
     44  NZ        80.7480   28.9910   -1.9570 N.3    35  LYS35      -0.1314
     45  N         79.1420   24.0330   -7.7460 N.3    57  GLU57      -0.1245
     46  CA        78.3550   25.1640   -7.3290 C.3    57  GLU57       0.1567
     47  C         78.1960   26.1760   -8.4760 C.2    57  GLU57       0.2260
     48  O         77.1010   26.7220   -8.7240 O.2    57  GLU57      -0.2867
     49  CB        78.9580   25.7750   -6.0520 C.3    57  GLU57       0.0388
     50  CG        78.4580   27.1590   -5.7370 C.3    57  GLU57       0.1160
     51  CD        78.9250   27.6530   -4.3720 C.2    57  GLU57       0.3649
     52  OE1       80.0820   27.3230   -3.9920 O.co2  57  GLU57      -0.2457
     53  OE2       78.1100   28.3880   -3.7100 O.co2  57  GLU57      -0.2457
     54  N         69.6480   34.2170   -5.2090 N.3    72  ILE72      -0.1245
     55  CA        70.7860   35.1210   -5.3030 C.3    72  ILE72       0.1561
     56  C         71.6050   34.5960   -6.4650 C.2    72  ILE72       0.2260
     57  O         72.0920   33.4480   -6.4270 O.2    72  ILE72      -0.2867
     58  CB        71.6320   35.1560   -4.0140 C.3    72  ILE72       0.0252
     59  CG1       71.5360   36.4980   -3.3250 C.3    72  ILE72       0.0019
     60  CG2       73.1170   35.0680   -4.2930 C.3    72  ILE72       0.0019
     61  CD1       70.2470   36.7440   -2.6140 C.3    72  ILE72       0.0001
     62  N         78.4960   37.3550   -6.2060 N.3    88  LEU88      -0.1231
     63  CA        77.0490   37.1470   -6.1440 C.3    88  LEU88       0.1693
     64  C         76.3230   38.4380   -5.8120 C.2    88  LEU88       0.2592
     65  O         76.9360   39.3960   -5.3610 O.2    88  LEU88      -0.2718
     66  CB        76.7770   36.1450   -5.0420 C.3    88  LEU88       0.0284
     67  CG        77.5960   34.8700   -5.2140 C.3    88  LEU88       0.0019
     68  CD1       78.0150   34.2750   -3.8910 C.3    88  LEU88       0.0001
     69  CD2       76.7510   33.8840   -5.9780 C.3    88  LEU88       0.0001
     70  N         75.0060   38.4540   -5.9850 N.am   89  GLU89      -0.1966
     71  CA        74.1980   39.6210   -5.5810 C.3    89  GLU89       0.1733
     72  C         74.2790   39.8260   -4.0880 C.2    89  GLU89       0.2616
     73  O         74.4710   38.8650   -3.3400 O.2    89  GLU89      -0.2715
     74  CB        72.7130   39.4650   -5.9170 C.3    89  GLU89       0.0429
     75  CG        72.3590   39.0740   -7.3380 C.3    89  GLU89       0.1163
     76  CD        70.8760   39.2690   -7.5940 C.2    89  GLU89       0.3649
     77  OE1       70.0640   38.3110   -7.4130 O.co2  89  GLU89      -0.2457
     78  OE2       70.5300   40.4100   -7.9560 O.co2  89  GLU89      -0.2457
     79  N         74.1030   41.0800   -3.6710 N.am   90  ARG90      -0.1964
     80  CA        73.9710   41.4340   -2.2620 C.3    90  ARG90       0.1714
     81  C         72.8530   42.4290   -2.0640 C.2    90  ARG90       0.2458
     82  O         72.9740   43.6050   -2.4020 O.2    90  ARG90      -0.2730
     83  CB        75.2620   42.0090   -1.6930 C.3    90  ARG90       0.0347
     84  CG        75.1110   42.4700   -0.2410 C.3    90  ARG90       0.0492
     85  CD        76.4670   42.6730    0.4190 C.3    90  ARG90       0.2205
     86  NE        77.2770   43.7040   -0.2480 N.pl3  90  ARG90      -0.0865
     87  CZ        77.2170   45.0150    0.0030 C.cat  90  ARG90       0.5346
     88  NH1       76.3660   45.4940    0.9080 N.pl3  90  ARG90       0.1354
     89  NH2       78.0010   45.8570   -0.6790 N.pl3  90  ARG90       0.1354
     90  N         71.7490   41.9590   -1.5150 N.am   91  PRO91      -0.2727
     91  CA        70.6860   42.8380   -1.0480 C.3    91  PRO91       0.1402
     92  C         71.1660   43.8210    0.0090 C.2    91  PRO91       0.2269
     93  O         72.0150   43.4970    0.8400 O.2    91  PRO91      -0.2865
     94  CB        69.6670   41.8570   -0.4130 C.3    91  PRO91       0.0296
     95  CG        69.9710   40.5130   -0.9850 C.3    91  PRO91       0.0237
     96  CD        71.4220   40.5270   -1.3690 C.3    91  PRO91       0.0939
     97  N         69.8980   43.5570    4.5500 N.3    94  VAL94      -0.1231
     98  CA        69.6840   42.1320    4.4110 C.3    94  VAL94       0.1692
     99  C         69.7720   41.4290    5.7420 C.2    94  VAL94       0.2592
    100  O         70.3440   41.9550    6.6560 O.2    94  VAL94      -0.2718
    101  CB        70.7620   41.5420    3.4880 C.3    94  VAL94       0.0266
    102  CG1       72.0760   41.4360    4.2160 C.3    94  VAL94       0.0020
    103  CG2       70.3260   40.1970    2.9460 C.3    94  VAL94       0.0020
    104  N         69.2000   40.2330    5.8370 N.am   95  GLN95      -0.1966
    105  CA        69.2750   39.4310    7.0580 C.3    95  GLN95       0.1733
    106  C         68.8380   37.9860    6.7970 C.2    95  GLN95       0.2616
    107  O         67.8480   37.7370    6.1050 O.2    95  GLN95      -0.2715
    108  CB        68.4000   40.0300    8.1550 C.3    95  GLN95       0.0408
    109  CG        68.7370   39.4380    9.5130 C.3    95  GLN95       0.0908
    110  CD        67.8490   39.9240   10.6370 C.2    95  GLN95       0.2608
    111  OE1       66.6790   40.3240   10.4410 O.2    95  GLN95      -0.2717
    112  NE2       68.3860   39.8490   11.8440 N.am   95  GLN95      -0.0878
    113  N         69.5730   37.0180    7.3300 N.am   96  ASP96      -0.1971
    114  CA        69.2370   35.6700    7.0310 C.3    96  ASP96       0.1709
    115  C         68.0940   35.3000    7.9650 C.2    96  ASP96       0.2293
    116  O         67.8720   35.9260    9.0170 O.2    96  ASP96      -0.2864
    117  CB        70.4550   34.7320    7.0250 C.3    96  ASP96       0.1436
    118  CG        70.9760   34.4180    8.3820 C.2    96  ASP96       0.3671
    119  OD1       70.1630   34.2660    9.3080 O.co2  96  ASP96      -0.2456
    120  OD2       72.2100   34.2780    8.5130 O.co2  96  ASP96      -0.2456
    121  N         68.7730   34.4360   11.6710 N.3    99  ASP99      -0.1239
    122  CA        68.9960   35.5360   12.6190 C.3    99  ASP99       0.1674
    123  C         67.6970   36.2250   12.8740 C.2    99  ASP99       0.2266
    124  O         67.4370   36.7030   13.9650 O.2    99  ASP99      -0.2867
    125  CB        69.9890   36.5890   12.1080 C.3    99  ASP99       0.1410
    126  CG        71.4470   36.1280   12.1800 C.2    99  ASP99       0.3668
    127  OD1       71.7380   35.0890   12.8290 O.co2  99  ASP99      -0.2456
    128  OD2       72.3070   36.8180   11.5780 O.co2  99  ASP99      -0.2456
    129  N         69.1670   29.4360    7.3630 N.3   139  GLU139     -0.1231
    130  CA        70.4100   30.1780    7.1420 C.3   139  GLU139      0.1699
    131  C         70.7960   30.3000    5.6770 C.2   139  GLU139      0.2592
    132  O         71.6880   31.1010    5.3450 O.2   139  GLU139     -0.2718
    133  CB        71.6090   29.6730    7.9890 C.3   139  GLU139      0.0402
    134  CG        71.6590   28.2160    8.4360 C.3   139  GLU139      0.1161
    135  CD        72.7930   27.9570    9.4290 C.2   139  GLU139      0.3649
    136  OE1       73.9510   28.3290    9.1560 O.co2 139  GLU139     -0.2457
    137  OE2       72.5340   27.3820   10.4920 O.co2 139  GLU139     -0.2457
    138  N         70.1290   29.5420    4.8040 N.am  140  ASN140     -0.1974
    139  CA        70.3230   29.7300    3.3700 C.3   140  ASN140      0.1688
    140  C         69.2260   30.5360    2.7150 C.2   140  ASN140      0.2292
    141  O         69.0280   30.4320    1.5310 O.2   140  ASN140     -0.2864
    142  CB        70.5120   28.4080    2.6560 C.3   140  ASN140      0.1181
    143  CG        71.7560   27.7000    3.1100 C.2   140  ASN140      0.2629
    144  OD1       72.7520   28.3360    3.4510 O.2   140  ASN140     -0.2716
    145  ND2       71.7180   26.3670    3.1150 N.am  140  ASN140     -0.0877
    146  N         68.1110   34.5590    2.5560 N.3   142  LEU142     -0.1245
    147  CA        68.2720   35.9440    2.8920 C.3   142  LEU142      0.1561
    148  C         66.9510   36.6600    2.6550 C.2   142  LEU142      0.2260
    149  O         66.1750   36.3250    1.7590 O.2   142  LEU142     -0.2867
    150  CB        69.3500   36.5830    2.0300 C.3   142  LEU142      0.0270
    151  CG        70.6670   35.8120    1.8870 C.3   142  LEU142      0.0019
    152  CD1       71.7570   36.5990    1.1620 C.3   142  LEU142      0.0001
    153  CD2       71.1890   35.4170    3.2500 C.3   142  LEU142      0.0001
    154  N         70.4320   30.8520   -0.9440 N.3   153  ILE153     -0.1231
    155  CA        71.8480   31.0030   -1.1340 C.3   153  ILE153      0.1692
    156  C         72.8380   29.8660   -1.2400 C.2   153  ILE153      0.2592
    157  O         73.8880   30.1030   -1.8570 O.2   153  ILE153     -0.2718
    158  CB        72.4920   32.0370   -0.1820 C.3   153  ILE153      0.0266
    159  CG1       72.2410   31.6890    1.2690 C.3   153  ILE153      0.0019
    160  CG2       72.0590   33.4440   -0.5390 C.3   153  ILE153      0.0020
    161  CD1       73.2270   32.3780    2.2090 C.3   153  ILE153      0.0001
    162  N         72.6870   28.7040   -0.6570 N.am  154  ASP154     -0.1974
    163  CA        73.9430   27.8840   -0.7030 C.3   154  ASP154      0.1709
    164  C         73.8680   26.6140   -1.5530 C.2   154  ASP154      0.2293
    165  O         73.3290   25.5570   -1.1340 O.2   154  ASP154     -0.2864
    166  CB        74.4840   27.6110    0.7070 C.3   154  ASP154      0.1436
    167  CG        75.8360   26.9060    0.7120 C.2   154  ASP154      0.3671
    168  OD1       76.3140   26.4090   -0.3080 O.co2 154  ASP154     -0.2456
    169  OD2       76.4390   26.8200    1.7830 O.co2 154  ASP154     -0.2456
@<TRIPOS>BOND
     1    48    47    2
     2    47    46    1
     3    78    76   ar
     4    45    46    1
     5    76    77   ar
     6    76    75    1
     7    75    74    1
     8    46    49    1
     9    56    57    2
    10    56    55    1
    11    62    63    1
    12    63    64    1
    13    63    66    1
    14    49    50    1
    15    70    64   am
    16    70    71    1
    17    69    67    1
    18    74    71    1
    19    64    65    2
    20    50    51    1
    21    71    72    1
    22    55    54    1
    23    55    58    1
    24    67    66    1
    25    67    68    1
    26    51    52   ar
    27    51    53   ar
    28    60    58    1
    29    72    79   am
    30    72    73    2
    31    58    59    1
    32    34    33    2
    33    79    80    1
    34    39    38    2
    35    59    61    1
    36    31    32    1
    37    33    32    1
    38    36    37    1
    39    43    44    1
    40    43    42    1
    41    82    81    2
    42    38    37    1
    43    80    81    1
    44    80    83    1
    45    40    37    1
    46    40    41    1
    47    32    35    1
    48    81    90   am
    49   157   156    2
    50    83    84    1
    51   164   165    2
    52   164   163    1
    53    90    96    1
    54    90    91    1
    55    96    95    1
    56    42    41    1
    57   156   155    1
    58   156   162   am
    59   155   154    1
    60   155   158    1
    61    91    94    1
    62    91    92    1
    63    95    94    1
    64   163   162    1
    65   163   166    1
    66    89    87    1
    67   160   158    1
    68   168   167   ar
    69    86    87    2
    70    86    85    1
    71    84    85    1
    72   158   159    1
    73    87    88    1
    74    92    93    2
    75    16    15    2
    76   166   167    1
    77   167   169   ar
    78   152   151    1
    79    29    28    1
    80   159   161    1
    81   141   140    2
    82    15    14    1
    83    30    28    1
    84   149   148    2
    85   151   150    1
    86   151   153    1
    87   150   147    1
    88    25    28    1
    89    25    26    1
    90    25    24    1
    91    14    17    1
    92    14    13    1
    93    17    18    1
    94   146   147    1
    95    26    27    2
    96   148   147    1
    97   142   143    1
    98   142   139    1
    99   140   139    1
   100     7     6    1
   101   103   101    1
   102   143   145   am
   103   143   144    2
   104    19    18   ar
   105    19    21   ar
   106    18    20   ar
   107   139   138    1
   108   101   102    1
   109   101    98    1
   110     6     5    1
   111     6     8    1
   112    21    23   ar
   113    98    97    1
   114    98    99    1
   115    20    22   ar
   116     5     2    1
   117   138   131   am
   118   132   131    2
   119    23    22   ar
   120    12    11    2
   121   131   130    1
   122     1     2    1
   123    99   104   am
   124    99   100    2
   125   104   105    1
   126     2     3    1
   127   107   106    2
   128     9     3   am
   129     9    10    1
   130    11    10    1
   131     3     4    2
   132   106   105    1
   133   106   113   am
   134   117   114    1
   135   117   118    1
   136   114   113    1
   137   114   115    1
   138   105   108    1
   139   130   129    1
   140   130   133    1
   141   115   116    2
   142   133   134    1
   143   108   109    1
   144   118   120   ar
   145   118   119   ar
   146   134   135    1
   147   136   135   ar
   148   135   137   ar
   149   109   110    1
   150   111   110    2
   151   110   112   am
   152   128   126   ar
   153   121   122    1
   154   125   126    1
   155   125   122    1
   156   126   127   ar
   157   122   123    1
   158   123   124    2
