@<TRIPOS>MOLECULE
tmp/4mejA00.pdb
 122 117 0 0 0
SMALL
GASTEIGER

@<TRIPOS>ATOM
      1  N         -3.3310  -10.0440  -30.3590 N.3    17  TYR17      -0.1241
      2  CA        -2.5960  -10.6520  -31.4640 C.3    17  TYR17       0.1605
      3  C         -3.5270  -11.0880  -32.5960 C.2    17  TYR17       0.2264
      4  O         -3.4470  -10.5630  -33.7060 O.2    17  TYR17      -0.2867
      5  CB        -1.7770  -11.8460  -30.9680 C.3    17  TYR17       0.0534
      6  CG        -0.8230  -11.4850  -29.8580 C.ar   17  TYR17      -0.0201
      7  CD1        0.2640  -10.6440  -30.0930 C.ar   17  TYR17      -0.0009
      8  CD2       -1.0240  -11.9620  -28.5630 C.ar   17  TYR17      -0.0009
      9  CE1        1.1270  -10.2810  -29.0660 C.ar   17  TYR17       0.0417
     10  CE2       -0.1670  -11.6090  -27.5280 C.ar   17  TYR17       0.0417
     11  CZ         0.9040  -10.7670  -27.7830 C.ar   17  TYR17       0.1957
     12  OH         1.7450  -10.4040  -26.7570 O.3    17  TYR17      -0.2866
     13  N         -9.4710    2.6940  -20.4900 N.3    42  PHE42      -0.1241
     14  CA        -8.0810    2.5650  -20.9120 C.3    42  PHE42       0.1605
     15  C         -7.8280    1.1910  -21.5220 C.2    42  PHE42       0.2264
     16  O         -8.1530    0.1690  -20.9190 O.2    42  PHE42      -0.2867
     17  CB        -7.1380    2.7960  -19.7260 C.3    42  PHE42       0.0534
     18  CG        -5.6800    2.6730  -20.0720 C.ar   42  PHE42      -0.0203
     19  CD1       -4.9910    3.7420  -20.6240 C.ar   42  PHE42      -0.0042
     20  CD2       -4.9940    1.4900  -19.8340 C.ar   42  PHE42      -0.0042
     21  CE1       -3.6480    3.6320  -20.9400 C.ar   42  PHE42      -0.0003
     22  CE2       -3.6510    1.3710  -20.1490 C.ar   42  PHE42      -0.0003
     23  CZ        -2.9780    2.4440  -20.7020 C.ar   42  PHE42      -0.0000
     24  N         -4.5810   -0.8690  -23.1330 N.3    44  PRO44      -0.2102
     25  CA        -3.1150   -0.8490  -23.1900 C.3    44  PRO44       0.1504
     26  C         -2.5370   -0.7490  -24.6020 C.2    44  PRO44       0.2575
     27  O         -1.5250   -0.0780  -24.7950 O.2    44  PRO44      -0.2718
     28  CB        -2.7320   -2.1870  -22.5510 C.3    44  PRO44       0.0282
     29  CG        -3.8480   -2.4970  -21.6280 C.3    44  PRO44       0.0208
     30  CD        -5.0860   -1.9660  -22.2870 C.3    44  PRO44       0.0893
     31  N         -3.1770   -1.3930  -25.5710 N.am   45  PHE45      -0.1977
     32  CA        -2.6270   -1.4890  -26.9200 C.3    45  PHE45       0.1639
     33  C         -2.9490   -0.2790  -27.8050 C.2    45  PHE45       0.2290
     34  O         -2.4140   -0.1610  -28.9090 O.2    45  PHE45      -0.2864
     35  CB        -3.1320   -2.7680  -27.5910 C.3    45  PHE45       0.0560
     36  CG        -2.5270   -4.0240  -27.0320 C.ar   45  PHE45      -0.0200
     37  CD1       -1.3200   -4.5050  -27.5180 C.ar   45  PHE45      -0.0042
     38  CD2       -3.1630   -4.7220  -26.0180 C.ar   45  PHE45      -0.0042
     39  CE1       -0.7590   -5.6630  -27.0020 C.ar   45  PHE45      -0.0003
     40  CE2       -2.6090   -5.8790  -25.4990 C.ar   45  PHE45      -0.0003
     41  CZ        -1.4060   -6.3510  -25.9910 C.ar   45  PHE45      -0.0000
     42  N         -2.2810    3.0600  -27.5630 N.3    47  ASP47      -0.1225
     43  CA        -1.1740    3.9530  -27.8510 C.3    47  ASP47       0.1805
     44  C          0.1070    3.1500  -27.8860 C.2    47  ASP47       0.2598
     45  O          0.1010    1.9710  -28.2430 O.2    47  ASP47      -0.2718
     46  CB        -1.0810    5.0680  -26.8090 C.3    47  ASP47       0.1424
     47  CG        -2.0470    6.2030  -27.0820 C.2    47  ASP47       0.3668
     48  OD1       -2.5270    6.3180  -28.2300 O.co2  47  ASP47      -0.2456
     49  OD2       -2.3280    6.9790  -26.1430 O.co2  47  ASP47      -0.2456
     50  N          1.2030    3.7790  -27.4910 N.am   48  GLY48      -0.1957
     51  CA         2.4750    3.0940  -27.4800 C.3    48  GLY48       0.1869
     52  C          3.5990    4.0240  -27.1030 C.2    48  GLY48       0.2309
     53  O          3.5460    5.2290  -27.3530 O.2    48  GLY48      -0.2863
     54  N          7.7090   -6.6010  -32.9000 N.3    59  ILE59      -0.1245
     55  CA         6.7510   -7.1760  -31.9580 C.3    59  ILE59       0.1561
     56  C          7.1430   -8.6250  -31.6760 C.2    59  ILE59       0.2260
     57  O          7.2970   -9.4260  -32.6020 O.2    59  ILE59      -0.2867
     58  CB         5.3010   -7.1130  -32.4860 C.3    59  ILE59       0.0252
     59  CG1        4.9350   -5.6820  -32.8950 C.3    59  ILE59       0.0019
     60  CG2        4.3260   -7.6010  -31.4250 C.3    59  ILE59       0.0019
     61  CD1        4.7960   -4.7170  -31.7240 C.3    59  ILE59       0.0001
     62  N         13.2040   -6.6100  -26.8650 N.3    63  ARG63      -0.1245
     63  CA        12.8930   -5.1890  -26.7440 C.3    63  ARG63       0.1563
     64  C         13.8470   -4.5090  -25.7730 C.2    63  ARG63       0.2260
     65  O         14.3710   -5.1450  -24.8570 O.2    63  ARG63      -0.2867
     66  CB        11.4430   -4.9870  -26.2830 C.3    63  ARG63       0.0307
     67  CG        10.3770   -5.6200  -27.1740 C.3    63  ARG63       0.0489
     68  CD        10.4820   -5.1610  -28.6270 C.3    63  ARG63       0.2205
     69  NE        10.3730   -3.7090  -28.7710 N.pl3  63  ARG63      -0.0865
     70  CZ         9.2530   -3.0690  -29.0970 C.cat  63  ARG63       0.5346
     71  NH1        8.1320   -3.7450  -29.3150 N.pl3  63  ARG63       0.1354
     72  NH2        9.2500   -1.7480  -29.2060 N.pl3  63  ARG63       0.1354
     73  N         11.9090    0.5640  -23.3050 N.3    67  TRP67      -0.1241
     74  CA        10.5740    0.3040  -23.8440 C.3    67  TRP67       0.1605
     75  C          9.7730   -0.5810  -22.9050 C.2    67  TRP67       0.2264
     76  O          8.5880   -0.3350  -22.6560 O.2    67  TRP67      -0.2867
     77  CB        10.6480   -0.3570  -25.2250 C.3    67  TRP67       0.0550
     78  CG         9.2900   -0.6490  -25.8070 C.ar   67  TRP67       0.0003
     79  CD1        8.5340    0.1810  -26.5850 C.ar   67  TRP67       0.0946
     80  CD2        8.5170   -1.8440  -25.6320 C.ar   67  TRP67       0.0152
     81  NE1        7.3470   -0.4270  -26.9130 N.ar   67  TRP67      -0.2442
     82  CE2        7.3110   -1.6720  -26.3400 C.ar   67  TRP67       0.0810
     83  CE3        8.7290   -3.0430  -24.9470 C.ar   67  TRP67       0.0012
     84  CZ2        6.3230   -2.6560  -26.3830 C.ar   67  TRP67       0.0191
     85  CZ3        7.7500   -4.0160  -24.9920 C.ar   67  TRP67       0.0001
     86  CH2        6.5630   -3.8180  -25.7030 C.ar   67  TRP67       0.0015
     87  N          6.4000    0.7400  -21.0480 N.3    71  THR71      -0.1218
     88  CA         5.1520    0.0970  -21.4470 C.3    71  THR71       0.1862
     89  C          4.4750   -0.5790  -20.2510 C.2    71  THR71       0.2287
     90  O          3.2640   -0.3960  -19.9990 O.2    71  THR71      -0.2866
     91  CB         5.4050   -0.9450  -22.5520 C.3    71  THR71       0.1770
     92  OG1        6.1520   -0.3460  -23.6210 O.3    71  THR71      -0.2211
     93  CG2        4.1020   -1.4870  -23.0850 C.3    71  THR71       0.0375
     94  N          3.0870    2.0640  -18.1660 N.3    74  ASN74      -0.1225
     95  CA         1.8400    2.5770  -18.7220 C.3    74  ASN74       0.1785
     96  C          0.6620    1.6980  -18.3110 C.2    74  ASN74       0.2597
     97  O         -0.4150    2.2050  -17.9620 O.2    74  ASN74      -0.2718
     98  CB         1.9200    2.6870  -20.2440 C.3    74  ASN74       0.1169
     99  CG         2.6770    3.9190  -20.6980 C.2    74  ASN74       0.2627
    100  OD1        2.8060    4.8900  -19.9540 O.2    74  ASN74      -0.2716
    101  ND2        3.1790    3.8870  -21.9280 N.am   74  ASN74      -0.0877
    102  N          0.8670    0.3820  -18.3360 N.am   75  ASP75      -0.1974
    103  CA        -0.1860   -0.5200  -17.8650 C.3    75  ASP75       0.1709
    104  C         -0.4780   -0.3890  -16.3740 C.2    75  ASP75       0.2293
    105  O         -1.6430   -0.3120  -15.9690 O.2    75  ASP75      -0.2864
    106  CB         0.1660   -1.9720  -18.1710 C.3    75  ASP75       0.1436
    107  CG         0.0830   -2.2850  -19.6360 C.2    75  ASP75       0.3671
    108  OD1       -0.3220   -1.3860  -20.4030 O.co2  75  ASP75      -0.2456
    109  OD2        0.4110   -3.4310  -20.0110 O.co2  75  ASP75      -0.2456
    110  N         -0.5030  -12.5620  -18.8110 N.3    97  GLY97      -0.1225
    111  CA        -0.4970  -11.1240  -18.5950 C.3    97  GLY97       0.1811
    112  C         -1.7730  -10.6290  -17.9350 C.2    97  GLY97       0.2280
    113  O         -1.7370   -9.9280  -16.9140 O.2    97  GLY97      -0.2866
    114  N         -2.4920   -9.0950  -14.1790 N.3   101  GLU101     -0.1245
    115  CA        -3.1850   -7.8370  -13.9370 C.3   101  GLU101      0.1567
    116  C         -4.3900   -8.0100  -13.0050 C.2   101  GLU101      0.2260
    117  O         -4.6530   -7.1500  -12.1590 O.2   101  GLU101     -0.2867
    118  CB        -3.6020   -7.2150  -15.2720 C.3   101  GLU101      0.0388
    119  CG        -2.4110   -6.6900  -16.0760 C.3   101  GLU101      0.1160
    120  CD        -2.7590   -6.3690  -17.5150 C.2   101  GLU101      0.3649
    121  OE1       -3.7480   -6.9320  -18.0270 O.co2 101  GLU101     -0.2457
    122  OE2       -2.0410   -5.5550  -18.1340 O.co2 101  GLU101     -0.2457
@<TRIPOS>BOND
     1     4     3    2
     2    54    55    1
     3    59    58    1
     4    59    61    1
     5    57    56    2
     6     3     2    1
     7    58    55    1
     8    58    60    1
     9    55    56    1
    10     2     5    1
    11     2     1    1
    12     5     6    1
    13     7     6   ar
    14     7     9   ar
    15     6     8   ar
    16    71    70    1
    17    72    70    1
    18    70    69    2
    19     9    11   ar
    20    34    33    2
    21    69    68    1
    22    68    67    1
    23     8    10   ar
    24    45    44    2
    25    48    47   ar
    26    44    43    1
    27    44    50   am
    28    43    42    1
    29    43    46    1
    30    33    32    1
    31    11    10   ar
    32    11    12    1
    33    35    36    1
    34    35    32    1
    35    37    36   ar
    36    37    39   ar
    37    50    51    1
    38    51    52    1
    39    53    52    2
    40    67    66    1
    41    47    46    1
    42    47    49   ar
    43    36    38   ar
    44    39    41   ar
    45    32    31    1
    46    81    79   ar
    47    81    82   ar
    48    62    63    1
    49    63    66    1
    50    63    64    1
    51    79    78   ar
    52    84    82   ar
    53    84    86   ar
    54    82    80   ar
    55    38    40   ar
    56    41    40   ar
    57    78    80   ar
    58    78    77    1
    59    64    65    2
    60    86    85   ar
    61    80    83   ar
    62    31    26   am
    63    77    74    1
    64    85    83   ar
    65    27    26    2
    66    26    25    1
    67    74    73    1
    68    74    75    1
    69    92    91    1
    70    25    24    1
    71    25    28    1
    72    24    30    1
    73    93    91    1
    74    75    76    2
    75    91    88    1
    76    28    29    1
    77    30    29    1
    78   101    99   am
    79    15    16    2
    80    15    14    1
    81    88    87    1
    82    88    89    1
    83    21    23   ar
    84    21    19   ar
    85    14    13    1
    86    14    17    1
    87    23    22   ar
    88    99    98    1
    89    99   100    2
    90    19    18   ar
    91   108   107   ar
    92    89    90    2
    93    98    95    1
    94    22    20   ar
    95    18    20   ar
    96    18    17    1
    97   109   107   ar
    98   107   106    1
    99   110   111    1
   100    95    96    1
   101    95    94    1
   102   111   112    1
   103   102    96   am
   104   102   103    1
   105    96    97    2
   106   106   103    1
   107   122   120   ar
   108   121   120   ar
   109   112   113    2
   110   103   104    1
   111   120   119    1
   112   104   105    2
   113   119   118    1
   114   118   115    1
   115   114   115    1
   116   115   116    1
   117   116   117    2
