@<TRIPOS>MOLECULE
tmp/4menA00.pdb
 150 144 0 0 0
SMALL
GASTEIGER

@<TRIPOS>ATOM
      1  N         22.7730   21.7730    1.0290 N.3    40  TRP40      -0.1228
      2  CA        22.5780   20.3930    1.5320 C.3    40  TRP40       0.1722
      3  C         23.8400   19.5730    1.7640 C.2    40  TRP40       0.2437
      4  O         23.9280   18.9250    2.8060 O.2    40  TRP40      -0.2733
      5  CB        21.5340   19.6050    0.7060 C.3    40  TRP40       0.0563
      6  CG        21.8590   19.4770   -0.7740 C.ar   40  TRP40       0.0003
      7  CD1       21.5010   20.3540   -1.7810 C.ar   40  TRP40       0.0946
      8  CD2       22.5040   18.3750   -1.4610 C.ar   40  TRP40       0.0152
      9  NE1       21.9350   19.9060   -2.9980 N.ar   40  TRP40      -0.2442
     10  CE2       22.5550   18.7460   -2.8750 C.ar   40  TRP40       0.0810
     11  CE3       23.1180   17.1880   -1.0520 C.ar   40  TRP40       0.0012
     12  CZ2       23.1520   17.9310   -3.8270 C.ar   40  TRP40       0.0191
     13  CZ3       23.7040   16.3950   -2.0160 C.ar   40  TRP40       0.0001
     14  CH2       23.7190   16.7520   -3.3630 C.ar   40  TRP40       0.0015
     15  N         24.8470   19.6050    0.8290 N.am   41  PRO41      -0.2718
     16  CA        26.0880   18.8090    1.0580 C.3    41  PRO41       0.1535
     17  C         26.8620   19.2070    2.3410 C.2    41  PRO41       0.2598
     18  O         27.6240   18.3850    2.8580 O.2    41  PRO41      -0.2715
     19  CB        26.9560   19.1240   -0.1750 C.3    41  PRO41       0.0310
     20  CG        25.9810   19.6140   -1.1940 C.3    41  PRO41       0.0237
     21  CD        24.9500   20.3930   -0.4210 C.3    41  PRO41       0.0939
     22  N         26.6110   20.4200    2.8420 N.am   42  PHE42      -0.1974
     23  CA        27.3630   21.0920    3.8900 C.3    42  PHE42       0.1639
     24  C         26.5710   21.1210    5.1890 C.2    42  PHE42       0.2290
     25  O         27.0420   21.6770    6.1700 O.2    42  PHE42      -0.2864
     26  CB        27.7020   22.5330    3.4570 C.3    42  PHE42       0.0560
     27  CG        28.4780   22.6050    2.1780 C.ar   42  PHE42      -0.0200
     28  CD1       29.8600   22.4800    2.1810 C.ar   42  PHE42      -0.0042
     29  CD2       27.8320   22.7730    0.9800 C.ar   42  PHE42      -0.0042
     30  CE1       30.5820   22.5330    0.9940 C.ar   42  PHE42      -0.0003
     31  CE2       28.5430   22.8420   -0.2020 C.ar   42  PHE42      -0.0003
     32  CZ        29.9230   22.6970   -0.1950 C.ar   42  PHE42      -0.0000
     33  N         25.7800   18.7490    7.3010 N.3    44  GLN44      -0.1245
     34  CA        26.1720   17.7210    8.2680 C.3    44  GLN44       0.1566
     35  C         27.5890   17.2890    7.9180 C.2    44  GLN44       0.2260
     36  O         28.0400   17.4930    6.7830 O.2    44  GLN44      -0.2867
     37  CB        25.2250   16.4790    8.2350 C.3    44  GLN44       0.0367
     38  CG        25.0260   15.8620    6.8560 C.3    44  GLN44       0.0905
     39  CD        24.1380   16.6990    5.9360 C.2    44  GLN44       0.2608
     40  OE1       23.0240   17.1310    6.3250 O.2    44  GLN44      -0.2717
     41  NE2       24.6160   16.9200    4.6970 N.am   44  GLN44      -0.0878
     42  N         30.6580   15.2490    6.5600 N.3    46  VAL46      -0.1245
     43  CA        30.8780   14.3820    5.4290 C.3    46  VAL46       0.1561
     44  C         30.8590   12.9440    5.9270 C.2    46  VAL46       0.2260
     45  O         31.7130   12.5560    6.7500 O.2    46  VAL46      -0.2867
     46  CB        32.1920   14.6960    4.7210 C.3    46  VAL46       0.0252
     47  CG1       32.4260   13.6800    3.5970 C.3    46  VAL46       0.0019
     48  CG2       32.1870   16.1010    4.0610 C.3    46  VAL46       0.0019
     49  N         29.1510    7.9250    1.1800 N.3    51  LEU51      -0.1245
     50  CA        29.6220    8.6130   -0.0040 C.3    51  LEU51       0.1561
     51  C         30.7690    7.8850   -0.7020 C.2    51  LEU51       0.2260
     52  O         31.1530    8.2650   -1.8210 O.2    51  LEU51      -0.2867
     53  CB        29.9820   10.0720    0.3600 C.3    51  LEU51       0.0270
     54  CG        28.8130   10.9040    0.8660 C.3    51  LEU51       0.0019
     55  CD1       29.3470   12.2180    1.4650 C.3    51  LEU51       0.0001
     56  CD2       27.7750   11.1500   -0.2810 C.3    51  LEU51       0.0001
     57  N         34.0650    7.6870    0.1070 N.3    53  LEU53      -0.1245
     58  CA        35.2250    8.5660   -0.0270 C.3    53  LEU53       0.1561
     59  C         36.2140    8.0960    1.0420 C.2    53  LEU53       0.2260
     60  O         36.4130    8.7710    2.0540 O.2    53  LEU53      -0.2867
     61  CB        34.8290   10.0210    0.2060 C.3    53  LEU53       0.0270
     62  CG        33.7450   10.6450   -0.6560 C.3    53  LEU53       0.0019
     63  CD1       33.4060   12.0220   -0.0920 C.3    53  LEU53       0.0001
     64  CD2       34.1240   10.5790   -2.1300 C.3    53  LEU53       0.0001
     65  N         38.8560   10.5260    2.3330 N.3    56  TYR56      -0.1241
     66  CA        38.4450   11.8640    2.7880 C.3    56  TYR56       0.1605
     67  C         39.1680   12.2790    4.0640 C.2    56  TYR56       0.2264
     68  O         39.7470   13.3480    4.1640 O.2    56  TYR56      -0.2867
     69  CB        36.9050   11.9910    2.9740 C.3    56  TYR56       0.0534
     70  CG        36.4730   13.4520    3.1680 C.ar   56  TYR56      -0.0201
     71  CD1       36.3470   14.3430    2.0800 C.ar   56  TYR56      -0.0009
     72  CD2       36.3030   13.9750    4.4390 C.ar   56  TYR56      -0.0009
     73  CE1       36.0280   15.6770    2.2900 C.ar   56  TYR56       0.0417
     74  CE2       36.0180   15.2660    4.6490 C.ar   56  TYR56       0.0417
     75  CZ        35.8440   16.1330    3.5950 C.ar   56  TYR56       0.1957
     76  OH        35.5330   17.4360    3.8560 O.3    56  TYR56      -0.2866
     77  N         34.8890   20.2120    9.1070 N.3    64  MET64      -0.1230
     78  CA        33.8990   21.1960    9.5560 C.3    64  MET64       0.1702
     79  C         32.7740   21.2680    8.5330 C.2    64  MET64       0.2592
     80  O         32.9800   20.9900    7.3260 O.2    64  MET64      -0.2718
     81  CB        34.5670   22.5680    9.7710 C.3    64  MET64       0.0401
     82  CG        33.7100   23.6020   10.5180 C.3    64  MET64       0.0596
     83  SD        32.9400   23.0460   12.0430 S.3    64  MET64      -0.1393
     84  CE        34.3940   22.5090   13.0050 C.3    64  MET64       0.0692
     85  N         31.6060   21.6140    9.0340 N.am   65  ASP65      -0.1974
     86  CA        30.3310   21.6360    8.2790 C.3    65  ASP65       0.1709
     87  C         29.3520   22.5890    8.9720 C.2    65  ASP65       0.2293
     88  O         29.5200   22.8960   10.1570 O.2    65  ASP65      -0.2864
     89  CB        29.7580   20.2230    8.2230 C.3    65  ASP65       0.1436
     90  CG        29.3350   19.7040    9.6140 C.2    65  ASP65       0.3671
     91  OD1       30.1740   19.1430   10.3530 O.co2  65  ASP65      -0.2456
     92  OD2       28.1610   19.8650    9.9420 O.co2  65  ASP65      -0.2456
     93  N         35.4960   24.9350    6.6310 N.3    91  MET91      -0.1245
     94  CA        34.5450   24.2200    5.7790 C.3    91  MET91       0.1570
     95  C         34.8050   24.4390    4.2850 C.2    91  MET91       0.2261
     96  O         34.8680   23.4490    3.5100 O.2    91  MET91      -0.2867
     97  CB        33.1380   24.5880    6.1280 C.3    91  MET91       0.0387
     98  CG        32.0630   23.8200    5.3740 C.3    91  MET91       0.0595
     99  SD        30.4210   24.3940    5.8060 S.3    91  MET91      -0.1393
    100  CE        30.3610   26.0010    4.9940 C.3    91  MET91       0.0692
    101  N         36.7110   21.5980    1.3660 N.3    95  CYS95      -0.1235
    102  CA        36.0790   21.2480    0.1060 C.3    95  CYS95       0.1677
    103  C         37.0840   21.4750   -1.0440 C.2    95  CYS95       0.2270
    104  O         37.2160   20.6550   -1.9510 O.2    95  CYS95      -0.2867
    105  CB        34.8320   22.0970   -0.0710 C.3    95  CYS95       0.0956
    106  SG        33.8000   21.6330   -1.4580 S.3    95  CYS95      -0.0801
    107  N         39.9770   18.8550   -0.9030 N.3    98  TYR98      -0.1227
    108  CA        39.6710   17.4680   -1.2580 C.3    98  TYR98       0.1736
    109  C         39.3120   17.3310   -2.7350 C.2    98  TYR98       0.2595
    110  O         39.7020   16.3820   -3.3670 O.2    98  TYR98      -0.2718
    111  CB        38.5710   16.8680   -0.3820 C.3    98  TYR98       0.0548
    112  CG        38.3100   15.4380   -0.6900 C.ar   98  TYR98      -0.0200
    113  CD1       39.1880   14.4340   -0.2370 C.ar   98  TYR98      -0.0009
    114  CD2       37.2250   15.0680   -1.4700 C.ar   98  TYR98      -0.0009
    115  CE1       38.9890   13.1200   -0.5930 C.ar   98  TYR98       0.0417
    116  CE2       37.0040   13.7510   -1.8060 C.ar   98  TYR98       0.0417
    117  CZ        37.8660   12.7740   -1.3480 C.ar   98  TYR98       0.1957
    118  OH        37.6660   11.4340   -1.6790 O.3    98  TYR98      -0.2866
    119  N         38.6220   18.3080   -3.2790 N.am   99  ASN99      -0.1974
    120  CA        38.0740   18.2520   -4.6210 C.3    99  ASN99       0.1688
    121  C         38.8810   18.9830   -5.6970 C.2    99  ASN99       0.2292
    122  O         39.9750   19.4540   -5.4690 O.2    99  ASN99      -0.2864
    123  CB        36.6200   18.7370   -4.5490 C.3    99  ASN99       0.1181
    124  CG        35.7790   17.8550   -3.6610 C.2    99  ASN99       0.2629
    125  OD1       35.3900   16.7470   -4.0670 O.2    99  ASN99      -0.2716
    126  ND2       35.5030   18.3170   -2.4330 N.am   99  ASN99      -0.0877
    127  N         31.3420   20.1020   -9.3210 N.3   104  ASP104     -0.1225
    128  CA        30.0650   20.5450   -8.7640 C.3   104  ASP104      0.1805
    129  C         30.0980   20.9970   -7.3050 C.2   104  ASP104      0.2597
    130  O         29.5950   22.0490   -6.9640 O.2   104  ASP104     -0.2718
    131  CB        29.0130   19.4170   -8.9300 C.3   104  ASP104      0.1424
    132  CG        28.4090   19.3330  -10.3460 C.2   104  ASP104      0.3668
    133  OD1       28.4920   20.3000  -11.1400 O.co2 104  ASP104     -0.2456
    134  OD2       27.8220   18.2580  -10.6440 O.co2 104  ASP104     -0.2456
    135  N         30.7180   20.2060   -6.4420 N.am  105  ILE105     -0.1980
    136  CA        30.7550   20.5470   -5.0280 C.3   105  ILE105      0.1595
    137  C         31.5800   21.8300   -4.7720 C.2   105  ILE105      0.2287
    138  O         31.2770   22.5870   -3.8600 O.2   105  ILE105     -0.2864
    139  CB        31.2530   19.3520   -4.1950 C.3   105  ILE105      0.0276
    140  CG1       30.9850   19.5730   -2.6890 C.3   105  ILE105      0.0022
    141  CG2       32.7380   19.0570   -4.4800 C.3   105  ILE105      0.0022
    142  CD1       29.5350   19.7100   -2.2570 C.3   105  ILE105      0.0001
    143  N         29.4380   24.7910   -5.6730 N.3   108  MET108     -0.1245
    144  CA        28.4930   25.0220   -4.5330 C.3   108  MET108      0.1570
    145  C         29.1660   25.7410   -3.3970 C.2   108  MET108      0.2261
    146  O         28.6430   26.7570   -2.8970 O.2   108  MET108     -0.2867
    147  CB        27.9340   23.7160   -4.0560 C.3   108  MET108      0.0387
    148  CG        27.1740   22.9960   -5.1440 C.3   108  MET108      0.0595
    149  SD        26.6440   21.3020   -4.7040 S.3   108  MET108     -0.1393
    150  CE        25.1090   21.6920   -3.9700 C.3   108  MET108      0.0692
@<TRIPOS>BOND
     1   133   132   ar
     2   134   132   ar
     3   132   131    1
     4   127   128    1
     5   131   128    1
     6   128   129    1
     7   129   130    2
     8   129   135   am
     9   135   136    1
    10   121   122    2
    11   121   120    1
    12   143   144    1
    13   148   149    1
    14   148   147    1
    15   136   137    1
    16   136   139    1
    17   137   138    2
    18   149   150    1
    19   120   123    1
    20   120   119    1
    21   123   124    1
    22   144   147    1
    23   144   145    1
    24   141   139    1
    25   139   140    1
    26   125   124    2
    27    12    14   ar
    28    12    10   ar
    29   124   126   am
    30   145   146    2
    31   110   109    2
    32    14    13   ar
    33   119   109   am
    34     9    10   ar
    35     9     7   ar
    36    10     8   ar
    37   109   108    1
    38   140   142    1
    39    64    62    1
    40    13    11   ar
    41   104   103    2
    42    52    51    2
    43   116   114   ar
    44   116   117   ar
    45     7     6   ar
    46   118   117    1
    47   114   112   ar
    48     8    11   ar
    49     8     6   ar
    50   106   105    1
    51   117   115   ar
    52   108   107    1
    53   108   111    1
    54    20    21    1
    55    20    19    1
    56   103   102    1
    57     6     5    1
    58    51    50    1
    59   112   111    1
    60   112   113   ar
    61    62    63    1
    62    62    61    1
    63   115   113   ar
    64    21    15    1
    65    56    54    1
    66    31    32   ar
    67    31    29   ar
    68    32    30   ar
    69    19    16    1
    70   105   102    1
    71    58    57    1
    72    58    61    1
    73    58    59    1
    74    50    53    1
    75    50    49    1
    76   102   101    1
    77    53    54    1
    78     5     2    1
    79    15    16    1
    80    15     3   am
    81    54    55    1
    82    29    27   ar
    83    30    28   ar
    84     1     2    1
    85    59    60    2
    86    16    17    1
    87     2     3    1
    88     3     4    2
    89    71    73   ar
    90    71    70   ar
    91    27    28   ar
    92    27    26    1
    93    73    75   ar
    94    65    66    1
    95    17    22   am
    96    17    18    2
    97    66    69    1
    98    66    67    1
    99    22    23    1
   100    69    70    1
   101    70    72   ar
   102    26    23    1
   103    96    95    2
   104    75    76    1
   105    75    74   ar
   106    47    46    1
   107    23    24    1
   108    48    46    1
   109    67    68    2
   110    95    94    1
   111    72    74   ar
   112    41    39   am
   113    46    43    1
   114   100    99    1
   115    24    25    2
   116    98    99    1
   117    98    97    1
   118    43    44    1
   119    43    42    1
   120    94    97    1
   121    94    93    1
   122    44    45    2
   123    39    40    2
   124    39    38    1
   125    36    35    2
   126    38    37    1
   127    33    34    1
   128    80    79    2
   129    35    34    1
   130    89    86    1
   131    89    90    1
   132    37    34    1
   133    86    87    1
   134    86    85    1
   135    79    85   am
   136    79    78    1
   137    87    88    2
   138    77    78    1
   139    78    81    1
   140    90    92   ar
   141    90    91   ar
   142    81    82    1
   143    82    83    1
   144    83    84    1
