@<TRIPOS>MOLECULE
tmp/4meoA00.pdb
 150 148 0 0 0
SMALL
GASTEIGER

@<TRIPOS>ATOM
      1  N         22.8360   21.7020    1.0030 N.3    40  TRP40      -0.1228
      2  CA        22.6320   20.3240    1.4880 C.3    40  TRP40       0.1722
      3  C         23.9160   19.5120    1.7450 C.2    40  TRP40       0.2437
      4  O         23.9800   18.8200    2.7580 O.2    40  TRP40      -0.2733
      5  CB        21.5460   19.5600    0.6390 C.3    40  TRP40       0.0563
      6  CG        21.8310   19.4960   -0.8610 C.ar   40  TRP40       0.0003
      7  CD1       21.5450   20.4370   -1.8300 C.ar   40  TRP40       0.0946
      8  CD2       22.4970   18.4160   -1.5820 C.ar   40  TRP40       0.0152
      9  NE1       22.0170   20.0300   -3.0750 N.ar   40  TRP40      -0.2442
     10  CE2       22.5890   18.8260   -2.9790 C.ar   40  TRP40       0.0810
     11  CE3       23.0560   17.1970   -1.2060 C.ar   40  TRP40       0.0012
     12  CZ2       23.1730   18.0200   -3.9460 C.ar   40  TRP40       0.0191
     13  CZ3       23.6420   16.4210   -2.1840 C.ar   40  TRP40       0.0001
     14  CH2       23.7400   16.8230   -3.5050 C.ar   40  TRP40       0.0015
     15  N         24.9410   19.5690    0.8550 N.am   41  PRO41      -0.2718
     16  CA        26.1600   18.7580    1.1500 C.3    41  PRO41       0.1535
     17  C         26.9130   19.2000    2.3800 C.2    41  PRO41       0.2598
     18  O         27.6400   18.4020    2.9320 O.2    41  PRO41      -0.2715
     19  CB        27.0340   18.9660   -0.0760 C.3    41  PRO41       0.0310
     20  CG        26.0650   19.3940   -1.1700 C.3    41  PRO41       0.0237
     21  CD        25.1010   20.2580   -0.4290 C.3    41  PRO41       0.0939
     22  N         26.6490   20.4250    2.8380 N.am   42  PHE42      -0.1974
     23  CA        27.3690   21.1020    3.9350 C.3    42  PHE42       0.1639
     24  C         26.5490   21.1530    5.2290 C.2    42  PHE42       0.2290
     25  O         27.0190   21.7230    6.2200 O.2    42  PHE42      -0.2864
     26  CB        27.7640   22.5090    3.4780 C.3    42  PHE42       0.0560
     27  CG        28.5720   22.5040    2.2270 C.ar   42  PHE42      -0.0200
     28  CD1       29.9210   22.1880    2.2610 C.ar   42  PHE42      -0.0042
     29  CD2       27.9990   22.8100    1.0180 C.ar   42  PHE42      -0.0042
     30  CE1       30.6730   22.1620    1.0810 C.ar   42  PHE42      -0.0003
     31  CE2       28.7380   22.7790   -0.1530 C.ar   42  PHE42      -0.0003
     32  CZ        30.0700   22.4640   -0.1270 C.ar   42  PHE42      -0.0000
     33  N         25.7420   18.7590    7.3360 N.3    44  GLN44      -0.1231
     34  CA        26.1320   17.7150    8.2920 C.3    44  GLN44       0.1683
     35  C         27.5580   17.3040    7.9530 C.2    44  GLN44       0.2434
     36  O         28.0210   17.4950    6.8200 O.2    44  GLN44      -0.2733
     37  CB        25.2010   16.4860    8.2140 C.3    44  GLN44       0.0380
     38  CG        25.1440   15.8130    6.8350 C.3    44  GLN44       0.0905
     39  CD        24.4170   16.6620    5.7920 C.2    44  GLN44       0.2608
     40  OE1       23.2580   17.1140    6.0470 O.2    44  GLN44      -0.2717
     41  NE2       25.0740   16.9010    4.6380 N.am   44  GLN44      -0.0878
     42  N         28.2490   16.6980    8.9300 N.am   45  PRO45      -0.2718
     43  CA        29.5610   16.1110    8.6390 C.3    45  PRO45       0.1535
     44  C         29.5480   15.1900    7.4160 C.2    45  PRO45       0.2598
     45  O         28.5890   14.4630    7.1570 O.2    45  PRO45      -0.2715
     46  CB        29.8940   15.3080    9.9050 C.3    45  PRO45       0.0310
     47  CG        29.1090   15.9660   10.9950 C.3    45  PRO45       0.0237
     48  CD        27.8710   16.5450   10.3470 C.3    45  PRO45       0.0939
     49  N         30.6440   15.2360    6.6800 N.am   46  VAL46      -0.1964
     50  CA        30.8520   14.2750    5.5910 C.3    46  VAL46       0.1727
     51  C         30.8160   12.8310    6.0690 C.2    46  VAL46       0.2616
     52  O         31.6360   12.4040    6.9170 O.2    46  VAL46      -0.2715
     53  CB        32.1250   14.5560    4.8120 C.3    46  VAL46       0.0290
     54  CG1       32.3290   13.4530    3.7460 C.3    46  VAL46       0.0023
     55  CG2       32.0620   15.9570    4.1750 C.3    46  VAL46       0.0023
     56  N         29.8770   12.0650    5.5000 N.am   47  ASP47      -0.1971
     57  CA        29.7630   10.6170    5.7450 C.3    47  ASP47       0.1709
     58  C         30.5520    9.9130    4.6580 C.2    47  ASP47       0.2293
     59  O         30.0340    9.6360    3.5550 O.2    47  ASP47      -0.2864
     60  CB        28.3190   10.1740    5.7010 C.3    47  ASP47       0.1436
     61  CG        28.1410    8.7770    6.1530 C.2    47  ASP47       0.3671
     62  OD1       29.1110    8.0010    6.1210 O.co2  47  ASP47      -0.2456
     63  OD2       27.0140    8.4450    6.5730 O.co2  47  ASP47      -0.2456
     64  N         28.9430    6.3540    3.5360 N.3    50  LYS50      -0.1231
     65  CA        27.8370    6.4360    2.5870 C.3    50  LYS50       0.1693
     66  C         28.2270    7.0980    1.2640 C.2    50  LYS50       0.2591
     67  O         27.7530    6.6900    0.2220 O.2    50  LYS50      -0.2718
     68  CB        26.6530    7.1580    3.2090 C.3    50  LYS50       0.0285
     69  CG        25.9960    6.4250    4.3680 C.3    50  LYS50       0.0035
     70  CD        25.4930    5.0300    4.0190 C.3    50  LYS50       0.0206
     71  CE        24.2170    4.6800    4.8170 C.3    50  LYS50       0.1093
     72  NZ        23.7460    3.2930    4.5740 N.3    50  LYS50      -0.1314
     73  N         29.0960    8.1040    1.2840 N.am   51  LEU51      -0.1980
     74  CA        29.5490    8.7240    0.0560 C.3    51  LEU51       0.1596
     75  C         30.7300    8.0260   -0.6390 C.2    51  LEU51       0.2287
     76  O         31.1790    8.4910   -1.6900 O.2    51  LEU51      -0.2864
     77  CB        29.8670   10.2050    0.2900 C.3    51  LEU51       0.0297
     78  CG        28.7030   11.1300    0.6030 C.3    51  LEU51       0.0022
     79  CD1       29.2830   12.4430    1.1430 C.3    51  LEU51       0.0001
     80  CD2       27.8750   11.3370   -0.6560 C.3    51  LEU51       0.0001
     81  N         33.9910    7.7220    0.0880 N.3    53  LEU53      -0.1245
     82  CA        35.1500    8.5970    0.0090 C.3    53  LEU53       0.1561
     83  C         36.1380    8.0790    1.0650 C.2    53  LEU53       0.2260
     84  O         36.3950    8.7140    2.0690 O.2    53  LEU53      -0.2867
     85  CB        34.7790   10.0430    0.2890 C.3    53  LEU53       0.0270
     86  CG        33.6670   10.7140   -0.5220 C.3    53  LEU53       0.0019
     87  CD1       33.3640   12.1160    0.0380 C.3    53  LEU53       0.0001
     88  CD2       34.0290   10.6970   -1.9960 C.3    53  LEU53       0.0001
     89  N         38.7890   10.4680    2.4370 N.3    56  TYR56      -0.1241
     90  CA        38.3890   11.8510    2.8240 C.3    56  TYR56       0.1605
     91  C         39.1030   12.2870    4.1090 C.2    56  TYR56       0.2264
     92  O         39.7330   13.3560    4.1810 O.2    56  TYR56      -0.2867
     93  CB        36.8820   12.0000    2.9740 C.3    56  TYR56       0.0534
     94  CG        36.4650   13.4580    3.2440 C.ar   56  TYR56      -0.0201
     95  CD1       36.2480   13.9250    4.5590 C.ar   56  TYR56      -0.0009
     96  CD2       36.3540   14.3610    2.2050 C.ar   56  TYR56      -0.0009
     97  CE1       35.9160   15.2410    4.8190 C.ar   56  TYR56       0.0417
     98  CE2       36.0140   15.7010    2.4580 C.ar   56  TYR56       0.0417
     99  CZ        35.7850   16.1290    3.7660 C.ar   56  TYR56       0.1957
    100  OH        35.4590   17.4460    4.0210 O.3    56  TYR56      -0.2866
    101  N         35.4870   24.9140    6.6380 N.3    91  MET91      -0.1245
    102  CA        34.5520   24.1760    5.7730 C.3    91  MET91       0.1570
    103  C         34.8330   24.4200    4.2780 C.2    91  MET91       0.2261
    104  O         34.9420   23.4730    3.5100 O.2    91  MET91      -0.2867
    105  CB        33.1020   24.5540    6.0660 C.3    91  MET91       0.0387
    106  CG        32.0650   23.7240    5.3130 C.3    91  MET91       0.0595
    107  SD        30.4310   24.2690    5.7570 S.3    91  MET91      -0.1393
    108  CE        30.3620   25.8060    4.8270 C.3    91  MET91       0.0692
    109  N         38.4160   22.9560    3.2340 N.3    94  ASN94      -0.1225
    110  CA        38.3890   21.4930    3.1250 C.3    94  ASN94       0.1785
    111  C         37.8650   21.0500    1.7700 C.2    94  ASN94       0.2597
    112  O         38.4340   20.1790    1.1260 O.2    94  ASN94      -0.2718
    113  CB        37.5000   20.8430    4.1950 C.3    94  ASN94       0.1169
    114  CG        38.0710   20.9580    5.5870 C.2    94  ASN94       0.2627
    115  OD1       39.2290   21.3130    5.7560 O.2    94  ASN94      -0.2716
    116  ND2       37.2250   20.7220    6.5830 N.am   94  ASN94      -0.0877
    117  N         36.8070   21.7040    1.3230 N.am   95  CYS95      -0.1970
    118  CA        36.1700   21.3590    0.0750 C.3    95  CYS95       0.1712
    119  C         37.1620   21.5620   -1.0840 C.2    95  CYS95       0.2296
    120  O         37.3170   20.7310   -1.9630 O.2    95  CYS95      -0.2864
    121  CB        34.8630   22.1620   -0.0850 C.3    95  CYS95       0.0983
    122  SG        33.9950   21.7740   -1.6020 S.3    95  CYS95      -0.0798
    123  N         40.0490   18.9610   -0.8780 N.3    98  TYR98      -0.1227
    124  CA        39.7370   17.5640   -1.2250 C.3    98  TYR98       0.1736
    125  C         39.3810   17.4130   -2.6950 C.2    98  TYR98       0.2595
    126  O         39.8260   16.4670   -3.3410 O.2    98  TYR98      -0.2718
    127  CB        38.6130   16.9740   -0.3490 C.3    98  TYR98       0.0548
    128  CG        38.3250   15.5290   -0.6350 C.ar   98  TYR98      -0.0200
    129  CD1       39.2250   14.5480   -0.2520 C.ar   98  TYR98      -0.0009
    130  CD2       37.1840   15.1390   -1.3390 C.ar   98  TYR98      -0.0009
    131  CE1       38.9910   13.2230   -0.5620 C.ar   98  TYR98       0.0417
    132  CE2       36.9360   13.8270   -1.6500 C.ar   98  TYR98       0.0417
    133  CZ        37.8390   12.8590   -1.2590 C.ar   98  TYR98       0.1957
    134  OH        37.5940   11.5340   -1.5570 O.3    98  TYR98      -0.2866
    135  N         38.5920   18.3300   -3.2210 N.am   99  ASN99      -0.1974
    136  CA        38.0250   18.2200   -4.5590 C.3    99  ASN99       0.1688
    137  C         38.8580   18.9140   -5.6380 C.2    99  ASN99       0.2292
    138  O         39.8960   19.4950   -5.3290 O.2    99  ASN99      -0.2864
    139  CB        36.5840   18.6890   -4.5250 C.3    99  ASN99       0.1181
    140  CG        35.7090   17.7880   -3.6660 C.2    99  ASN99       0.2629
    141  OD1       35.3020   16.7250   -4.1060 O.2    99  ASN99      -0.2716
    142  ND2       35.4040   18.2340   -2.4460 N.am   99  ASN99      -0.0877
    143  N         30.7380   20.1670   -6.3230 N.3   105  ILE105     -0.1245
    144  CA        30.8040   20.4580   -4.8960 C.3   105  ILE105      0.1561
    145  C         31.6270   21.7510   -4.6620 C.2   105  ILE105      0.2260
    146  O         31.3170   22.5200   -3.7490 O.2   105  ILE105     -0.2867
    147  CB        31.3410   19.2800   -4.0410 C.3   105  ILE105      0.0252
    148  CG1       31.1240   19.5870   -2.5660 C.3   105  ILE105      0.0019
    149  CG2       32.8350   19.0480   -4.3010 C.3   105  ILE105      0.0019
    150  CD1       29.6800   19.5020   -2.0960 C.3   105  ILE105      0.0001
@<TRIPOS>BOND
     1   143   144    1
     2   137   138    2
     3   137   136    1
     4   144   145    1
     5   144   147    1
     6   145   146    2
     7   136   139    1
     8   136   135    1
     9   139   140    1
    10   149   147    1
    11   141   140    2
    12   147   148    1
    13    12    14   ar
    14    12    10   ar
    15   140   142   am
    16    14    13   ar
    17   126   125    2
    18   135   125   am
    19     9    10   ar
    20     9     7   ar
    21    10     8   ar
    22   125   124    1
    23   148   150    1
    24    13    11   ar
    25    88    86    1
    26   120   119    2
    27     7     6   ar
    28    76    75    2
    29   132   130   ar
    30   132   133   ar
    31   122   121    1
    32     8    11   ar
    33     8     6   ar
    34   134   133    1
    35   130   128   ar
    36   133   131   ar
    37   124   123    1
    38   124   127    1
    39    20    21    1
    40    20    19    1
    41   119   118    1
    42     6     5    1
    43    80    78    1
    44    75    74    1
    45   128   127    1
    46   128   129   ar
    47   131   129   ar
    48    86    87    1
    49    86    85    1
    50    21    15    1
    51    31    32   ar
    52    31    29   ar
    53    32    30   ar
    54   121   118    1
    55    19    16    1
    56    82    81    1
    57    82    85    1
    58    82    83    1
    59    74    77    1
    60    74    73    1
    61   118   117    1
    62    67    66    2
    63    77    78    1
    64    78    79    1
    65     5     2    1
    66    15    16    1
    67    15     3   am
    68     1     2    1
    69    29    27   ar
    70    83    84    2
    71    30    28   ar
    72   112   111    2
    73    16    17    1
    74    66    73   am
    75    66    65    1
    76   117   111   am
    77     2     3    1
    78     3     4    2
    79   111   110    1
    80    96    98   ar
    81    96    94   ar
    82    27    28   ar
    83    27    26    1
    84    17    22   am
    85    17    18    2
    86    89    90    1
    87    98    99   ar
    88    65    68    1
    89    65    64    1
    90    90    93    1
    91    90    91    1
    92    22    23    1
    93    93    94    1
    94   110   109    1
    95   110   113    1
    96    68    69    1
    97    94    95   ar
    98    26    23    1
    99   104   103    2
   100    59    58    2
   101    54    53    1
   102    99   100    1
   103    99    97   ar
   104    23    24    1
   105    70    69    1
   106    70    71    1
   107    91    92    2
   108    55    53    1
   109   113   114    1
   110   103   102    1
   111    95    97   ar
   112    72    71    1
   113    41    39   am
   114    58    57    1
   115    53    50    1
   116   108   107    1
   117    24    25    2
   118   106   107    1
   119   106   105    1
   120    56    57    1
   121    56    51   am
   122   114   115    2
   123   114   116   am
   124    50    51    1
   125    50    49    1
   126    60    57    1
   127    60    61    1
   128   102   105    1
   129   102   101    1
   130    39    40    2
   131    39    38    1
   132    51    52    2
   133    62    61   ar
   134    61    63   ar
   135    49    44   am
   136    36    35    2
   137    38    37    1
   138    45    44    2
   139    33    34    1
   140    44    43    1
   141    35    34    1
   142    35    42   am
   143    37    34    1
   144    43    42    1
   145    43    46    1
   146    42    48    1
   147    46    47    1
   148    48    47    1
