@<TRIPOS>MOLECULE
tmp/4mepA00.pdb
 126 121 0 0 0
SMALL
GASTEIGER

@<TRIPOS>ATOM
      1  N         29.2740   19.9580   12.8730 N.3    40  TRP40      -0.1228
      2  CA        30.6440   19.7550   13.3920 C.3    40  TRP40       0.1722
      3  C         31.5360   20.9810   13.4340 C.2    40  TRP40       0.2437
      4  O         32.2960   21.1400   14.3850 O.2    40  TRP40      -0.2733
      5  CB        31.3450   18.5590   12.7020 C.3    40  TRP40       0.0563
      6  CG        31.4750   18.7570   11.2200 C.ar   40  TRP40       0.0003
      7  CD1       30.5420   18.4450   10.2040 C.ar   40  TRP40       0.0946
      8  CD2       32.5750   19.3940   10.5340 C.ar   40  TRP40       0.0152
      9  NE1       31.0030   18.8430    8.9830 N.ar   40  TRP40      -0.2442
     10  CE2       32.2330   19.3900    9.1010 C.ar   40  TRP40       0.0810
     11  CE3       33.7870   19.9260   10.9290 C.ar   40  TRP40       0.0012
     12  CZ2       33.0730   19.9650    8.1450 C.ar   40  TRP40       0.0191
     13  CZ3       34.6310   20.4730    9.9550 C.ar   40  TRP40       0.0001
     14  CH2       34.2790   20.4890    8.5970 C.ar   40  TRP40       0.0015
     15  N         31.4110   21.9460   12.4830 N.am   41  PRO41      -0.2718
     16  CA        32.3120   23.1090   12.6280 C.3    41  PRO41       0.1535
     17  C         31.9830   24.0210   13.8080 C.2    41  PRO41       0.2598
     18  O         32.7970   24.8500   14.2080 O.2    41  PRO41      -0.2715
     19  CB        32.0450   23.9230   11.3230 C.3    41  PRO41       0.0310
     20  CG        31.5010   22.9000   10.3770 C.3    41  PRO41       0.0237
     21  CD        30.6100   22.0690   11.2660 C.3    41  PRO41       0.0939
     22  N         30.7860   23.8200   14.3400 N.am   42  PHE42      -0.1974
     23  CA        30.1790   24.6650   15.3800 C.3    42  PHE42       0.1639
     24  C         30.0880   23.9790   16.7750 C.2    42  PHE42       0.2290
     25  O         29.4970   24.5400   17.7350 O.2    42  PHE42      -0.2864
     26  CB        28.7620   25.0440   14.8840 C.3    42  PHE42       0.0560
     27  CG        28.7490   25.7040   13.5500 C.ar   42  PHE42      -0.0200
     28  CD1       29.1810   26.9960   13.4010 C.ar   42  PHE42      -0.0042
     29  CD2       28.3760   24.9830   12.3880 C.ar   42  PHE42      -0.0042
     30  CE1       29.2160   27.6120   12.1500 C.ar   42  PHE42      -0.0003
     31  CE2       28.4220   25.5950   11.1390 C.ar   42  PHE42      -0.0003
     32  CZ        28.8570   26.8990   11.0140 C.ar   42  PHE42      -0.0000
     33  N         32.4550   23.2600   18.8660 N.3    44  GLN44      -0.1245
     34  CA        33.5360   23.6610   19.7470 C.3    44  GLN44       0.1566
     35  C         33.9960   25.0620   19.3580 C.2    44  GLN44       0.2260
     36  O         33.7640   25.5020   18.2260 O.2    44  GLN44      -0.2867
     37  CB        34.7290   22.6920   19.6470 C.3    44  GLN44       0.0367
     38  CG        35.3650   22.5450   18.2780 C.3    44  GLN44       0.0905
     39  CD        34.4390   21.8140   17.3000 C.2    44  GLN44       0.2608
     40  OE1       33.9910   20.7130   17.6030 O.2    44  GLN44      -0.2717
     41  NE2       34.1160   22.4340   16.1680 N.am   44  GLN44      -0.0878
     42  N         36.2340   27.9890   17.8800 N.3    46  VAL46      -0.1245
     43  CA        37.1200   28.0460   16.7510 C.3    46  VAL46       0.1561
     44  C         38.5600   28.0260   17.2540 C.2    46  VAL46       0.2260
     45  O         38.9950   28.9280   17.9970 O.2    46  VAL46      -0.2867
     46  CB        36.8630   29.3240   15.9000 C.3    46  VAL46       0.0252
     47  CG1       37.9180   29.5090   14.8140 C.3    46  VAL46       0.0019
     48  CG2       35.4820   29.2860   15.2590 C.3    46  VAL46       0.0019
     49  N         43.5450   25.5620   13.0650 N.3    51  LEU51      -0.1245
     50  CA        42.9150   25.7550   11.7580 C.3    51  LEU51       0.1561
     51  C         43.6460   26.7260   10.8410 C.2    51  LEU51       0.2260
     52  O         43.3570   26.8010    9.6500 O.2    51  LEU51      -0.2867
     53  CB        41.4920   26.2450   11.9250 C.3    51  LEU51       0.0270
     54  CG        40.5430   25.2890   12.6470 C.3    51  LEU51       0.0019
     55  CD1       39.1680   25.9660   12.8500 C.3    51  LEU51       0.0001
     56  CD2       40.4410   23.9550   11.8860 C.3    51  LEU51       0.0001
     57  N         43.7640   30.2250   11.0400 N.3    53  LEU53      -0.1245
     58  CA        42.9980   31.4000   10.7480 C.3    53  LEU53       0.1561
     59  C         43.5020   32.4770   11.7450 C.2    53  LEU53       0.2260
     60  O         42.7840   32.8510   12.6690 O.2    53  LEU53      -0.2867
     61  CB        41.4970   31.0990   10.9510 C.3    53  LEU53       0.0270
     62  CG        40.9070   29.8140   10.3430 C.3    53  LEU53       0.0019
     63  CD1       39.5530   29.4650   10.9760 C.3    53  LEU53       0.0001
     64  CD2       40.8050   29.9310    8.8290 C.3    53  LEU53       0.0001
     65  N         41.3180   35.3930   13.0060 N.3    56  TYR56      -0.1241
     66  CA        39.9330   35.0860   13.4340 C.3    56  TYR56       0.1605
     67  C         39.5790   35.9740   14.6540 C.2    56  TYR56       0.2264
     68  O         38.5480   36.6580   14.6750 O.2    56  TYR56      -0.2867
     69  CB        39.7410   33.6160   13.7740 C.3    56  TYR56       0.0534
     70  CG        38.2690   33.3100   14.0560 C.ar   56  TYR56      -0.0201
     71  CD1       37.7800   33.3170   15.3480 C.ar   56  TYR56      -0.0009
     72  CD2       37.3780   33.0860   13.0160 C.ar   56  TYR56      -0.0009
     73  CE1       36.4190   33.1090   15.6110 C.ar   56  TYR56       0.0417
     74  CE2       36.0400   32.8650   13.2670 C.ar   56  TYR56       0.0417
     75  CZ        35.5700   32.8730   14.5710 C.ar   56  TYR56       0.1957
     76  OH        34.2340   32.6240   14.8310 O.3    56  TYR56      -0.2866
     77  N         26.8890   33.0840   17.4580 N.3    91  MET91      -0.1245
     78  CA        27.5890   32.0490   16.6480 C.3    91  MET91       0.1570
     79  C         27.3790   32.2280   15.1330 C.2    91  MET91       0.2261
     80  O         28.3470   32.2110   14.3590 O.2    91  MET91      -0.2867
     81  CB        27.1410   30.6640   17.0930 C.3    91  MET91       0.0387
     82  CG        27.7570   29.4810   16.3230 C.3    91  MET91       0.0595
     83  SD        27.1660   27.9310   17.0040 S.3    91  MET91      -0.1393
     84  CE        25.6140   27.9210   16.0680 C.3    91  MET91       0.0692
     85  N         30.0670   33.6730   12.0480 N.3    95  CYS95      -0.1235
     86  CA        30.3890   32.9070   10.8500 C.3    95  CYS95       0.1677
     87  C         30.2250   33.7750    9.5850 C.2    95  CYS95       0.2270
     88  O         31.0860   33.8080    8.6840 O.2    95  CYS95      -0.2867
     89  CB        29.5340   31.6700   10.7820 C.3    95  CYS95       0.0956
     90  SG        30.0030   30.5110    9.4700 S.3    95  CYS95      -0.0801
     91  N         33.0520   36.6770    9.5350 N.3    98  TYR98      -0.1227
     92  CA        34.4380   36.2640    9.2650 C.3    98  TYR98       0.1736
     93  C         34.5900   35.6740    7.8570 C.2    98  TYR98       0.2595
     94  O         35.5890   35.9280    7.1500 O.2    98  TYR98      -0.2718
     95  CB        34.9470   35.2490   10.3230 C.3    98  TYR98       0.0548
     96  CG        36.3510   34.8010   10.0170 C.ar   98  TYR98      -0.0200
     97  CD1       36.6020   33.6060    9.3590 C.ar   98  TYR98      -0.0009
     98  CD2       37.4210   35.6110   10.3140 C.ar   98  TYR98      -0.0009
     99  CE1       37.8940   33.2250    9.0290 C.ar   98  TYR98       0.0417
    100  CE2       38.7060   35.2340   10.0150 C.ar   98  TYR98       0.0417
    101  CZ        38.9410   34.0410    9.3740 C.ar   98  TYR98       0.1957
    102  OH        40.2410   33.6980    9.1060 O.3    98  TYR98      -0.2866
    103  N         33.5870   34.9160    7.4250 N.am   99  ASN99      -0.1974
    104  CA        33.7040   34.1420    6.1810 C.3    99  ASN99       0.1688
    105  C         33.1030   34.9530    5.0120 C.2    99  ASN99       0.2292
    106  O         32.4840   35.9670    5.2520 O.2    99  ASN99      -0.2864
    107  CB        33.0620   32.7780    6.3510 C.3    99  ASN99       0.1181
    108  CG        33.8060   31.9100    7.3830 C.2    99  ASN99       0.2629
    109  OD1       34.9460   31.5000    7.1490 O.2    99  ASN99      -0.2716
    110  ND2       33.1810   31.6690    8.5330 N.am   99  ASN99      -0.0877
    111  N         31.1840   27.0140    4.5020 N.3   105  ILE105     -0.1245
    112  CA        30.8560   27.1750    5.9220 C.3   105  ILE105      0.1561
    113  C         29.6260   28.0600    6.0770 C.2   105  ILE105      0.2260
    114  O         28.7510   27.8170    6.8800 O.2   105  ILE105     -0.2867
    115  CB        32.0770   27.7450    6.7260 C.3   105  ILE105      0.0252
    116  CG1       31.8270   27.7320    8.2320 C.3   105  ILE105      0.0019
    117  CG2       32.4510   29.1510    6.2760 C.3   105  ILE105      0.0019
    118  CD1       31.9070   26.3890    8.8640 C.3   105  ILE105      0.0001
    119  N         26.6410   26.0710    5.3030 N.3   108  MET108     -0.1245
    120  CA        26.3720   25.1720    6.4190 C.3   108  MET108      0.1570
    121  C         25.6510   25.9260    7.5510 C.2   108  MET108      0.2261
    122  O         24.6130   25.4570    8.0790 O.2   108  MET108     -0.2867
    123  CB        27.6800   24.5380    6.8800 C.3   108  MET108      0.0387
    124  CG        28.3010   23.5830    5.8520 C.3   108  MET108      0.0595
    125  SD        29.9590   23.1410    6.3450 S.3   108  MET108     -0.1393
    126  CE        29.6240   21.8570    7.5460 C.3   108  MET108      0.0692
@<TRIPOS>BOND
     1   111   112    1
     2   105   106    2
     3   105   104    1
     4   119   120    1
     5   124   125    1
     6   124   123    1
     7   112   113    1
     8   112   115    1
     9   113   114    2
    10   104   107    1
    11   104   103    1
    12   117   115    1
    13   125   126    1
    14   107   108    1
    15   120   123    1
    16   120   121    1
    17   115   116    1
    18   109   108    2
    19    94    93    2
    20   108   110   am
    21   103    93   am
    22   121   122    2
    23    93    92    1
    24    12    14   ar
    25    12    10   ar
    26   116   118    1
    27    14    13   ar
    28    88    87    2
    29    64    62    1
    30     9    10   ar
    31     9     7   ar
    32    99    97   ar
    33    99   101   ar
    34    10     8   ar
    35   102   101    1
    36    92    91    1
    37    92    95    1
    38    97    96   ar
    39   101   100   ar
    40    90    89    1
    41    87    86    1
    42    52    51    2
    43    13    11   ar
    44   100    98   ar
    45    96    98   ar
    46    96    95    1
    47     7     6   ar
    48    62    61    1
    49    62    63    1
    50    20    21    1
    51    20    19    1
    52     8    11   ar
    53     8     6   ar
    54    58    61    1
    55    58    57    1
    56    58    59    1
    57    89    86    1
    58    51    50    1
    59    86    85    1
    60    32    31   ar
    61    32    30   ar
    62    31    29   ar
    63     6     5    1
    64    21    15    1
    65    19    16    1
    66    59    60    2
    67    50    53    1
    68    50    49    1
    69    56    54    1
    70    53    54    1
    71    30    28   ar
    72    29    27   ar
    73    15    16    1
    74    15     3   am
    75    16    17    1
    76    54    55    1
    77     5     2    1
    78     1     2    1
    79    65    66    1
    80    72    74   ar
    81    72    70   ar
    82    74    75   ar
    83     2     3    1
    84    28    27   ar
    85     3     4    2
    86    66    69    1
    87    66    67    1
    88    27    26    1
    89    69    70    1
    90    17    18    2
    91    17    22   am
    92    70    71   ar
    93    22    23    1
    94    80    79    2
    95    75    76    1
    96    75    73   ar
    97    67    68    2
    98    47    46    1
    99    26    23    1
   100    79    78    1
   101    48    46    1
   102    71    73   ar
   103    23    24    1
   104    46    43    1
   105    84    83    1
   106    41    39   am
   107    82    83    1
   108    82    81    1
   109    78    81    1
   110    78    77    1
   111    43    44    1
   112    43    42    1
   113    24    25    2
   114    44    45    2
   115    39    40    2
   116    39    38    1
   117    36    35    2
   118    38    37    1
   119    33    34    1
   120    35    34    1
   121    37    34    1
