@<TRIPOS>MOLECULE
tmp/4meqA00.pdb
 143 138 0 0 0
SMALL
GASTEIGER

@<TRIPOS>ATOM
      1  N         22.7430   21.8070    1.1010 N.3    40  TRP40      -0.1228
      2  CA        22.5370   20.3910    1.5810 C.3    40  TRP40       0.1722
      3  C         23.8170   19.5800    1.8040 C.2    40  TRP40       0.2437
      4  O         23.9330   18.9390    2.8470 O.2    40  TRP40      -0.2733
      5  CB        21.4850   19.6700    0.7250 C.3    40  TRP40       0.0563
      6  CG        21.8060   19.5640   -0.7500 C.ar   40  TRP40       0.0003
      7  CD1       21.4770   20.4550   -1.7390 C.ar   40  TRP40       0.0946
      8  CD2       22.4820   18.4690   -1.4390 C.ar   40  TRP40       0.0152
      9  NE1       21.9690   20.0350   -2.9590 N.ar   40  TRP40      -0.2442
     10  CE2       22.5260   18.8320   -2.8430 C.ar   40  TRP40       0.0810
     11  CE3       23.0250   17.2410   -1.0400 C.ar   40  TRP40       0.0012
     12  CZ2       23.1180   18.0290   -3.7870 C.ar   40  TRP40       0.0191
     13  CZ3       23.6210   16.4550   -1.9820 C.ar   40  TRP40       0.0001
     14  CH2       23.6850   16.8270   -3.3320 C.ar   40  TRP40       0.0015
     15  N         24.8200   19.6430    0.8740 N.am   41  PRO41      -0.2718
     16  CA        26.0180   18.8320    1.1960 C.3    41  PRO41       0.1535
     17  C         26.8000   19.2860    2.3940 C.2    41  PRO41       0.2598
     18  O         27.6430   18.5090    2.8620 O.2    41  PRO41      -0.2715
     19  CB        26.8940   18.9480   -0.0650 C.3    41  PRO41       0.0310
     20  CG        26.0170   19.4920   -1.1190 C.3    41  PRO41       0.0237
     21  CD        25.0120   20.3550   -0.3990 C.3    41  PRO41       0.0939
     22  N         26.5370   20.5320    2.8520 N.am   42  PHE42      -0.1974
     23  CA        27.2940   21.2050    3.8720 C.3    42  PHE42       0.1639
     24  C         26.5530   21.2100    5.2290 C.2    42  PHE42       0.2290
     25  O         27.0810   21.6970    6.2220 O.2    42  PHE42      -0.2864
     26  CB        27.6390   22.6360    3.4020 C.3    42  PHE42       0.0560
     27  CG        28.4290   22.6530    2.1620 C.ar   42  PHE42      -0.0200
     28  CD1       29.8100   22.5310    2.2020 C.ar   42  PHE42      -0.0042
     29  CD2       27.8010   22.7240    0.9380 C.ar   42  PHE42      -0.0042
     30  CE1       30.5600   22.4990    1.0130 C.ar   42  PHE42      -0.0003
     31  CE2       28.5360   22.7110   -0.2170 C.ar   42  PHE42      -0.0003
     32  CZ        29.9110   22.5810   -0.1940 C.ar   42  PHE42      -0.0000
     33  N         25.8320   18.8130    7.4100 N.3    44  GLN44      -0.1245
     34  CA        26.2230   17.7580    8.3660 C.3    44  GLN44       0.1566
     35  C         27.6390   17.3380    8.0010 C.2    44  GLN44       0.2260
     36  O         28.0700   17.5840    6.8680 O.2    44  GLN44      -0.2867
     37  CB        25.2900   16.5270    8.3220 C.3    44  GLN44       0.0367
     38  CG        25.1140   15.9120    6.9310 C.3    44  GLN44       0.0905
     39  CD        24.2260   16.7520    6.0130 C.2    44  GLN44       0.2608
     40  OE1       23.1160   17.1970    6.4120 O.2    44  GLN44      -0.2717
     41  NE2       24.7070   16.9910    4.8080 N.am   44  GLN44      -0.0878
     42  N         30.7670   15.3560    6.6300 N.3    46  VAL46      -0.1245
     43  CA        31.0300   14.5030    5.4970 C.3    46  VAL46       0.1561
     44  C         30.9760   13.0590    5.9950 C.2    46  VAL46       0.2260
     45  O         31.7300   12.6640    6.8960 O.2    46  VAL46      -0.2867
     46  CB        32.3280   14.8350    4.8120 C.3    46  VAL46       0.0252
     47  CG1       32.6730   13.7030    3.8080 C.3    46  VAL46       0.0019
     48  CG2       32.2440   16.2210    4.0890 C.3    46  VAL46       0.0019
     49  N         29.0860    6.5110    3.5570 N.3    50  LYS50      -0.1231
     50  CA        27.9720    6.6370    2.5650 C.3    50  LYS50       0.1693
     51  C         28.4000    7.2120    1.1870 C.2    50  LYS50       0.2591
     52  O         27.8830    6.7860    0.1110 O.2    50  LYS50      -0.2718
     53  CB        26.8720    7.5020    3.1890 C.3    50  LYS50       0.0285
     54  CG        25.4630    6.9480    3.0020 C.3    50  LYS50       0.0035
     55  CD        24.3410    7.9800    3.1940 C.3    50  LYS50       0.0206
     56  CE        24.6430    9.0900    4.2030 C.3    50  LYS50       0.1093
     57  NZ        25.2380   10.3450    3.6300 N.3    50  LYS50      -0.1314
     58  N         29.3180    8.1960    1.1960 N.am   51  LEU51      -0.1980
     59  CA        29.7740    8.8600    0.0110 C.3    51  LEU51       0.1596
     60  C         30.9310    8.1340   -0.6690 C.2    51  LEU51       0.2287
     61  O         31.3690    8.5270   -1.7570 O.2    51  LEU51      -0.2864
     62  CB        30.1590   10.3440    0.3080 C.3    51  LEU51       0.0297
     63  CG        28.9780   11.2520    0.7240 C.3    51  LEU51       0.0022
     64  CD1       29.4710   12.5620    1.3080 C.3    51  LEU51       0.0001
     65  CD2       27.9650   11.5270   -0.4290 C.3    51  LEU51       0.0001
     66  N         34.1610    7.8950    0.0960 N.3    53  LEU53      -0.1245
     67  CA        35.3620    8.7590    0.0520 C.3    53  LEU53       0.1561
     68  C         36.3480    8.2490    1.1280 C.2    53  LEU53       0.2260
     69  O         36.5850    8.9150    2.1240 O.2    53  LEU53      -0.2867
     70  CB        34.9330   10.2010    0.3660 C.3    53  LEU53       0.0270
     71  CG        33.8530   10.8440   -0.5090 C.3    53  LEU53       0.0019
     72  CD1       33.4640   12.2260   -0.0120 C.3    53  LEU53       0.0001
     73  CD2       34.2380   10.7730   -1.9820 C.3    53  LEU53       0.0001
     74  N         39.0060   10.5770    2.5090 N.3    56  TYR56      -0.1241
     75  CA        38.5910   11.9510    2.9040 C.3    56  TYR56       0.1605
     76  C         39.3100   12.4150    4.1920 C.2    56  TYR56       0.2264
     77  O         39.9270   13.5210    4.2740 O.2    56  TYR56      -0.2867
     78  CB        37.0770   12.0760    3.0730 C.3    56  TYR56       0.0534
     79  CG        36.6790   13.5330    3.2940 C.ar   56  TYR56      -0.0201
     80  CD1       36.4840   14.4040    2.2080 C.ar   56  TYR56      -0.0009
     81  CD2       36.4710   14.0450    4.6040 C.ar   56  TYR56      -0.0009
     82  CE1       36.1440   15.7350    2.4020 C.ar   56  TYR56       0.0417
     83  CE2       36.1510   15.3560    4.8040 C.ar   56  TYR56       0.0417
     84  CZ        35.9850   16.2120    3.7240 C.ar   56  TYR56       0.1957
     85  OH        35.6680   17.5150    4.0260 O.3    56  TYR56      -0.2866
     86  N         35.0280   20.3640    9.1000 N.3    64  MET64      -0.1230
     87  CA        33.9940   21.2850    9.5790 C.3    64  MET64       0.1702
     88  C         32.8220   21.3060    8.6050 C.2    64  MET64       0.2592
     89  O         32.9820   21.1300    7.3760 O.2    64  MET64      -0.2718
     90  CB        34.5850   22.6830    9.7840 C.3    64  MET64       0.0401
     91  CG        33.6930   23.7190   10.5010 C.3    64  MET64       0.0596
     92  SD        32.9240   23.1350   12.0440 S.3    64  MET64      -0.1393
     93  CE        34.3500   22.7460   13.0610 C.3    64  MET64       0.0692
     94  N         31.6630   21.6400    9.1340 N.am   65  ASP65      -0.1974
     95  CA        30.4270   21.6970    8.3340 C.3    65  ASP65       0.1709
     96  C         29.4220   22.6130    8.9900 C.2    65  ASP65       0.2293
     97  O         29.5680   22.9440   10.1630 O.2    65  ASP65      -0.2864
     98  CB        29.8490   20.2920    8.2430 C.3    65  ASP65       0.1436
     99  CG        29.3650   19.7760    9.5990 C.2    65  ASP65       0.3671
    100  OD1       30.1830   19.2850   10.3900 O.co2  65  ASP65      -0.2456
    101  OD2       28.1450   19.8890    9.8610 O.co2  65  ASP65      -0.2456
    102  N         35.5360   24.9470    6.6570 N.3    91  MET91      -0.1245
    103  CA        34.5870   24.1790    5.8340 C.3    91  MET91       0.1570
    104  C         34.8430   24.4280    4.3440 C.2    91  MET91       0.2261
    105  O         34.9290   23.4630    3.5550 O.2    91  MET91      -0.2867
    106  CB        33.1680   24.5450    6.1910 C.3    91  MET91       0.0387
    107  CG        32.0920   23.8670    5.3590 C.3    91  MET91       0.0595
    108  SD        30.4230   24.4320    5.7980 S.3    91  MET91      -0.1393
    109  CE        30.3780   26.0860    5.0610 C.3    91  MET91       0.0692
    110  N         36.8940   21.7060    1.3990 N.3    95  CYS95      -0.1235
    111  CA        36.2770   21.2760    0.1620 C.3    95  CYS95       0.1677
    112  C         37.2120   21.5140   -1.0260 C.2    95  CYS95       0.2270
    113  O         37.3020   20.6970   -1.9410 O.2    95  CYS95      -0.2867
    114  CB        34.9710   22.0150   -0.0150 C.3    95  CYS95       0.0956
    115  SG        33.9460   21.5450   -1.4040 S.3    95  CYS95      -0.0801
    116  N         40.1570   19.0080   -0.7870 N.3    98  TYR98      -0.1227
    117  CA        39.8510   17.6250   -1.1440 C.3    98  TYR98       0.1736
    118  C         39.5330   17.4170   -2.6330 C.2    98  TYR98       0.2595
    119  O         39.9500   16.4230   -3.2060 O.2    98  TYR98      -0.2718
    120  CB        38.7460   17.0210   -0.3020 C.3    98  TYR98       0.0548
    121  CG        38.5120   15.5760   -0.6090 C.ar   98  TYR98      -0.0200
    122  CD1       39.4150   14.5960   -0.2180 C.ar   98  TYR98      -0.0009
    123  CD2       37.3480   15.1540   -1.2650 C.ar   98  TYR98      -0.0009
    124  CE1       39.1770   13.2550   -0.5210 C.ar   98  TYR98       0.0417
    125  CE2       37.1180   13.8260   -1.5610 C.ar   98  TYR98       0.0417
    126  CZ        38.0140   12.8700   -1.1790 C.ar   98  TYR98       0.1957
    127  OH        37.7890   11.5120   -1.5230 O.3    98  TYR98      -0.2866
    128  N         38.8610   18.3890   -3.2190 N.am   99  ASN99      -0.1974
    129  CA        38.2880   18.2960   -4.5420 C.3    99  ASN99       0.1688
    130  C         39.1100   19.0020   -5.6260 C.2    99  ASN99       0.2292
    131  O         40.2390   19.4240   -5.3710 O.2    99  ASN99      -0.2864
    132  CB        36.8230   18.7390   -4.5060 C.3    99  ASN99       0.1181
    133  CG        35.9830   17.8690   -3.6320 C.2    99  ASN99       0.2629
    134  OD1       35.6650   16.7080   -4.0160 O.2    99  ASN99      -0.2716
    135  ND2       35.6590   18.3600   -2.4170 N.am   99  ASN99      -0.0877
    136  N         30.8230   20.1200   -6.4030 N.3   105  ILE105     -0.1245
    137  CA        30.8420   20.4370   -4.9600 C.3   105  ILE105      0.1561
    138  C         31.6510   21.7390   -4.6740 C.2   105  ILE105      0.2260
    139  O         31.3040   22.5200   -3.7800 O.2   105  ILE105     -0.2867
    140  CB        31.3390   19.2610   -4.1220 C.3   105  ILE105      0.0252
    141  CG1       31.0550   19.4890   -2.6200 C.3   105  ILE105      0.0019
    142  CG2       32.8450   18.9980   -4.3330 C.3   105  ILE105      0.0019
    143  CD1       29.5920   19.4740   -2.2020 C.3   105  ILE105      0.0001
@<TRIPOS>BOND
     1   136   137    1
     2   130   131    2
     3   130   129    1
     4   137   138    1
     5   137   140    1
     6   138   139    2
     7   129   132    1
     8   129   128    1
     9   132   133    1
    10   142   140    1
    11   140   141    1
    12   134   133    2
    13    12    14   ar
    14    12    10   ar
    15   133   135   am
    16    14    13   ar
    17   128   118   am
    18   119   118    2
    19     9    10   ar
    20     9     7   ar
    21    10     8   ar
    22   118   117    1
    23   141   143    1
    24    73    71    1
    25    13    11   ar
    26   113   112    2
    27    61    60    2
    28     7     6   ar
    29   125   123   ar
    30   125   126   ar
    31   127   126    1
    32     8    11   ar
    33     8     6   ar
    34   115   114    1
    35   123   121   ar
    36   126   124   ar
    37   117   116    1
    38   117   120    1
    39    20    21    1
    40    20    19    1
    41   112   111    1
    42     6     5    1
    43    60    59    1
    44   121   120    1
    45   121   122   ar
    46   124   122   ar
    47    71    72    1
    48    71    70    1
    49    65    63    1
    50    21    15    1
    51    31    32   ar
    52    31    29   ar
    53    32    30   ar
    54    19    16    1
    55   114   111    1
    56    59    62    1
    57    59    58    1
    58    67    66    1
    59    67    70    1
    60    67    68    1
    61    52    51    2
    62   111   110    1
    63    62    63    1
    64    63    64    1
    65     5     2    1
    66    15    16    1
    67    15     3   am
    68    29    27   ar
    69    30    28   ar
    70     1     2    1
    71    68    69    2
    72    51    58   am
    73    51    50    1
    74    16    17    1
    75     2     3    1
    76     3     4    2
    77    27    28   ar
    78    27    26    1
    79    80    82   ar
    80    80    79   ar
    81    17    22   am
    82    17    18    2
    83    82    84   ar
    84    74    75    1
    85    50    53    1
    86    50    49    1
    87    22    23    1
    88    75    78    1
    89    75    76    1
    90    54    53    1
    91    54    55    1
    92    78    79    1
    93    55    56    1
    94    79    81   ar
    95    26    23    1
    96   105   104    2
    97    57    56    1
    98    84    85    1
    99    84    83   ar
   100    47    46    1
   101    23    24    1
   102    48    46    1
   103    76    77    2
   104   104   103    1
   105    81    83   ar
   106    41    39   am
   107    46    43    1
   108   109   108    1
   109    24    25    2
   110   107   108    1
   111   107   106    1
   112    43    44    1
   113    43    42    1
   114   103   106    1
   115   103   102    1
   116    44    45    2
   117    39    40    2
   118    39    38    1
   119    36    35    2
   120    38    37    1
   121    89    88    2
   122    33    34    1
   123    35    34    1
   124    98    95    1
   125    98    99    1
   126    37    34    1
   127    95    96    1
   128    95    94    1
   129    88    94   am
   130    88    87    1
   131    96    97    2
   132    86    87    1
   133    87    90    1
   134    99   101   ar
   135    99   100   ar
   136    90    91    1
   137    91    92    1
   138    92    93    1
