@<TRIPOS>MOLECULE
tmp/4mesB11.pdb
 128 119 0 0 0
SMALL
GASTEIGER

@<TRIPOS>ATOM
      1  N         37.0490   21.1920    5.9390 N.3    11  PHE11      -0.1227
      2  CA        38.1170   20.4530    6.6070 C.3    11  PHE11       0.1736
      3  C         37.6780   19.7780    7.9180 C.2    11  PHE11       0.2595
      4  O         38.0370   18.6260    8.1950 O.2    11  PHE11      -0.2718
      5  CB        39.2820   21.4020    6.8910 C.3    11  PHE11       0.0547
      6  CG        40.4780   20.7270    7.4830 C.ar   11  PHE11      -0.0202
      7  CD1       40.9470   21.0980    8.7230 C.ar   11  PHE11      -0.0042
      8  CD2       41.1390   19.7230    6.7970 C.ar   11  PHE11      -0.0042
      9  CE1       42.0470   20.4790    9.2870 C.ar   11  PHE11      -0.0003
     10  CE2       42.2420   19.1020    7.3500 C.ar   11  PHE11      -0.0003
     11  CZ        42.6960   19.4830    8.6000 C.ar   11  PHE11      -0.0000
     12  N         36.9200   20.4960    8.7350 N.am   12  MET12      -0.1979
     13  CA        36.4870   19.9490   10.0220 C.3    12  MET12       0.1605
     14  C         35.3940   18.8950    9.8170 C.2    12  MET12       0.2287
     15  O         35.3040   17.9380   10.5750 O.2    12  MET12      -0.2864
     16  CB        36.0200   21.0660   10.9340 C.3    12  MET12       0.0413
     17  CG        37.1710   22.0270   11.3190 C.3    12  MET12       0.0598
     18  SD        38.3130   21.2190   12.4620 S.3    12  MET12      -0.1393
     19  CE        39.6930   20.8350   11.4670 C.3    12  MET12       0.0692
     20  N         37.3160   15.9200    8.5790 N.3    15  LEU15      -0.1245
     21  CA        38.0400   15.3850    9.7300 C.3    15  LEU15       0.1561
     22  C         37.1150   14.5770   10.6580 C.2    15  LEU15       0.2260
     23  O         37.4760   13.4880   11.1090 O.2    15  LEU15      -0.2867
     24  CB        38.7140   16.5210   10.5000 C.3    15  LEU15       0.0270
     25  CG        39.6500   16.1550   11.6620 C.3    15  LEU15       0.0019
     26  CD1       40.7820   15.2310   11.2340 C.3    15  LEU15       0.0001
     27  CD2       40.2320   17.4270   12.2450 C.3    15  LEU15       0.0001
     28  N         37.5940   10.5270   11.3680 N.3    19  ILE19      -0.1245
     29  CA        37.7230   10.0650   12.7420 C.3    19  ILE19       0.1561
     30  C         36.6370    9.0440   13.0270 C.2    19  ILE19       0.2260
     31  O         36.8630    8.0560   13.7460 O.2    19  ILE19      -0.2867
     32  CB        37.6960   11.2540   13.7320 C.3    19  ILE19       0.0252
     33  CG1       39.0260   12.0310   13.6250 C.3    19  ILE19       0.0019
     34  CG2       37.4630   10.7750   15.1650 C.3    19  ILE19       0.0019
     35  CD1       39.1640   13.2470   14.5230 C.3    19  ILE19       0.0001
     36  N         37.1230    5.4230   12.6310 N.3    22  ILE22      -0.1245
     37  CA        37.7430    4.6860   13.7180 C.3    22  ILE22       0.1561
     38  C         36.6410    3.9710   14.4960 C.2    22  ILE22       0.2260
     39  O         35.6290    4.5900   14.8440 O.2    22  ILE22      -0.2867
     40  CB        38.5380    5.6100   14.6550 C.3    22  ILE22       0.0252
     41  CG1       39.6550    6.2990   13.8700 C.3    22  ILE22       0.0019
     42  CG2       39.1140    4.8230   15.8010 C.3    22  ILE22       0.0019
     43  CD1       40.4710    7.2910   14.6770 C.3    22  ILE22       0.0001
     44  N         32.0520    5.8230   22.2170 N.3    32  VAL32      -0.1245
     45  CA        32.6920    7.0690   22.5960 C.3    32  VAL32       0.1561
     46  C         32.8690    7.8380   21.2850 C.2    32  VAL32       0.2260
     47  O         33.7790    7.5320   20.5270 O.2    32  VAL32      -0.2867
     48  CB        34.0380    6.8290   23.3080 C.3    32  VAL32       0.0252
     49  CG1       34.5950    8.1460   23.8700 C.3    32  VAL32       0.0019
     50  CG2       33.8550    5.7810   24.4370 C.3    32  VAL32       0.0019
     51  N         34.1630   10.3120   19.5340 N.3    34  ILE34      -0.1245
     52  CA        35.2480   11.2590   19.3560 C.3    34  ILE34       0.1561
     53  C         35.1360   12.0410   18.0500 C.2    34  ILE34       0.2260
     54  O         35.7000   13.1310   17.9160 O.2    34  ILE34      -0.2867
     55  CB        36.6330   10.5410   19.4140 C.3    34  ILE34       0.0252
     56  CG1       36.6670    9.3320   18.4580 C.3    34  ILE34       0.0019
     57  CG2       36.9430   10.1270   20.8490 C.3    34  ILE34       0.0019
     58  CD1       38.0450    8.6340   18.3620 C.3    34  ILE34       0.0001
     59  N         34.2630   15.7460   17.8910 N.3    37  ILE37      -0.1231
     60  CA        35.1550   16.7850   18.3680 C.3    37  ILE37       0.1678
     61  C         35.5120   17.8390   17.2860 C.2    37  ILE37       0.2434
     62  O         35.4690   19.0250   17.5990 O.2    37  ILE37      -0.2733
     63  CB        36.3810   16.1810   19.1020 C.3    37  ILE37       0.0265
     64  CG1       35.9360   15.5590   20.4210 C.3    37  ILE37       0.0019
     65  CG2       37.4540   17.2160   19.3850 C.3    37  ILE37       0.0020
     66  CD1       36.9040   14.4780   20.9100 C.3    37  ILE37       0.0001
     67  N         35.8370   17.4310   16.0280 N.am   38  PRO38      -0.2729
     68  CA        36.0910   18.4910   15.0420 C.3    38  PRO38       0.1401
     69  C         34.9000   19.4250   14.8150 C.2    38  PRO38       0.2269
     70  O         35.1090   20.5710   14.5590 O.2    38  PRO38      -0.2865
     71  CB        36.4530   17.7110   13.7650 C.3    38  PRO38       0.0296
     72  CG        37.0940   16.4690   14.2940 C.3    38  PRO38       0.0237
     73  CD        36.2410   16.1120   15.5060 C.3    38  PRO38       0.0939
     74  N         34.8360   21.7690   17.8590 N.3    41  LEU41      -0.1245
     75  CA        35.8830   22.7560   17.6630 C.3    41  LEU41       0.1561
     76  C         35.5040   23.8070   16.6110 C.2    41  LEU41       0.2260
     77  O         35.6710   25.0140   16.8380 O.2    41  LEU41      -0.2867
     78  CB        37.1790   22.0590   17.2490 C.3    41  LEU41       0.0270
     79  CG        38.3960   22.9810   17.2890 C.3    41  LEU41       0.0019
     80  CD1       38.6790   23.3820   18.7180 C.3    41  LEU41       0.0001
     81  CD2       39.6170   22.2960   16.6850 C.3    41  LEU41       0.0001
     82  N         33.0410   13.0260   28.2070 N.3   155  ILE155     -0.1231
     83  CA        34.3520   12.8710   28.8470 C.3   155  ILE155      0.1692
     84  C         35.4840   12.9920   27.8420 C.2   155  ILE155      0.2591
     85  O         36.4620   13.7310   28.0590 O.2   155  ILE155     -0.2718
     86  CB        34.4760   11.5330   29.6250 C.3   155  ILE155      0.0266
     87  CG1       33.5820   11.5610   30.8660 C.3   155  ILE155      0.0019
     88  CG2       35.9060   11.2910   30.0320 C.3   155  ILE155      0.0020
     89  CD1       33.2960   10.2220   31.4530 C.3   155  ILE155      0.0001
     90  N         35.3810   12.2460   26.7470 N.am  156  ALA156     -0.1980
     91  CA        36.4240   12.2810   25.7300 C.3   156  ALA156      0.1597
     92  C         36.6110   13.6990   25.1150 C.2   156  ALA156      0.2287
     93  O         37.7410   14.1710   24.9460 O.2   156  ALA156     -0.2864
     94  CB        36.1060   11.2630   24.6340 C.3   156  ALA156      0.0319
     95  N         38.2990   15.9690   27.7130 N.3   159  VAL159     -0.1231
     96  CA        39.7270   15.7100   27.8350 C.3   159  VAL159      0.1692
     97  C         40.4670   16.2790   26.6340 C.2   159  VAL159      0.2591
     98  O         41.4550   17.0290   26.7920 O.2   159  VAL159     -0.2718
     99  CB        40.0270   14.2240   27.9760 C.3   159  VAL159      0.0266
    100  CG1       41.5410   13.9910   27.9160 C.3   159  VAL159      0.0020
    101  CG2       39.4540   13.7010   29.2740 C.3   159  VAL159      0.0020
    102  N         39.9940   15.9550   25.4340 N.am  160  ILE160     -0.1980
    103  CA        40.6770   16.4490   24.2300 C.3   160  ILE160      0.1595
    104  C         40.6790   17.9870   24.1630 C.2   160  ILE160      0.2287
    105  O         41.7250   18.6260   23.9820 O.2   160  ILE160     -0.2864
    106  CB        40.0770   15.8780   22.9190 C.3   160  ILE160      0.0276
    107  CG1       40.1450   14.3530   22.9130 C.3   160  ILE160      0.0022
    108  CG2       40.8520   16.4150   21.6940 C.3   160  ILE160      0.0022
    109  CD1       41.5250   13.7930   23.0080 C.3   160  ILE160      0.0001
    110  N         43.6610   20.8040   24.0890 N.3   164  PHE164     -0.1241
    111  CA        43.7950   21.7570   22.9930 C.3   164  PHE164      0.1605
    112  C         43.7210   23.1870   23.4800 C.2   164  PHE164      0.2264
    113  O         44.3410   24.0800   22.8950 O.2   164  PHE164     -0.2867
    114  CB        42.7040   21.5320   21.9450 C.3   164  PHE164      0.0534
    115  CG        42.9080   20.3080   21.1220 C.ar  164  PHE164     -0.0203
    116  CD1       44.0650   19.5530   21.2390 C.ar  164  PHE164     -0.0042
    117  CD2       41.9390   19.9010   20.2360 C.ar  164  PHE164     -0.0042
    118  CE1       44.2460   18.4190   20.4700 C.ar  164  PHE164     -0.0003
    119  CE2       42.1160   18.7790   19.4680 C.ar  164  PHE164     -0.0003
    120  CZ        43.2690   18.0350   19.5790 C.ar  164  PHE164     -0.0000
    121  N         43.5450   28.4320   18.5880 N.3   171  LEU171     -0.1245
    122  CA        42.5470   27.6820   17.8080 C.3   171  LEU171      0.1561
    123  C         41.1300   28.1180   18.1340 C.2   171  LEU171      0.2260
    124  O         40.2390   27.9950   17.3040 O.2   171  LEU171     -0.2867
    125  CB        42.6060   26.1760   18.0890 C.3   171  LEU171      0.0270
    126  CG        43.5370   25.2280   17.3370 C.3   171  LEU171      0.0019
    127  CD1       43.2900   23.8080   17.8350 C.3   171  LEU171      0.0001
    128  CD2       43.3280   25.2990   15.8410 C.3   171  LEU171      0.0001
@<TRIPOS>BOND
     1     1     2    1
     2     2     5    1
     3     2     3    1
     4     8    10   ar
     5     8     6   ar
     6     5     6    1
     7    10    11   ar
     8     6     7   ar
     9     3     4    2
    10     3    12   am
    11    20    21    1
    12    11     9   ar
    13     7     9   ar
    14    12    13    1
    15    21    24    1
    16    21    22    1
    17    14    13    1
    18    14    15    2
    19    13    16    1
    20    24    25    1
    21    22    23    2
    22    16    17    1
    23    26    25    1
    24    17    18    1
    25    28    29    1
    26    19    18    1
    27    25    27    1
    28    36    37    1
    29    29    30    1
    30    29    32    1
    31    30    31    2
    32    33    32    1
    33    33    35    1
    34    37    38    1
    35    37    40    1
    36    32    34    1
    37    71    72    1
    38    71    68    1
    39    41    40    1
    40    41    43    1
    41    72    73    1
    42    38    39    2
    43    70    69    2
    44    40    42    1
    45    69    68    1
    46    68    67    1
    47    73    67    1
    48   128   126    1
    49    67    61   am
    50    76    77    2
    51    76    75    1
    52    81    79    1
    53    78    79    1
    54    78    75    1
    55    61    62    2
    56    61    60    1
    57    79    80    1
    58   124   123    2
    59   126   127    1
    60   126   125    1
    61    75    74    1
    62   122   125    1
    63   122   123    1
    64   122   121    1
    65    59    60    1
    66    54    53    2
    67    53    52    1
    68    58    56    1
    69    60    63    1
    70    56    55    1
    71    63    65    1
    72    63    64    1
    73    52    55    1
    74    52    51    1
    75    55    57    1
    76   119   120   ar
    77   119   117   ar
    78   120   118   ar
    79   117   115   ar
    80    64    66    1
    81   118   116   ar
    82    47    46    2
    83   115   116   ar
    84   115   114    1
    85    46    45    1
    86   108   106    1
    87   114   111    1
    88    44    45    1
    89    45    48    1
    90   113   112    2
    91   107   106    1
    92   107   109    1
    93   106   103    1
    94   111   112    1
    95   111   110    1
    96    48    49    1
    97    48    50    1
    98   105   104    2
    99   104   103    1
   100   103   102    1
   101    94    91    1
   102    93    92    2
   103    92    91    1
   104   102    97   am
   105    91    90    1
   106    97    98    2
   107    97    96    1
   108    90    84   am
   109    95    96    1
   110    96    99    1
   111    84    85    2
   112    84    83    1
   113   100    99    1
   114    99   101    1
   115    82    83    1
   116    83    86    1
   117    86    88    1
   118    86    87    1
   119    87    89    1
