@<TRIPOS>MOLECULE
tmp/4mesB18.pdb
 172 168 0 0 0
SMALL
GASTEIGER

@<TRIPOS>ATOM
      1  N         34.5910    2.8240   17.4780 N.3    24  ASN24      -0.1240
      2  CA        34.4400    3.5980   18.7140 C.3    24  ASN24       0.1653
      3  C         33.4850    2.9250   19.6880 C.2    24  ASN24       0.2266
      4  O         33.0950    3.5140   20.7020 O.2    24  ASN24      -0.2867
      5  CB        33.9790    5.0060   18.3920 C.3    24  ASN24       0.1155
      6  CG        32.6460    5.0290   17.7080 C.2    24  ASN24       0.2627
      7  OD1       32.0310    3.9920   17.4860 O.2    24  ASN24      -0.2716
      8  ND2       32.1990    6.1990   17.3490 N.am   24  ASN24      -0.0877
      9  N         26.0890   -1.4100   22.1440 N.3    29  TRP29      -0.1241
     10  CA        25.7910   -0.2600   21.3300 C.3    29  TRP29       0.1605
     11  C         26.3150    1.0180   21.9490 C.2    29  TRP29       0.2264
     12  O         25.9700    2.1260   21.5330 O.2    29  TRP29      -0.2867
     13  CB        24.3000   -0.1900   21.0840 C.3    29  TRP29       0.0550
     14  CG        23.8890   -1.1500   20.0380 C.ar   29  TRP29       0.0003
     15  CD1       23.4120   -2.4320   20.2170 C.ar   29  TRP29       0.0946
     16  CD2       23.9210   -0.9260   18.6290 C.ar   29  TRP29       0.0152
     17  NE1       23.1490   -3.0100   18.9950 N.ar   29  TRP29      -0.2442
     18  CE2       23.4510   -2.1090   18.0050 C.ar   29  TRP29       0.0810
     19  CE3       24.2940    0.1590   17.8280 C.ar   29  TRP29       0.0012
     20  CZ2       23.3440   -2.2280   16.6190 C.ar   29  TRP29       0.0191
     21  CZ3       24.1920    0.0340   16.4580 C.ar   29  TRP29       0.0001
     22  CH2       23.7230   -1.1490   15.8650 C.ar   29  TRP29       0.0015
     23  N         29.1360    3.6970   22.6550 N.3    31  ILE31      -0.1245
     24  CA        30.2360    4.2750   21.8910 C.3    31  ILE31       0.1561
     25  C         30.8070    5.5220   22.5570 C.2    31  ILE31       0.2260
     26  O         30.1370    6.1950   23.3470 O.2    31  ILE31      -0.2867
     27  CB        29.7820    4.6360   20.4340 C.3    31  ILE31       0.0252
     28  CG1       28.7710    5.8200   20.4340 C.3    31  ILE31       0.0019
     29  CG2       29.1970    3.4160   19.7590 C.3    31  ILE31       0.0019
     30  CD1       28.3770    6.3240   19.0210 C.3    31  ILE31       0.0001
     31  N         31.9910    8.8170   21.0200 N.3    33  GLU33      -0.1245
     32  CA        31.9400    9.4300   19.7040 C.3    33  GLU33       0.1567
     33  C         32.8850   10.6510   19.5970 C.2    33  GLU33       0.2260
     34  O         32.4670   11.8290   19.5290 O.2    33  GLU33      -0.2867
     35  CB        30.5090    9.7490   19.2960 C.3    33  GLU33       0.0388
     36  CG        30.4000    9.8800   17.7860 C.3    33  GLU33       0.1160
     37  CD        29.0160   10.2570   17.2830 C.2    33  GLU33       0.3649
     38  OE1       28.2160   10.7790   18.0870 O.co2  33  GLU33      -0.2457
     39  OE2       28.7350   10.0580   16.0950 O.co2  33  GLU33      -0.2457
     40  N         24.1890    3.8000   10.2100 N.3    69  TYR69      -0.1241
     41  CA        23.1510    2.7800   10.4490 C.3    69  TYR69       0.1605
     42  C         21.8250    3.3220    9.9770 C.2    69  TYR69       0.2264
     43  O         21.2220    4.1590   10.6340 O.2    69  TYR69      -0.2867
     44  CB        23.0240    2.4380   11.9240 C.3    69  TYR69       0.0534
     45  CG        24.2870    1.9360   12.5460 C.ar   69  TYR69      -0.0201
     46  CD1       24.7930    0.6810   12.2190 C.ar   69  TYR69      -0.0009
     47  CD2       24.9700    2.7110   13.4750 C.ar   69  TYR69      -0.0009
     48  CE1       25.9450    0.2150   12.8020 C.ar   69  TYR69       0.0417
     49  CE2       26.1140    2.2600   14.0570 C.ar   69  TYR69       0.0417
     50  CZ        26.5990    1.0140   13.7270 C.ar   69  TYR69       0.1957
     51  OH        27.7550    0.5800   14.3260 O.3    69  TYR69      -0.2866
     52  N         19.1080   10.7550   12.9020 N.3    79  GLU79      -0.1231
     53  CA        20.3950   10.3540   13.4870 C.3    79  GLU79       0.1699
     54  C         21.6440   10.7870   12.7210 C.2    79  GLU79       0.2592
     55  O         22.7210   10.8670   13.3030 O.2    79  GLU79      -0.2718
     56  CB        20.4240    8.8490   13.7350 C.3    79  GLU79       0.0402
     57  CG        19.3020    8.4150   14.6530 C.3    79  GLU79       0.1161
     58  CD        19.6620    7.1980   15.4320 C.2    79  GLU79       0.3649
     59  OE1       20.3360    7.3540   16.4740 O.co2  79  GLU79      -0.2457
     60  OE2       19.2640    6.0990   15.0010 O.co2  79  GLU79      -0.2457
     61  N         21.4810   11.1130   11.4430 N.am   80  TYR80      -0.1976
     62  CA        22.5970   11.5160   10.5980 C.3    80  TYR80       0.1639
     63  C         22.4400   12.8880    9.9370 C.2    80  TYR80       0.2290
     64  O         23.3000   13.2780    9.1710 O.2    80  TYR80      -0.2864
     65  CB        22.8900   10.4210    9.5530 C.3    80  TYR80       0.0560
     66  CG        23.4150    9.2030   10.2490 C.ar   80  TYR80      -0.0198
     67  CD1       24.7410    9.1330   10.6500 C.ar   80  TYR80      -0.0009
     68  CD2       22.5640    8.1410   10.5630 C.ar   80  TYR80      -0.0009
     69  CE1       25.2070    8.0410   11.3380 C.ar   80  TYR80       0.0417
     70  CE2       23.0270    7.0400   11.2300 C.ar   80  TYR80       0.0417
     71  CZ        24.3440    6.9900   11.6160 C.ar   80  TYR80       0.1957
     72  OH        24.8050    5.8840   12.2970 O.3    80  TYR80      -0.2866
     73  N         22.7960   16.3250   21.0100 N.3   116  LYS116     -0.1231
     74  CA        22.9450   15.2550   20.0200 C.3   116  LYS116      0.1693
     75  C         22.4310   13.9120   20.5740 C.2   116  LYS116      0.2592
     76  O         21.6670   13.2160   19.8960 O.2   116  LYS116     -0.2718
     77  CB        24.3940   15.0990   19.6020 C.3   116  LYS116      0.0285
     78  CG        24.5940   14.0780   18.4900 C.3   116  LYS116      0.0035
     79  CD        26.0530   14.0040   18.1000 C.3   116  LYS116      0.0206
     80  CE        26.2290   13.4710   16.6580 C.3   116  LYS116      0.1093
     81  NZ        26.1560   11.9740   16.5590 N.3   116  LYS116     -0.1314
     82  N         22.8480   13.5630   21.7910 N.am  117  TYR117     -0.1976
     83  CA        22.4330   12.2980   22.3860 C.3   117  TYR117      0.1639
     84  C         20.9820   12.3090   22.8030 C.2   117  TYR117      0.2290
     85  O         20.3260   11.2470   22.7830 O.2   117  TYR117     -0.2864
     86  CB        23.3970   11.8340   23.4520 C.3   117  TYR117      0.0560
     87  CG        24.5370   11.2350   22.6900 C.ar  117  TYR117     -0.0198
     88  CD1       25.4740   12.0490   22.0470 C.ar  117  TYR117     -0.0009
     89  CD2       24.6150    9.8530   22.5020 C.ar  117  TYR117     -0.0009
     90  CE1       26.4770   11.4840   21.2620 C.ar  117  TYR117      0.0417
     91  CE2       25.5990    9.2830   21.7310 C.ar  117  TYR117      0.0417
     92  CZ        26.5380   10.0970   21.1100 C.ar  117  TYR117      0.1957
     93  OH        27.5190    9.5100   20.3300 O.3   117  TYR117     -0.2866
     94  N         19.5870   10.9260   19.6630 N.3   120  HIS120     -0.1241
     95  CA        19.8200    9.4820   19.6220 C.3   120  HIS120      0.1621
     96  C         18.9380    8.7180   20.6150 C.2   120  HIS120      0.2264
     97  O         18.4770    7.6080   20.3150 O.2   120  HIS120     -0.2867
     98  CB        21.2980    9.1740   19.8600 C.3   120  HIS120      0.0745
     99  CG        22.1650    9.6570   18.7560 C.ar  120  HIS120      0.0817
    100  ND1       21.9250    9.3280   17.4350 N.ar  120  HIS120     -0.2268
    101  CD2       23.2590   10.4570   18.7570 C.ar  120  HIS120      0.1154
    102  CE1       22.8360    9.9020   16.6730 C.ar  120  HIS120      0.1986
    103  NE2       23.6500   10.5940   17.4480 N.ar  120  HIS120     -0.2212
    104  N         16.3410    5.9880   19.6140 N.3   124  GLY124     -0.1225
    105  CA        16.5080    4.6760   20.2450 C.3   124  GLY124      0.1811
    106  C         15.1490    4.1430   20.6650 C.2   124  GLY124      0.2280
    107  O         14.8300    2.9770   20.4570 O.2   124  GLY124     -0.2866
    108  N         15.0900    1.3380   17.8050 N.3   128  TRP128     -0.1241
    109  CA        16.1450    0.4230   18.2350 C.3   128  TRP128      0.1605
    110  C         15.7480   -0.4950   19.3910 C.2   128  TRP128      0.2264
    111  O         16.5970   -1.2170   19.9370 O.2   128  TRP128     -0.2867
    112  CB        17.3640    1.2400   18.6430 C.3   128  TRP128      0.0550
    113  CG        18.0490    1.9470   17.5090 C.ar  128  TRP128      0.0003
    114  CD1       17.9200    3.2790   17.1430 C.ar  128  TRP128      0.0946
    115  CD2       18.9940    1.3760   16.5930 C.ar  128  TRP128      0.0152
    116  NE1       18.7050    3.5380   16.0590 N.ar  128  TRP128     -0.2442
    117  CE2       19.3970    2.4100   15.7120 C.ar  128  TRP128      0.0810
    118  CE3       19.5460    0.0980   16.4390 C.ar  128  TRP128      0.0012
    119  CZ2       20.3070    2.2000   14.6720 C.ar  128  TRP128      0.0191
    120  CZ3       20.4510   -0.1150   15.3940 C.ar  128  TRP128      0.0001
    121  CH2       20.8470    0.9550   14.5430 C.ar  128  TRP128      0.0015
    122  N         16.6730   -4.3690   20.1530 N.3   131  TYR131     -0.1241
    123  CA        17.9170   -4.7310   20.8160 C.3   131  TYR131      0.1605
    124  C         17.8720   -4.6360   22.3440 C.2   131  TYR131      0.2264
    125  O         18.8680   -4.9270   22.9970 O.2   131  TYR131     -0.2867
    126  CB        19.0420   -3.8130   20.3190 C.3   131  TYR131      0.0534
    127  CG        19.4130   -4.0350   18.8780 C.ar  131  TYR131     -0.0201
    128  CD1       20.1140   -5.1790   18.4880 C.ar  131  TYR131     -0.0009
    129  CD2       19.0410   -3.1330   17.9130 C.ar  131  TYR131     -0.0009
    130  CE1       20.4440   -5.3900   17.1620 C.ar  131  TYR131      0.0417
    131  CE2       19.3510   -3.3270   16.6070 C.ar  131  TYR131      0.0417
    132  CZ        20.0600   -4.4500   16.2230 C.ar  131  TYR131      0.1957
    133  OH        20.3750   -4.6140   14.9000 O.3   131  TYR131     -0.2866
    134  N         15.8320    1.3310   28.0190 N.3   141  TYR141     -0.1227
    135  CA        16.9300    0.8730   27.1920 C.3   141  TYR141      0.1736
    136  C         17.6420    2.0460   26.4700 C.2   141  TYR141      0.2596
    137  O         18.8780    2.1320   26.4780 O.2   141  TYR141     -0.2718
    138  CB        16.4540   -0.1530   26.1600 C.3   141  TYR141      0.0548
    139  CG        17.5550   -0.6270   25.2500 C.ar  141  TYR141     -0.0200
    140  CD1       18.7100   -1.1900   25.7640 C.ar  141  TYR141     -0.0009
    141  CD2       17.4360   -0.5050   23.8670 C.ar  141  TYR141     -0.0009
    142  CE1       19.7160   -1.6320   24.9140 C.ar  141  TYR141      0.0417
    143  CE2       18.4090   -0.9580   23.0220 C.ar  141  TYR141      0.0417
    144  CZ        19.5580   -1.4830   23.5460 C.ar  141  TYR141      0.1957
    145  OH        20.5290   -1.8860   22.6780 O.3   141  TYR141     -0.2866
    146  N         16.8720    2.9160   25.8240 N.am  142  SER142     -0.1952
    147  CA        17.4670    3.9550   25.0220 C.3   142  SER142      0.1924
    148  C         18.1760    4.9510   25.9500 C.2   142  SER142      0.2314
    149  O         19.2450    5.4380   25.6270 O.2   142  SER142     -0.2863
    150  CB        16.4320    4.6430   24.1450 C.3   142  SER142      0.2116
    151  OG        17.0770    5.6060   23.2950 O.3   142  SER142     -0.2180
    152  N         21.5260    3.3380   26.9450 N.3   145  VAL145     -0.1231
    153  CA        22.4940    3.2700   25.8790 C.3   145  VAL145      0.1692
    154  C         22.9530    4.6670   25.5000 C.2   145  VAL145      0.2592
    155  O         24.1220    4.9150   25.3620 O.2   145  VAL145     -0.2718
    156  CB        21.9260    2.5780   24.6270 C.3   145  VAL145      0.0266
    157  CG1       22.9010    2.6900   23.4260 C.3   145  VAL145      0.0020
    158  CG2       21.5960    1.1110   24.9350 C.3   145  VAL145      0.0020
    159  N         22.0180    5.5790   25.2990 N.am  146  ASN146     -0.1974
    160  CA        22.4000    6.8680   24.7670 C.3   146  ASN146      0.1688
    161  C         22.9080    7.8240   25.8390 C.2   146  ASN146      0.2292
    162  O         23.8220    8.6410   25.5830 O.2   146  ASN146     -0.2864
    163  CB        21.2860    7.4000   23.9070 C.3   146  ASN146      0.1181
    164  CG        21.1010    6.5530   22.6800 C.2   146  ASN146      0.2629
    165  OD1       22.0220    6.4440   21.8610 O.2   146  ASN146     -0.2716
    166  ND2       19.9170    5.8940   22.5560 N.am  146  ASN146     -0.0877
    167  N         26.5250    6.4920   26.3620 N.3   149  SER149     -0.1217
    168  CA        27.3730    6.9150   25.2410 C.3   149  SER149      0.1889
    169  C         27.6020    8.4170   25.2950 C.2   149  SER149      0.2288
    170  O         28.7070    8.8880   25.0570 O.2   149  SER149     -0.2866
    171  CB        26.7480    6.5650   23.8810 C.3   149  SER149      0.2089
    172  OG        26.6980    5.1540   23.6610 O.3   149  SER149     -0.2183
@<TRIPOS>BOND
     1    64    63    2
     2    65    66    1
     3    65    62    1
     4    63    62    1
     5    42    41    1
     6    42    43    2
     7    40    41    1
     8    66    68   ar
     9    66    67   ar
    10    41    44    1
    11    68    70   ar
    12    62    61    1
    13    67    69   ar
    14    70    71   ar
    15    69    71   ar
    16    61    54   am
    17    71    72    1
    18    44    45    1
    19    46    45   ar
    20    46    48   ar
    21    45    47   ar
    22    54    55    2
    23    54    53    1
    24    48    50   ar
    25    52    53    1
    26    47    49   ar
    27    53    56    1
    28    50    49   ar
    29    50    51    1
    30    56    57    1
    31   121   119   ar
    32   121   120   ar
    33    57    58    1
    34   119   117   ar
    35   133   132    1
    36    60    58   ar
    37   120   118   ar
    38    58    59   ar
    39   117   116   ar
    40   117   115   ar
    41    22    21   ar
    42    22    20   ar
    43   116   114   ar
    44    39    37   ar
    45   132   131   ar
    46   132   130   ar
    47   118   115   ar
    48    21    19   ar
    49    81    80    1
    50   115   113   ar
    51   131   129   ar
    52    20    18   ar
    53    80    79    1
    54   102   100   ar
    55   102   103   ar
    56   114   113   ar
    57   130   128   ar
    58    37    36    1
    59    37    38   ar
    60     8     6   am
    61   100    99   ar
    62   103   101   ar
    63     1     2    1
    64     7     6    2
    65   113   112    1
    66     6     5    1
    67    36    35    1
    68   108   109    1
    69    19    16   ar
    70   129   127   ar
    71    18    16   ar
    72    18    17   ar
    73    79    78    1
    74   109   112    1
    75   109   110    1
    76     5     2    1
    77   128   127   ar
    78    78    77    1
    79    16    14   ar
    80     2     3    1
    81    99   101   ar
    82    99    98    1
    83   127   126    1
    84    17    15   ar
    85    30    28    1
    86    35    32    1
    87   110   111    2
    88    34    33    2
    89    33    32    1
    90    77    74    1
    91   104   105    1
    92    95    94    1
    93    95    98    1
    94    95    96    1
    95     3     4    2
    96    32    31    1
    97    29    27    1
    98    76    75    2
    99    74    75    1
   100    74    73    1
   101    14    15   ar
   102    14    13    1
   103   122   123    1
   104   105   106    1
   105    97    96    2
   106   126   123    1
   107    93    92    1
   108    27    28    1
   109    27    24    1
   110   107   106    2
   111    75    82   am
   112   123   124    1
   113    13    10    1
   114    92    90   ar
   115    92    91   ar
   116    90    88   ar
   117    10    11    1
   118    10     9    1
   119    12    11    2
   120    91    89   ar
   121    82    83    1
   122   165   164    2
   123    24    25    1
   124    24    23    1
   125    88    87   ar
   126   124   125    2
   127    83    84    1
   128    83    86    1
   129    89    87   ar
   130   166   164   am
   131    25    26    2
   132   145   144    1
   133   164   163    1
   134    87    86    1
   135    85    84    2
   136   143   144   ar
   137   143   141   ar
   138   151   150    1
   139   157   156    1
   140   144   142   ar
   141   172   171    1
   142   141   139   ar
   143   171   168    1
   144   163   160    1
   145   150   147    1
   146   156   158    1
   147   156   153    1
   148   160   159    1
   149   160   161    1
   150   142   140   ar
   151   147   146    1
   152   147   148    1
   153   170   169    2
   154   168   169    1
   155   168   167    1
   156   139   140   ar
   157   139   138    1
   158   159   154   am
   159   155   154    2
   160   154   153    1
   161   162   161    2
   162   149   148    2
   163   146   136   am
   164   153   152    1
   165   138   135    1
   166   136   137    2
   167   136   135    1
   168   135   134    1
