@<TRIPOS>MOLECULE
tmp/4mesB15.pdb
 81 76 0 0 0
SMALL
GASTEIGER

@<TRIPOS>ATOM
      1  N         34.6000   22.6990    5.6770 N.3    10  ALA10      -0.1231
      2  CA        34.8450   21.4730    4.9100 C.3    10  ALA10       0.1694
      3  C         35.9340   20.5940    5.5410 C.2    10  ALA10       0.2592
      4  O         35.7730   19.4030    5.6580 O.2    10  ALA10      -0.2718
      5  CB        35.2190   21.8200    3.4820 C.3    10  ALA10       0.0304
      6  N         37.0490   21.1920    5.9390 N.am   11  PHE11      -0.1976
      7  CA        38.1170   20.4530    6.6070 C.3    11  PHE11       0.1639
      8  C         37.6780   19.7780    7.9180 C.2    11  PHE11       0.2290
      9  O         38.0370   18.6260    8.1950 O.2    11  PHE11      -0.2864
     10  CB        39.2820   21.4020    6.8910 C.3    11  PHE11       0.0560
     11  CG        40.4780   20.7270    7.4830 C.ar   11  PHE11      -0.0200
     12  CD1       40.9470   21.0980    8.7230 C.ar   11  PHE11      -0.0042
     13  CD2       41.1390   19.7230    6.7970 C.ar   11  PHE11      -0.0042
     14  CE1       42.0470   20.4790    9.2870 C.ar   11  PHE11      -0.0003
     15  CE2       42.2420   19.1020    7.3500 C.ar   11  PHE11      -0.0003
     16  CZ        42.6960   19.4830    8.6000 C.ar   11  PHE11      -0.0000
     17  N         35.2200   16.9500    7.0410 N.3    14  ALA14      -0.1245
     18  CA        35.9930   15.8200    6.5300 C.3    14  ALA14       0.1562
     19  C         36.7530   15.1210    7.6760 C.2    14  ALA14       0.2260
     20  O         36.8040   13.8890    7.7430 O.2    14  ALA14      -0.2867
     21  CB        36.9660   16.2750    5.4140 C.3    14  ALA14       0.0290
     22  N         34.5100   13.0810    9.7460 N.3    17  PHE17      -0.1227
     23  CA        34.1440   11.8830    9.0150 C.3    17  PHE17       0.1736
     24  C         35.2360   10.8020    9.0650 C.2    17  PHE17       0.2595
     25  O         34.9500    9.6410    9.2980 O.2    17  PHE17      -0.2718
     26  CB        33.8080   12.2040    7.5640 C.3    17  PHE17       0.0547
     27  CG        33.7140   10.9900    6.7230 C.ar   17  PHE17      -0.0202
     28  CD1       32.7220   10.0350    6.9830 C.ar   17  PHE17      -0.0042
     29  CD2       34.6290   10.7510    5.7220 C.ar   17  PHE17      -0.0042
     30  CE1       32.6450    8.8780    6.2350 C.ar   17  PHE17      -0.0003
     31  CE2       34.5410    9.6000    4.9590 C.ar   17  PHE17      -0.0003
     32  CZ        33.5490    8.6660    5.2180 C.ar   17  PHE17      -0.0000
     33  N         36.4760   11.2050    8.8640 N.am   18  ILE18      -0.1980
     34  CA        37.6210   10.3080    8.9410 C.3    18  ILE18       0.1595
     35  C         37.7590    9.7000   10.3420 C.2    18  ILE18       0.2287
     36  O         38.0080    8.5000   10.4920 O.2    18  ILE18      -0.2864
     37  CB        38.9110   11.0860    8.5460 C.3    18  ILE18       0.0276
     38  CG1       38.8680   11.4030    7.0560 C.3    18  ILE18       0.0022
     39  CG2       40.1770   10.2990    8.8650 C.3    18  ILE18       0.0022
     40  CD1       39.8150   12.4420    6.6470 C.3    18  ILE18       0.0001
     41  N         35.5040    6.9110   11.1430 N.3    21  LEU21      -0.1245
     42  CA        35.8700    5.6190   10.5600 C.3    21  LEU21       0.1561
     43  C         36.5710    4.7760   11.6110 C.2    21  LEU21       0.2260
     44  O         36.6260    3.5620   11.4990 O.2    21  LEU21      -0.2867
     45  CB        36.7960    5.7910    9.3400 C.3    21  LEU21       0.0270
     46  CG        36.2380    6.5860    8.1590 C.3    21  LEU21       0.0019
     47  CD1       37.1990    6.5480    6.9920 C.3    21  LEU21       0.0001
     48  CD2       34.8720    6.0530    7.7430 C.3    21  LEU21       0.0001
     49  N         27.4540   18.4030    6.8900 N.3    57  ILE57      -0.1245
     50  CA        28.3420   17.8000    5.9000 C.3    57  ILE57       0.1561
     51  C         28.7990   16.4350    6.4140 C.2    57  ILE57       0.2260
     52  O         28.8710   15.4640    5.6680 O.2    57  ILE57      -0.2867
     53  CB        29.5760   18.6780    5.5850 C.3    57  ILE57       0.0252
     54  CG1       29.1520   20.0000    4.9320 C.3    57  ILE57       0.0019
     55  CG2       30.5430   17.9350    4.6120 C.3    57  ILE57       0.0019
     56  CD1       30.3190   20.9730    4.7010 C.3    57  ILE57       0.0001
     57  N         28.2320   12.7540    4.5190 N.3    61  LEU61      -0.1245
     58  CA        29.3850   11.8930    4.2800 C.3    61  LEU61       0.1561
     59  C         29.1680   10.5210    4.9210 C.2    61  LEU61       0.2260
     60  O         29.4460    9.5130    4.2920 O.2    61  LEU61      -0.2867
     61  CB        30.6670   12.5310    4.8550 C.3    61  LEU61       0.0270
     62  CG        31.2230   13.7570    4.1230 C.3    61  LEU61       0.0019
     63  CD1       32.4410   14.3710    4.8620 C.3    61  LEU61       0.0001
     64  CD2       31.5700   13.4140    2.6700 C.3    61  LEU61       0.0001
     65  N         28.6340    7.1860    2.2440 N.3    65  THR65      -0.1218
     66  CA        29.7410    6.2290    2.2230 C.3    65  THR65       0.1862
     67  C         29.3850    4.8650    2.8300 C.2    65  THR65       0.2287
     68  O         30.2390    3.9830    2.9050 O.2    65  THR65      -0.2866
     69  CB        30.9700    6.7710    2.9540 C.3    65  THR65       0.1770
     70  OG1       30.6550    7.0070    4.3440 O.3    65  THR65      -0.2211
     71  CG2       31.4630    8.0600    2.2840 C.3    65  THR65       0.0375
     72  N         28.5820    4.3210    5.9820 N.3    67  HIS67      -0.1241
     73  CA        29.0690    4.2310    7.3710 C.3    67  HIS67       0.1621
     74  C         28.0520    4.7820    8.3590 C.2    67  HIS67       0.2264
     75  O         28.4110    5.2820    9.4280 O.2    67  HIS67      -0.2867
     76  CB        30.4300    4.9350    7.5340 C.3    67  HIS67       0.0745
     77  CG        31.5850    4.1120    7.0440 C.ar   67  HIS67       0.0817
     78  ND1       32.3570    3.3420    7.8850 N.ar   67  HIS67      -0.2268
     79  CD2       32.0750    3.9100    5.7960 C.ar   67  HIS67       0.1154
     80  CE1       33.2780    2.7080    7.1810 C.ar   67  HIS67       0.1986
     81  NE2       33.1290    3.0340    5.9100 N.ar   67  HIS67      -0.2212
@<TRIPOS>BOND
     1    66    65    1
     2    66    67    1
     3    66    69    1
     4    71    69    1
     5    64    62    1
     6    67    68    2
     7    69    70    1
     8     5     2    1
     9    62    61    1
    10    62    63    1
    11    58    57    1
    12    58    61    1
    13    58    59    1
    14    60    59    2
    15    55    53    1
    16    56    54    1
    17     2     3    1
    18     2     1    1
    19    54    53    1
    20    31    32   ar
    21    31    29   ar
    22    32    30   ar
    23    21    18    1
    24     3     4    2
    25     3     6   am
    26    53    50    1
    27    52    51    2
    28    29    27   ar
    29    79    81   ar
    30    79    77   ar
    31    50    51    1
    32    50    49    1
    33    81    80   ar
    34     6     7    1
    35    72    73    1
    36    30    28   ar
    37    18    17    1
    38    18    19    1
    39     7    10    1
    40     7     8    1
    41    40    38    1
    42    27    28   ar
    43    27    26    1
    44    13    15   ar
    45    13    11   ar
    46    10    11    1
    47    47    46    1
    48    77    76    1
    49    77    78   ar
    50    38    37    1
    51    80    78   ar
    52    15    16   ar
    53    73    76    1
    54    73    74    1
    55    11    12   ar
    56    26    23    1
    57    19    20    2
    58    48    46    1
    59     8     9    2
    60    46    45    1
    61    74    75    2
    62    37    39    1
    63    37    34    1
    64    16    14   ar
    65    12    14   ar
    66    33    34    1
    67    33    24   am
    68    34    35    1
    69    23    24    1
    70    23    22    1
    71    24    25    2
    72    45    42    1
    73    35    36    2
    74    42    41    1
    75    42    43    1
    76    44    43    2
