@<TRIPOS>MOLECULE
tmp/4mf1B00.pdb
 152 144 0 0 0
SMALL
GASTEIGER

@<TRIPOS>ATOM
      1  N          7.4720    9.1500  -30.0640 N.3    13  GLN13      -0.1245
      2  CA         7.5900    8.7310  -31.4590 C.3    13  GLN13       0.1566
      3  C          6.5060    7.7460  -31.8410 C.2    13  GLN13       0.2260
      4  O          6.0840    6.9170  -31.0280 O.2    13  GLN13      -0.2867
      5  CB         8.9630    8.1200  -31.7500 C.3    13  GLN13       0.0367
      6  CG         9.1940    6.7790  -31.0850 C.3    13  GLN13       0.0905
      7  CD        10.5860    6.2320  -31.3410 C.2    13  GLN13       0.2608
      8  OE1       11.5170    6.4730  -30.5670 O.2    13  GLN13      -0.2717
      9  NE2       10.7320    5.4810  -32.4290 N.am   13  GLN13      -0.0878
     10  N          5.2030    4.4950  -33.3140 N.3    15  ILE15      -0.1245
     11  CA         5.8060    3.1730  -33.3990 C.3    15  ILE15       0.1561
     12  C          4.9390    2.2230  -34.2220 C.2    15  ILE15       0.2260
     13  O          5.3810    1.1340  -34.5850 O.2    15  ILE15      -0.2867
     14  CB         6.0870    2.5770  -32.0030 C.3    15  ILE15       0.0252
     15  CG1        4.8520    2.6710  -31.1030 C.3    15  ILE15       0.0019
     16  CG2        7.2410    3.2920  -31.3420 C.3    15  ILE15       0.0019
     17  CD1        5.1610    2.3890  -29.6370 C.3    15  ILE15       0.0001
     18  N         -0.1420    4.1380  -33.1170 N.3    21  VAL21      -0.1245
     19  CA         0.4370    3.8640  -31.8110 C.3    21  VAL21       0.1561
     20  C          1.7060    4.6870  -31.6150 C.2    21  VAL21       0.2260
     21  O          2.5640    4.7390  -32.4970 O.2    21  VAL21      -0.2867
     22  CB         0.7730    2.3740  -31.6310 C.3    21  VAL21       0.0252
     23  CG1        1.3400    2.1330  -30.2470 C.3    21  VAL21       0.0019
     24  CG2       -0.4650    1.5210  -31.8630 C.3    21  VAL21       0.0019
     25  N          4.9740    5.7040  -28.8270 N.3    23  LEU23      -0.1245
     26  CA         5.7050    5.5870  -27.5780 C.3    23  LEU23       0.1561
     27  C          5.5300    6.9280  -26.8830 C.2    23  LEU23       0.2260
     28  O          5.6340    7.9690  -27.5240 O.2    23  LEU23      -0.2867
     29  CB         7.1870    5.3100  -27.8330 C.3    23  LEU23       0.0270
     30  CG         8.1400    5.2940  -26.6200 C.3    23  LEU23       0.0019
     31  CD1        9.5510    4.8800  -27.0450 C.3    23  LEU23       0.0001
     32  CD2        8.1920    6.6320  -25.8970 C.3    23  LEU23       0.0001
     33  N          6.3270    4.9100  -18.8140 N.3    31  LYS31      -0.1245
     34  CA         6.4760    4.6990  -20.2430 C.3    31  LYS31       0.1561
     35  C          5.2120    4.0180  -20.7610 C.2    31  LYS31       0.2260
     36  O          4.7560    3.0350  -20.1920 O.2    31  LYS31      -0.2867
     37  CB         7.7340    3.8800  -20.5340 C.3    31  LYS31       0.0271
     38  CG         8.3500    4.1410  -21.9040 C.3    31  LYS31       0.0035
     39  CD         9.6820    3.4050  -22.0640 C.3    31  LYS31       0.0206
     40  CE        10.3450    3.7020  -23.4130 C.3    31  LYS31       0.1093
     41  NZ        11.6540    2.9750  -23.5910 N.3    31  LYS31      -0.1314
     42  N          2.4080    3.0340  -24.2540 N.3    33  ALA33      -0.1245
     43  CA         2.0460    2.9550  -25.6610 C.3    33  ALA33       0.1562
     44  C          0.6520    3.5510  -25.7950 C.2    33  ALA33       0.2260
     45  O         -0.3090    3.0350  -25.2200 O.2    33  ALA33      -0.2867
     46  CB         2.0640    1.5190  -26.1430 C.3    33  ALA33       0.0290
     47  N         -2.5730    4.4980  -28.0240 N.3    35  LYS35      -0.1245
     48  CA        -3.2720    4.0940  -29.2250 C.3    35  LYS35       0.1561
     49  C         -4.3810    5.0720  -29.5390 C.2    35  LYS35       0.2260
     50  O         -5.4060    5.1120  -28.8510 O.2    35  LYS35      -0.2867
     51  CB        -3.8710    2.7030  -29.0530 C.3    35  LYS35       0.0271
     52  CG        -4.6170    2.2160  -30.2940 C.3    35  LYS35       0.0035
     53  CD        -5.1940    0.8330  -30.0560 C.3    35  LYS35       0.0206
     54  CE        -5.8340    0.2360  -31.2940 C.3    35  LYS35       0.1093
     55  NZ        -6.2000   -1.1890  -31.0290 N.3    35  LYS35      -0.1314
     56  N         -2.2040   -7.8940  -21.4950 N.3    60  VAL60      -0.1245
     57  CA        -1.7020   -6.5280  -21.4320 C.3    60  VAL60       0.1561
     58  C         -2.6510   -5.6100  -20.6520 C.2    60  VAL60       0.2260
     59  O         -3.8690   -5.8370  -20.5920 O.2    60  VAL60      -0.2867
     60  CB        -1.4320   -5.9540  -22.8340 C.3    60  VAL60       0.0252
     61  CG1       -2.7460   -5.8610  -23.6430 C.3    60  VAL60       0.0019
     62  CG2       -0.7420   -4.6030  -22.7280 C.3    60  VAL60       0.0019
     63  N         -1.8920    2.2650  -22.9160 N.3    76  PHE76      -0.1227
     64  CA        -1.4110    0.9680  -22.4550 C.3    76  PHE76       0.1736
     65  C         -0.0470    1.0930  -21.7890 C.2    76  PHE76       0.2595
     66  O          0.6950    2.0340  -22.0710 O.2    76  PHE76      -0.2718
     67  CB        -1.2710   -0.0070  -23.6470 C.3    76  PHE76       0.0547
     68  CG        -2.5710   -0.3770  -24.2990 C.ar   76  PHE76      -0.0202
     69  CD1       -3.1190    0.4230  -25.2830 C.ar   76  PHE76      -0.0042
     70  CD2       -3.2300   -1.5390  -23.9410 C.ar   76  PHE76      -0.0042
     71  CE1       -4.3110    0.0870  -25.8840 C.ar   76  PHE76      -0.0003
     72  CE2       -4.4200   -1.8910  -24.5480 C.ar   76  PHE76      -0.0003
     73  CZ        -4.9620   -1.0730  -25.5220 C.ar   76  PHE76      -0.0000
     74  N          0.2860    0.1300  -20.9310 N.am   77  GLU77      -0.1965
     75  CA         1.6570   -0.0420  -20.4600 C.3    77  GLU77       0.1733
     76  C          2.5880   -0.2310  -21.6660 C.2    77  GLU77       0.2616
     77  O          2.2150   -0.8430  -22.6690 O.2    77  GLU77      -0.2715
     78  CB         1.7600   -1.2510  -19.5300 C.3    77  GLU77       0.0429
     79  CG         1.5650   -2.5910  -20.2490 C.3    77  GLU77       0.1163
     80  CD         1.6390   -3.7890  -19.3230 C.2    77  GLU77       0.3649
     81  OE1        2.5410   -3.8240  -18.4730 O.co2  77  GLU77      -0.2457
     82  OE2        0.7980   -4.7100  -19.4530 O.co2  77  GLU77      -0.2457
     83  N          3.7920    0.3120  -21.5880 N.am   78  PHE78      -0.1960
     84  CA         4.7410    0.1160  -22.6750 C.3    78  PHE78       0.1771
     85  C          5.3520   -1.2840  -22.5980 C.2    78  PHE78       0.2619
     86  O          5.7130   -1.7580  -21.5260 O.2    78  PHE78      -0.2715
     87  CB         5.8310    1.1900  -22.6700 C.3    78  PHE78       0.0574
     88  CG         6.7300    1.1450  -23.8800 C.ar   78  PHE78      -0.0200
     89  CD1        6.2650    1.5550  -25.1220 C.ar   78  PHE78      -0.0042
     90  CD2        8.0380    0.7060  -23.7760 C.ar   78  PHE78      -0.0042
     91  CE1        7.0950    1.5260  -26.2450 C.ar   78  PHE78      -0.0003
     92  CE2        8.8720    0.6710  -24.8960 C.ar   78  PHE78      -0.0003
     93  CZ         8.4040    1.0820  -26.1270 C.ar   78  PHE78      -0.0000
     94  N          5.4310   -1.9590  -23.7360 N.am   79  MET79      -0.1963
     95  CA         6.0940   -3.2570  -23.7890 C.3    79  MET79       0.1736
     96  C          7.3930   -3.0610  -24.5620 C.2    79  MET79       0.2616
     97  O          7.3640   -2.7270  -25.7410 O.2    79  MET79      -0.2715
     98  CB         5.1760   -4.2770  -24.4570 C.3    79  MET79       0.0427
     99  CG         3.8580   -4.4280  -23.7180 C.3    79  MET79       0.0599
    100  SD         4.0380   -5.2120  -22.1030 S.3    79  MET79      -0.1393
    101  CE         4.2200   -6.9300  -22.5750 C.3    79  MET79       0.0692
    102  N          8.5270   -3.2670  -23.8990 N.am   80  GLU80      -0.1963
    103  CA         9.8050   -2.8200  -24.4480 C.3    80  GLU80       0.1733
    104  C         10.1540   -3.3900  -25.8230 C.2    80  GLU80       0.2616
    105  O         10.7570   -2.6950  -26.6430 O.2    80  GLU80      -0.2715
    106  CB        10.9620   -3.0110  -23.4540 C.3    80  GLU80       0.0429
    107  CG        11.0680   -4.3790  -22.8020 C.3    80  GLU80       0.1163
    108  CD        12.2560   -4.4700  -21.8490 C.2    80  GLU80       0.3649
    109  OE1       12.0350   -4.5670  -20.6240 O.co2  80  GLU80      -0.2457
    110  OE2       13.4120   -4.4400  -22.3220 O.co2  80  GLU80      -0.2457
    111  N          9.7710   -4.6370  -26.0910 N.am   81  HIS81      -0.1959
    112  CA        10.1420   -5.2370  -27.3650 C.3    81  HIS81       0.1787
    113  C          9.0030   -5.2750  -28.3710 C.2    81  HIS81       0.2621
    114  O          9.1500   -5.8090  -29.4690 O.2    81  HIS81      -0.2715
    115  CB        10.7380   -6.6210  -27.1570 C.3    81  HIS81       0.0785
    116  CG        11.9910   -6.6110  -26.3380 C.ar   81  HIS81       0.0821
    117  ND1       12.0400   -7.0930  -25.0500 N.ar   81  HIS81      -0.2267
    118  CD2       13.2370   -6.1640  -26.6240 C.ar   81  HIS81       0.1154
    119  CE1       13.2660   -6.9520  -24.5750 C.ar   81  HIS81       0.1986
    120  NE2       14.0100   -6.3920  -25.5110 N.ar   81  HIS81      -0.2212
    121  N          7.8700   -4.6960  -27.9920 N.am   82  GLY82      -0.1940
    122  CA         6.7860   -4.4870  -28.9260 C.3    82  GLY82       0.2014
    123  C          6.0960   -5.7430  -29.4150 C.2    82  GLY82       0.2639
    124  O          5.9630   -6.7370  -28.7020 O.2    82  GLY82      -0.2714
    125  N          5.6630   -5.6770  -30.6640 N.am   83  CYS83      -0.1967
    126  CA         4.9050   -6.7660  -31.2640 C.3    83  CYS83       0.1712
    127  C          5.7230   -8.0480  -31.3850 C.2    83  CYS83       0.2296
    128  O          6.8560   -8.0590  -31.8750 O.2    83  CYS83      -0.2864
    129  CB         4.3210   -6.3620  -32.6260 C.3    83  CYS83       0.0983
    130  SG         2.9270   -5.2000  -32.5150 S.3    83  CYS83      -0.0798
    131  N          2.3890   -9.1500  -27.2950 N.3   130  LEU130     -0.1245
    132  CA         3.4500   -8.1890  -27.0190 C.3   130  LEU130      0.1561
    133  C          4.5240   -8.7580  -26.0910 C.2   130  LEU130      0.2260
    134  O          4.2610   -9.6480  -25.2710 O.2   130  LEU130     -0.2867
    135  CB         2.8670   -6.9190  -26.3950 C.3   130  LEU130      0.0270
    136  CG         1.8730   -6.1260  -27.2440 C.3   130  LEU130      0.0019
    137  CD1        0.9660   -5.3070  -26.3430 C.3   130  LEU130      0.0001
    138  CD2        2.6070   -5.2340  -28.2300 C.3   130  LEU130      0.0001
    139  N         -2.7750   -9.2680  -26.4130 N.3   140  SER140     -0.1202
    140  CA        -3.3660   -7.9480  -26.5660 C.3   140  SER140      0.2020
    141  C         -4.6560   -8.0270  -27.3910 C.2   140  SER140      0.2618
    142  O         -4.9770   -9.0750  -27.9370 O.2   140  SER140     -0.2717
    143  CB        -2.3700   -7.0030  -27.2350 C.3   140  SER140      0.2103
    144  OG        -2.9520   -5.7330  -27.4770 O.3   140  SER140     -0.2182
    145  N         -5.3810   -6.9130  -27.4670 N.am  141  ASP141     -0.1973
    146  CA        -6.6170   -6.8160  -28.2540 C.3   141  ASP141      0.1709
    147  C         -7.6420   -7.9120  -27.9730 C.2   141  ASP141      0.2293
    148  O         -8.1920   -8.4860  -28.9000 O.2   141  ASP141     -0.2864
    149  CB        -6.3070   -6.7790  -29.7570 C.3   141  ASP141      0.1436
    150  CG        -5.7560   -5.4250  -30.2100 C.2   141  ASP141      0.3671
    151  OD1       -5.8020   -4.4570  -29.4070 O.co2 141  ASP141     -0.2456
    152  OD2       -5.2850   -5.3360  -31.3690 O.co2 141  ASP141     -0.2456
@<TRIPOS>BOND
     1    13    12    2
     2    12    11    1
     3    11    10    1
     4    11    14    1
     5    18    19    1
     6   129   130    1
     7   129   126    1
     8    21    20    2
     9     9     7   am
    10    14    16    1
    11    14    15    1
    12   128   127    2
    13    24    22    1
    14     3     2    1
    15     3     4    2
    16    19    22    1
    17    19    20    1
    18     5     2    1
    19     5     6    1
    20    22    23    1
    21     2     1    1
    22   127   126    1
    23   152   150   ar
    24     7     6    1
    25     7     8    2
    26    54    55    1
    27    54    53    1
    28   126   125    1
    29    15    17    1
    30   125   123   am
    31    52    53    1
    32    52    51    1
    33   150   149    1
    34   150   151   ar
    35   149   146    1
    36    49    48    1
    37    49    50    2
    38   114   113    2
    39   123   122    1
    40   123   124    2
    41    48    51    1
    42    48    47    1
    43   122   121    1
    44   148   147    2
    45    25    26    1
    46   113   121   am
    47   113   112    1
    48   146   147    1
    49   146   145    1
    50   138   136    1
    51   142   141    2
    52    29    26    1
    53    29    30    1
    54    26    27    1
    55    28    27    2
    56   144   143    1
    57   145   141   am
    58   141   140    1
    59   112   115    1
    60   112   111    1
    61   131   132    1
    62   136   135    1
    63   136   137    1
    64   143   140    1
    65   115   116    1
    66    31    30    1
    67   132   135    1
    68   132   133    1
    69   105   104    2
    70   118   116   ar
    71   118   120   ar
    72    30    32    1
    73   140   139    1
    74   116   117   ar
    75    91    93   ar
    76    91    89   ar
    77    46    43    1
    78    93    92   ar
    79   133   134    2
    80   111   104   am
    81    71    73   ar
    82    71    69   ar
    83   104   103    1
    84    44    43    1
    85    44    45    2
    86    97    96    2
    87    43    42    1
    88    73    72   ar
    89   120   119   ar
    90    69    68   ar
    91    89    88   ar
    92   117   119   ar
    93    92    90   ar
    94    96   102   am
    95    96    95    1
    96    72    70   ar
    97    98    95    1
    98    98    99    1
    99   103   102    1
   100   103   106    1
   101    68    70   ar
   102    68    67    1
   103    88    90   ar
   104    88    87    1
   105    95    94    1
   106    94    85   am
   107    99   100    1
   108    67    64    1
   109    61    60    1
   110    41    40    1
   111   106   107    1
   112    40    39    1
   113    63    64    1
   114    60    62    1
   115    60    57    1
   116   107   108    1
   117    84    87    1
   118    84    85    1
   119    84    83    1
   120    77    76    2
   121    85    86    2
   122   101   100    1
   123    64    65    1
   124   110   108   ar
   125    66    65    2
   126    39    38    1
   127    38    37    1
   128   108   109   ar
   129    65    74   am
   130    76    83   am
   131    76    75    1
   132    56    57    1
   133    57    58    1
   134    74    75    1
   135    35    34    1
   136    35    36    2
   137    58    59    2
   138    37    34    1
   139    75    78    1
   140    79    78    1
   141    79    80    1
   142    34    33    1
   143    82    80   ar
   144    80    81   ar
