@<TRIPOS>MOLECULE
tmp/4mf3A00.pdb
 171 162 0 0 0
SMALL
GASTEIGER

@<TRIPOS>ATOM
      1  N        108.1120  149.2900  125.5560 N.3    14  GLU14      -0.1231
      2  CA       109.4950  149.4620  125.1020 C.3    14  GLU14       0.1699
      3  C        109.5330  149.2600  123.6100 C.2    14  GLU14       0.2595
      4  O        109.3470  148.1390  123.1590 O.2    14  GLU14      -0.2718
      5  CB       110.4080  148.4310  125.7750 C.3    14  GLU14       0.0402
      6  CG       111.8790  148.7160  125.5580 C.3    14  GLU14       0.1161
      7  CD       112.4220  149.8420  126.4190 C.2    14  GLU14       0.3649
      8  OE1      112.3450  149.7380  127.6650 O.co2  14  GLU14      -0.2457
      9  OE2      112.8960  150.8480  125.8450 O.co2  14  GLU14      -0.2457
     10  N        109.7790  150.3110  122.8440 N.am   15  GLU15      -0.1934
     11  CA       109.7740  150.2180  121.3860 C.3    15  GLU15       0.1818
     12  C        110.9840  149.4250  120.8690 C.2    15  GLU15       0.2332
     13  O        112.0840  149.6620  121.3660 O.2    15  GLU15      -0.2860
     14  CB       109.7390  151.6420  120.7760 C.2    15  GLU15       0.0097
     15  CG       109.8020  151.7290  119.2620 C.2    15  GLU15       0.0837
     16  CD       109.5580  153.1100  118.6810 C.2    15  GLU15       0.3877
     17  OE1      109.5010  153.2370  117.4350 O.co2  15  GLU15      -0.2406
     18  OE2      109.3800  154.0630  119.4730 O.co2  15  GLU15      -0.2406
     19  N        109.4240  146.3790  120.9940 N.3    17  TYR17      -0.1241
     20  CA       109.0200  145.1320  121.6060 C.3    17  TYR17       0.1605
     21  C        107.5620  145.1260  121.9560 C.2    17  TYR17       0.2264
     22  O        106.8720  144.1810  121.5940 O.2    17  TYR17      -0.2867
     23  CB       109.8300  144.8750  122.8730 C.3    17  TYR17       0.0534
     24  CG       111.3190  144.8650  122.6380 C.ar   17  TYR17      -0.0201
     25  CD1      111.9830  143.6870  122.2940 C.ar   17  TYR17      -0.0009
     26  CD2      112.0650  146.0400  122.7210 C.ar   17  TYR17      -0.0009
     27  CE1      113.3530  143.6820  122.0370 C.ar   17  TYR17       0.0417
     28  CE2      113.4330  146.0450  122.4800 C.ar   17  TYR17       0.0417
     29  CZ       114.0720  144.8590  122.1520 C.ar   17  TYR17       0.1957
     30  OH       115.4210  144.8270  121.9230 O.3    17  TYR17      -0.2866
     31  N        111.4350  146.8410  135.0570 N.3    62  TYR62      -0.1241
     32  CA       111.8400  145.5060  134.6480 C.3    62  TYR62       0.1605
     33  C        111.9960  144.6130  135.8540 C.2    62  TYR62       0.2264
     34  O        111.3880  143.5460  135.9050 O.2    62  TYR62      -0.2867
     35  CB       113.0980  145.5540  133.7980 C.3    62  TYR62       0.0534
     36  CG       112.8230  146.0020  132.3820 C.ar   62  TYR62      -0.0201
     37  CD1      112.7580  147.3560  132.0570 C.ar   62  TYR62      -0.0009
     38  CD2      112.6090  145.0740  131.3640 C.ar   62  TYR62      -0.0009
     39  CE1      112.4560  147.7730  130.7610 C.ar   62  TYR62       0.0417
     40  CE2      112.3100  145.4810  130.0650 C.ar   62  TYR62       0.0417
     41  CZ       112.2460  146.8300  129.7700 C.ar   62  TYR62       0.1957
     42  OH       111.9730  147.2120  128.4970 O.3    62  TYR62      -0.2866
     43  N        111.8260  142.6490  126.6770 N.3    89  PRO89      -0.2102
     44  CA       113.3020  142.5430  126.5670 C.3    89  PRO89       0.1504
     45  C        113.8920  142.5410  127.9800 C.2    89  PRO89       0.2576
     46  O        114.4500  143.5380  128.4520 O.2    89  PRO89      -0.2718
     47  CB       113.6930  143.7860  125.7790 C.3    89  PRO89       0.0282
     48  CG       112.6050  144.7480  126.0460 C.3    89  PRO89       0.0208
     49  CD       111.3430  143.9890  126.2990 C.3    89  PRO89       0.0893
     50  N        113.6970  141.4320  128.6830 N.am   90  LEU90      -0.1966
     51  CA       114.1200  141.2320  130.0680 C.3    90  LEU90       0.1728
     52  C        115.4300  140.4870  130.0760 C.2    90  LEU90       0.2616
     53  O        115.4510  139.3110  129.7200 O.2    90  LEU90      -0.2715
     54  CB       113.0350  140.4460  130.8410 C.3    90  LEU90       0.0311
     55  CG       113.2420  140.1900  132.3240 C.3    90  LEU90       0.0022
     56  CD1      113.2520  141.4940  133.1620 C.3    90  LEU90       0.0001
     57  CD2      112.1610  139.2960  132.8150 C.3    90  LEU90       0.0001
     58  N        116.5230  141.1590  130.4870 N.am   91  THR91      -0.1951
     59  CA       117.8290  140.5400  130.4510 C.3    91  THR91       0.1897
     60  C        117.9770  139.4100  131.4270 C.2    91  THR91       0.2313
     61  O        117.6500  139.5860  132.6020 O.2    91  THR91      -0.2863
     62  CB       118.9520  141.5580  130.6300 C.3    91  THR91       0.1794
     63  OG1      118.7030  142.7060  129.7960 O.3    91  THR91      -0.2208
     64  CG2      120.3690  140.9190  130.3520 C.3    91  THR91       0.0378
     65  N        118.7930  137.9360  138.8680 N.3    96  ARG96      -0.1245
     66  CA       117.4020  137.5770  138.6000 C.3    96  ARG96       0.1563
     67  C        117.2160  136.0940  138.5820 C.2    96  ARG96       0.2260
     68  O        116.1930  135.6380  139.0620 O.2    96  ARG96      -0.2867
     69  CB       116.8590  138.1960  137.3130 C.3    96  ARG96       0.0307
     70  CG       116.6530  139.6870  137.3750 C.3    96  ARG96       0.0489
     71  CD       116.4690  140.2530  135.9790 C.3    96  ARG96       0.2205
     72  NE       116.1740  141.6740  136.0290 N.pl3  96  ARG96      -0.0865
     73  CZ       116.2680  142.5010  135.0020 C.cat  96  ARG96       0.5346
     74  NH1      116.6400  142.0530  133.8080 N.pl3  96  ARG96       0.1354
     75  NH2      115.9980  143.7840  135.1580 N.pl3  96  ARG96       0.1354
     76  N        124.0480  155.9620  130.4690 N.3   138  VAL138     -0.1245
     77  CA       122.9630  156.3860  131.3540 C.3   138  VAL138      0.1561
     78  C        123.3590  156.0700  132.7930 C.2   138  VAL138      0.2260
     79  O        123.7890  154.9520  133.0700 O.2   138  VAL138     -0.2867
     80  CB       121.6200  155.7360  130.9570 C.3   138  VAL138      0.0252
     81  CG1      120.5260  156.0210  131.9860 C.3   138  VAL138      0.0019
     82  CG2      121.1890  156.1800  129.5550 C.3   138  VAL138      0.0019
     83  N        122.4430  152.8080  134.8840 N.3   141  GLY141     -0.1210
     84  CA       121.9140  151.8900  133.8800 C.3   141  GLY141      0.1956
     85  C        122.7370  150.6210  133.8660 C.2   141  GLY141      0.2613
     86  O        123.7590  150.5480  134.5550 O.2   141  GLY141     -0.2717
     87  N        122.2910  149.6050  133.1000 N.am  142  SER142     -0.1938
     88  CA       122.9780  148.3110  133.0080 C.3   142  SER142      0.2055
     89  C        124.3630  148.5170  132.4600 C.2   142  SER142      0.2643
     90  O        125.3260  147.9270  132.9590 O.2   142  SER142     -0.2714
     91  CB       122.1990  147.3440  132.1120 C.3   142  SER142      0.2130
     92  OG       122.1800  147.7520  130.7510 O.3   142  SER142     -0.2179
     93  N        124.4520  149.4010  131.4550 N.am  143  THR143     -0.1950
     94  CA       125.6820  149.7060  130.7530 C.3   143  THR143      0.1897
     95  C        126.6930  150.3750  131.6900 C.2   143  THR143      0.2313
     96  O        127.8590  149.9640  131.6980 O.2   143  THR143     -0.2863
     97  CB       125.3850  150.4630  129.4670 C.3   143  THR143      0.1794
     98  OG1      124.5920  149.6230  128.6270 O.3   143  THR143     -0.2208
     99  CG2      126.6360  150.8200  128.7090 C.3   143  THR143      0.0378
    100  N        117.9240  157.7250  128.6620 N.3   174  SER174     -0.1217
    101  CA       118.1450  157.3700  127.2620 C.3   174  SER174      0.1889
    102  C        117.8890  158.5330  126.2910 C.2   174  SER174      0.2288
    103  O        118.6590  158.7360  125.3440 O.2   174  SER174     -0.2866
    104  CB       117.2870  156.1660  126.8900 C.3   174  SER174      0.2089
    105  OG       115.9100  156.5060  126.9140 O.3   174  SER174     -0.2183
    106  N        120.5690  160.2620  123.7430 N.3   178  ILE178     -0.1245
    107  CA       120.4250  160.3490  122.2880 C.3   178  ILE178      0.1561
    108  C        120.5180  161.8210  121.8280 C.2   178  ILE178      0.2260
    109  O        121.1570  162.1010  120.8070 O.2   178  ILE178     -0.2867
    110  CB       119.1800  159.5860  121.7590 C.3   178  ILE178      0.0252
    111  CG1      119.2980  158.0720  122.0840 C.3   178  ILE178      0.0019
    112  CG2      119.0190  159.7900  120.2400 C.3   178  ILE178      0.0019
    113  CD1      117.9830  157.2960  122.0900 C.3   178  ILE178      0.0001
    114  N        127.5660  157.3230  122.7740 N.3   188  LEU188     -0.1231
    115  CA       126.7480  156.7000  123.8150 C.3   188  LEU188      0.1693
    116  C        126.8960  155.1860  123.8480 C.2   188  LEU188      0.2592
    117  O        126.6800  154.5090  122.8440 O.2   188  LEU188     -0.2718
    118  CB       125.2740  157.0930  123.6210 C.3   188  LEU188      0.0284
    119  CG       124.2400  156.6050  124.6430 C.3   188  LEU188      0.0019
    120  CD1      124.5800  157.0540  126.0610 C.3   188  LEU188      0.0001
    121  CD2      122.8420  157.0750  124.2750 C.3   188  LEU188      0.0001
    122  N        127.2870  154.6620  125.0010 N.am  189  LEU189     -0.1966
    123  CA       127.3960  153.2260  125.1990 C.3   189  LEU189      0.1728
    124  C        126.0240  152.7610  125.6410 C.2   189  LEU189      0.2616
    125  O        125.4290  153.3230  126.5830 O.2   189  LEU189     -0.2715
    126  CB       128.4680  152.8890  126.2290 C.3   189  LEU189      0.0311
    127  CG       129.8660  153.1930  125.7660 C.3   189  LEU189      0.0022
    128  CD1      130.6380  153.8040  126.8520 C.3   189  LEU189      0.0001
    129  CD2      130.5510  151.9630  125.2550 C.3   189  LEU189      0.0001
    130  N        125.4990  151.7550  124.9230 N.am  190  MET190     -0.1963
    131  CA       124.1300  151.2970  125.1160 C.3   190  MET190      0.1736
    132  C        123.8840  149.9300  124.5090 C.2   190  MET190      0.2616
    133  O        124.7450  149.4020  123.7950 O.2   190  MET190     -0.2715
    134  CB       123.1480  152.3360  124.5350 C.3   190  MET190      0.0427
    135  CG       123.3870  152.6590  123.0870 C.3   190  MET190      0.0599
    136  SD       122.1440  153.7730  122.4060 S.3   190  MET190     -0.1393
    137  CE       120.8350  152.7020  122.0680 C.3   190  MET190      0.0692
    138  N        122.7020  149.3480  124.8020 N.am  191  GLU191     -0.1977
    139  CA       122.3250  148.0140  124.3100 C.3   191  GLU191      0.1602
    140  C        122.2300  147.9940  122.7940 C.2   191  GLU191      0.2287
    141  O        121.6000  148.8670  122.1980 O.2   191  GLU191     -0.2864
    142  CB       121.0800  147.4790  125.0180 C.3   191  GLU191      0.0415
    143  CG       121.4810  146.9530  126.3910 C.3   191  GLU191      0.1163
    144  CD       120.4940  146.2300  127.2710 C.2   191  GLU191      0.3649
    145  OE1      120.7440  146.1850  128.4980 O.co2 191  GLU191     -0.2457
    146  OE2      119.5190  145.6500  126.7400 O.co2 191  GLU191     -0.2457
    147  N        119.0010  148.2720  120.6450 N.3   194  SER194     -0.1217
    148  CA       118.4660  149.6240  120.6030 C.3   194  SER194      0.1889
    149  C        119.2590  150.4930  119.6210 C.2   194  SER194      0.2288
    150  O        118.6860  151.3750  118.9640 O.2   194  SER194     -0.2866
    151  CB       118.4380  150.2250  122.0030 C.3   194  SER194      0.2089
    152  OG       117.5510  149.5100  122.8490 O.3   194  SER194     -0.2183
    153  N        117.6670  152.4710  116.2940 N.3   198  VAL198     -0.1245
    154  CA       117.9210  153.9020  116.0930 C.3   198  VAL198      0.1561
    155  C        118.6090  154.1780  114.7570 C.2   198  VAL198      0.2260
    156  O        118.1670  155.0560  114.0180 O.2   198  VAL198     -0.2867
    157  CB       118.7220  154.4800  117.2800 C.3   198  VAL198      0.0252
    158  CG1      119.2960  155.8460  116.9590 C.3   198  VAL198      0.0019
    159  CG2      117.8630  154.5390  118.5420 C.3   198  VAL198      0.0019
    160  N        117.9380  138.3010  126.1010 N.3   217  TYR217     -0.1241
    161  CA       116.6380  138.5080  126.6880 C.3   217  TYR217      0.1605
    162  C        115.9540  137.1700  126.7020 C.2   217  TYR217      0.2264
    163  O        116.0310  136.4470  125.7180 O.2   217  TYR217     -0.2867
    164  CB       115.8130  139.4230  125.8170 C.3   217  TYR217      0.0534
    165  CG       116.3970  140.7930  125.5510 C.ar  217  TYR217     -0.0201
    166  CD1      117.0950  141.4910  126.5420 C.ar  217  TYR217     -0.0009
    167  CD2      116.1620  141.4400  124.3500 C.ar  217  TYR217     -0.0009
    168  CE1      117.6080  142.7600  126.3060 C.ar  217  TYR217      0.0417
    169  CE2      116.6410  142.7210  124.1170 C.ar  217  TYR217      0.0417
    170  CZ       117.3640  143.3800  125.0970 C.ar  217  TYR217      0.1957
    171  OH       117.8350  144.6490  124.8520 O.3   217  TYR217     -0.2866
@<TRIPOS>BOND
     1   156   155    2
     2   155   154    1
     3   154   153    1
     4   154   157    1
     5   158   157    1
     6   157   159    1
     7    17    16   ar
     8    16    15    1
     9    16    18   ar
    10   150   149    2
    11    15    14    2
    12   149   148    1
    13   112   110    1
    14   148   147    1
    15   148   151    1
    16    14    11    1
    17   109   108    2
    18    12    13    2
    19    12    11    1
    20    19    20    1
    21    11    10    1
    22    22    21    2
    23    20    21    1
    24    20    23    1
    25   110   111    1
    26   110   107    1
    27   108   107    1
    28    30    29    1
    29   151   152    1
    30    27    29   ar
    31    27    25   ar
    32   137   136    1
    33   111   113    1
    34    29    28   ar
    35   141   140    2
    36   107   106    1
    37    25    24   ar
    38   136   135    1
    39    28    26   ar
    40    24    26   ar
    41    24    23    1
    42   114   115    1
    43   140   139    1
    44    10     3   am
    45   117   116    2
    46   135   134    1
    47     4     3    2
    48     3     2    1
    49   118   115    1
    50   118   119    1
    51   133   132    2
    52   115   116    1
    53   116   122   am
    54   169   167   ar
    55   169   170   ar
    56   121   119    1
    57   139   138    1
    58   139   142    1
    59   167   165   ar
    60   132   138   am
    61   132   131    1
    62   134   131    1
    63   119   120    1
    64   171   170    1
    65   130   131    1
    66   130   124   am
    67   122   123    1
    68   142   143    1
    69   170   168   ar
    70     2     1    1
    71     2     5    1
    72   123   124    1
    73   123   126    1
    74   129   127    1
    75   103   102    2
    76   165   164    1
    77   165   166   ar
    78     6     5    1
    79     6     7    1
    80   124   125    2
    81   163   162    2
    82   127   126    1
    83   127   128    1
    84    47    48    1
    85    47    44    1
    86   164   161    1
    87     9     7   ar
    88    48    49    1
    89   160   161    1
    90   102   101    1
    91    49    43    1
    92   168   166   ar
    93   143   144    1
    94     7     8   ar
    95    44    43    1
    96    44    45    1
    97   161   162    1
    98   146   144   ar
    99   104   105    1
   100   104   101    1
   101   101   100    1
   102   144   145   ar
   103    45    46    2
   104    45    50   am
   105    42    41    1
   106    98    97    1
   107    50    51    1
   108    99    97    1
   109    97    94    1
   110    82    80    1
   111    53    52    2
   112    41    40   ar
   113    41    39   ar
   114    63    62    1
   115    40    38   ar
   116    51    52    1
   117    51    54    1
   118    52    58   am
   119    64    62    1
   120    59    58    1
   121    59    62    1
   122    59    60    1
   123    76    77    1
   124    92    91    1
   125    94    93    1
   126    94    95    1
   127    39    37   ar
   128    54    55    1
   129    80    77    1
   130    80    81    1
   131    77    78    1
   132    38    36   ar
   133    60    61    2
   134    93    89   am
   135    95    96    2
   136    37    36   ar
   137    91    88    1
   138    55    57    1
   139    55    56    1
   140    36    35    1
   141    89    90    2
   142    89    88    1
   143    78    79    2
   144    88    87    1
   145    87    85   am
   146    35    32    1
   147    74    73    1
   148    85    84    1
   149    85    86    2
   150    84    83    1
   151    32    31    1
   152    32    33    1
   153    73    75    1
   154    73    72    2
   155    33    34    2
   156    71    72    1
   157    71    70    1
   158    69    70    1
   159    69    66    1
   160    67    66    1
   161    67    68    2
   162    66    65    1
