@<TRIPOS>MOLECULE
tmp/4mf5A00.pdb
 102 101 0 0 0
SMALL
GASTEIGER

@<TRIPOS>ATOM
      1  N          1.8060   16.5150   -8.4770 N.3    32  THR32      -0.1204
      2  CA         1.9800   15.6250   -9.6050 C.3    32  THR32       0.1979
      3  C          1.2130   16.1970  -10.7890 C.2    32  THR32       0.2460
      4  O          0.4500   17.1230  -10.6240 O.2    32  THR32      -0.2732
      5  CB         1.4020   14.2600   -9.2420 C.3    32  THR32       0.1783
      6  OG1        0.0070   14.4470   -9.0180 O.3    32  THR32      -0.2211
      7  CG2        2.0720   13.6860   -7.9940 C.3    32  THR32       0.0376
      8  N          1.3460   15.6130  -11.9900 N.am   33  PRO33      -0.2717
      9  CA         0.6590   16.2620  -13.1260 C.3    33  PRO33       0.1535
     10  C         -0.8370   16.4280  -12.9620 C.2    33  PRO33       0.2598
     11  O         -1.3870   17.4790  -13.3330 O.2    33  PRO33      -0.2715
     12  CB         1.0200   15.3610  -14.3040 C.3    33  PRO33       0.0310
     13  CG         2.3110   14.7810  -13.8980 C.3    33  PRO33       0.0237
     14  CD         2.2910   14.5780  -12.4250 C.3    33  PRO33       0.0939
     15  N         -1.5360   15.4250  -12.4600 N.am   34  ASN34      -0.1973
     16  CA        -2.9760   15.5690  -12.3100 C.3    34  ASN34       0.1688
     17  C         -3.3220   16.6070  -11.2520 C.2    34  ASN34       0.2292
     18  O         -4.3100   17.3270  -11.4070 O.2    34  ASN34      -0.2864
     19  CB        -3.6450   14.2480  -11.9870 C.3    34  ASN34       0.1181
     20  CG        -3.5680   13.2670  -13.1400 C.2    34  ASN34       0.2629
     21  OD1       -3.5050   13.6760  -14.3030 O.2    34  ASN34      -0.2716
     22  ND2       -3.6400   11.9750  -12.8410 N.am   34  ASN34      -0.0877
     23  N          1.9440   10.9660   -0.1770 N.3    56  PHE56      -0.1241
     24  CA         1.9890    9.5690   -0.5890 C.3    56  PHE56       0.1605
     25  C          2.9120    8.7570    0.3050 C.2    56  PHE56       0.2264
     26  O          2.7040    7.5560    0.4660 O.2    56  PHE56      -0.2867
     27  CB         2.4150    9.4270   -2.0540 C.3    56  PHE56       0.0534
     28  CG         1.3830    9.9270   -3.0420 C.ar   56  PHE56      -0.0203
     29  CD1        0.1070   10.3420   -2.6230 C.ar   56  PHE56      -0.0042
     30  CD2        1.6780    9.9700   -4.4060 C.ar   56  PHE56      -0.0042
     31  CE1       -0.8310   10.7910   -3.5420 C.ar   56  PHE56      -0.0003
     32  CE2        0.7400   10.4190   -5.3290 C.ar   56  PHE56      -0.0003
     33  CZ        -0.5160   10.8270   -4.8960 C.ar   56  PHE56      -0.0000
     34  N         -3.6060    9.1390    0.8450 N.3    61  GLN61      -0.1231
     35  CA        -4.6600    8.9770   -0.1500 C.3    61  GLN61       0.1698
     36  C         -5.4520    7.6760    0.0630 C.2    61  GLN61       0.2592
     37  O         -6.5240    7.5150   -0.5180 O.2    61  GLN61      -0.2718
     38  CB        -4.0530    9.0430   -1.5610 C.3    61  GLN61       0.0381
     39  CG        -3.3470    7.7970   -2.0830 C.3    61  GLN61       0.0905
     40  CD        -1.9750    7.5190   -1.4950 C.2    61  GLN61       0.2608
     41  OE1       -1.4780    8.1970   -0.5780 O.2    61  GLN61      -0.2717
     42  NE2       -1.3430    6.5030   -2.0390 N.am   61  GLN61      -0.0878
     43  N         -4.9390    6.7800    0.9160 N.am   62  LEU62      -0.1980
     44  CA        -5.5870    5.5060    1.2220 C.3    62  LEU62       0.1596
     45  C         -6.3750    5.5540    2.5300 C.2    62  LEU62       0.2287
     46  O         -6.9970    4.5760    2.9110 O.2    62  LEU62      -0.2864
     47  CB        -4.5490    4.3680    1.2950 C.3    62  LEU62       0.0297
     48  CG        -3.8110    4.1200   -0.0180 C.3    62  LEU62       0.0022
     49  CD1       -2.7050    3.0790    0.1560 C.3    62  LEU62       0.0001
     50  CD2       -4.8000    3.6790   -1.0680 C.3    62  LEU62       0.0001
     51  N         -9.2570    7.0210   -4.3510 N.3    73  ASN73      -0.1225
     52  CA        -7.9740    7.1450   -3.6590 C.3    73  ASN73       0.1785
     53  C         -6.9040    7.8960   -4.4480 C.2    73  ASN73       0.2597
     54  O         -5.7120    7.6880   -4.2100 O.2    73  ASN73      -0.2718
     55  CB        -7.4730    5.7980   -3.0330 C.3    73  ASN73       0.1169
     56  CG        -6.8730    4.7770   -4.0000 C.2    73  ASN73       0.2627
     57  OD1       -5.7490    4.9640   -4.5320 O.2    73  ASN73      -0.2716
     58  ND2       -7.5290    3.6520   -4.1300 N.am   73  ASN73      -0.0877
     59  N         -7.3170    8.8310   -5.3090 N.am   74  LYS74      -0.1966
     60  CA        -6.3970    9.5550   -6.1500 C.3    74  LYS74       0.1728
     61  C         -6.5440   11.0610   -5.9630 C.2    74  LYS74       0.2616
     62  O         -7.6260   11.5920   -5.7540 O.2    74  LYS74      -0.2715
     63  CB        -6.6400    9.2030   -7.6120 C.3    74  LYS74       0.0311
     64  CG        -6.4140    7.7860   -7.9710 C.3    74  LYS74       0.0038
     65  CD        -5.0210    7.2770   -7.7450 C.3    74  LYS74       0.0206
     66  CE        -4.9460    5.7820   -8.1030 C.3    74  LYS74       0.1093
     67  NZ        -5.0110    5.5250   -9.5710 N.3    74  LYS74      -0.1314
     68  N         -5.4360   11.7560   -6.0350 N.am   75  ILE75      -0.1964
     69  CA        -5.4820   13.2030   -6.0740 C.3    75  ILE75       0.1712
     70  C         -5.6160   13.6770   -7.5260 C.2    75  ILE75       0.2458
     71  O         -5.2730   12.9770   -8.4600 O.2    75  ILE75      -0.2730
     72  CB        -4.2720   13.8340   -5.3680 C.3    75  ILE75       0.0289
     73  CG1       -2.9720   13.5460   -6.1230 C.3    75  ILE75       0.0022
     74  CG2       -4.2040   13.4260   -3.9010 C.3    75  ILE75       0.0023
     75  CD1       -2.6880   14.5620   -7.2110 C.3    75  ILE75       0.0001
     76  N         -6.1350   14.8820   -7.7190 N.am   76  PRO76      -0.2727
     77  CA        -6.6710   15.8170   -6.7400 C.3    76  PRO76       0.1402
     78  C         -8.1470   15.5880   -6.4600 C.2    76  PRO76       0.2269
     79  O         -8.8620   14.9190   -7.2210 O.2    76  PRO76      -0.2865
     80  CB        -6.4740   17.1610   -7.4460 C.3    76  PRO76       0.0296
     81  CG        -6.7450   16.8070   -8.8820 C.3    76  PRO76       0.0237
     82  CD        -6.1640   15.4530   -9.0800 C.3    76  PRO76       0.0939
     83  N         -9.4730   15.3060  -12.0620 N.3    94  SER94      -0.1217
     84  CA        -8.9010   16.5820  -12.5030 C.3    94  SER94       0.1889
     85  C         -9.6570   17.1580  -13.6850 C.2    94  SER94       0.2288
     86  O         -9.9730   18.3420  -13.6970 O.2    94  SER94      -0.2866
     87  CB        -7.4320   16.3800  -12.8400 C.3    94  SER94       0.2089
     88  OG        -7.2390   15.4690  -13.9060 O.3    94  SER94      -0.2183
     89  N          1.5190   17.2040  -18.2200 N.3   193  TRP193     -0.1241
     90  CA         1.9250   15.8520  -18.5850 C.3   193  TRP193      0.1605
     91  C          3.0950   15.8420  -19.5620 C.2   193  TRP193      0.2264
     92  O          3.9810   15.0120  -19.4470 O.2   193  TRP193     -0.2867
     93  CB         0.7250   15.0610  -19.0950 C.3   193  TRP193      0.0550
     94  CG        -0.0120   14.4080  -17.9730 C.ar  193  TRP193      0.0003
     95  CD1       -1.1480   14.8360  -17.3420 C.ar  193  TRP193      0.0946
     96  CD2        0.4160   13.2440  -17.2850 C.ar  193  TRP193      0.0152
     97  NE1       -1.4630   13.9920  -16.3280 N.ar  193  TRP193     -0.2442
     98  CE2       -0.5240   12.9970  -16.2710 C.ar  193  TRP193      0.0810
     99  CE3        1.5170   12.3990  -17.4150 C.ar  193  TRP193      0.0012
    100  CZ2       -0.4060   11.9190  -15.3980 C.ar  193  TRP193      0.0191
    101  CZ3        1.6260   11.3210  -16.5350 C.ar  193  TRP193      0.0001
    102  CH2        0.6790   11.0970  -15.5510 C.ar  193  TRP193      0.0015
@<TRIPOS>BOND
     1    91    92    2
     2    91    90    1
     3    93    90    1
     4    93    94    1
     5    90    89    1
     6    94    95   ar
     7    94    96   ar
     8    99    96   ar
     9    99   101   ar
    10    95    97   ar
    11    96    98   ar
    12   101   102   ar
    13    97    98   ar
    14    98   100   ar
    15   102   100   ar
    16    12    13    1
    17    12     9    1
    18    21    20    2
    19    88    87    1
    20    13    14    1
    21    86    85    2
    22    85    84    1
    23    11    10    2
    24    20    22   am
    25    20    19    1
    26     9    10    1
    27     9     8    1
    28    10    15   am
    29    87    84    1
    30    84    83    1
    31    15    16    1
    32    14     8    1
    33    16    19    1
    34    16    17    1
    35     8     3   am
    36    18    17    2
    37     3     4    2
    38     3     2    1
    39     2     5    1
    40     2     1    1
    41    67    66    1
    42     5     6    1
    43     5     7    1
    44    82    81    1
    45    82    76    1
    46    81    80    1
    47    71    70    2
    48    66    65    1
    49    64    65    1
    50    64    63    1
    51    76    70   am
    52    76    77    1
    53    63    60    1
    54    70    69    1
    55    80    77    1
    56    79    78    2
    57    75    73    1
    58    77    78    1
    59    60    61    1
    60    60    59    1
    61    73    72    1
    62    69    68    1
    63    69    72    1
    64    68    61   am
    65    61    62    2
    66    72    74    1
    67    32    33   ar
    68    32    30   ar
    69    59    53   am
    70    33    31   ar
    71    57    56    2
    72    53    54    2
    73    53    52    1
    74    30    28   ar
    75    51    52    1
    76    58    56   am
    77    56    55    1
    78    52    55    1
    79    31    29   ar
    80    28    29   ar
    81    28    27    1
    82    39    38    1
    83    39    40    1
    84    27    24    1
    85    42    40   am
    86    38    35    1
    87    40    41    2
    88    50    48    1
    89    24    23    1
    90    24    25    1
    91    37    36    2
    92    35    36    1
    93    35    34    1
    94    48    49    1
    95    48    47    1
    96    36    43   am
    97    25    26    2
    98    43    44    1
    99    44    47    1
   100    44    45    1
   101    45    46    2
