@<TRIPOS>MOLECULE
tmp/4mf6A01.pdb
 97 95 0 0 0
SMALL
GASTEIGER

@<TRIPOS>ATOM
      1  N         -1.0660   17.0550   -4.6200 N.3    32  LEU32      -0.1245
      2  CA         0.3620   16.8620   -4.5870 C.3    32  LEU32       0.1561
      3  C          0.8510   17.3730   -5.9480 C.2    32  LEU32       0.2260
      4  O          0.1490   17.1970   -6.9250 O.2    32  LEU32      -0.2867
      5  CB         0.6730   15.3630   -4.4240 C.3    32  LEU32       0.0270
      6  CG         2.1240   14.9460   -4.2310 C.3    32  LEU32       0.0019
      7  CD1        2.6670   15.4200   -2.8890 C.3    32  LEU32       0.0001
      8  CD2        2.2530   13.4480   -4.3340 C.3    32  LEU32       0.0001
      9  N          2.0630   16.7150   -8.8300 N.3    34  THR34      -0.1204
     10  CA         2.2360   15.7550   -9.8770 C.3    34  THR34       0.1979
     11  C          1.5710   16.3530  -11.1300 C.2    34  THR34       0.2459
     12  O          0.8810   17.3670  -11.0540 O.2    34  THR34      -0.2732
     13  CB         1.4470   14.5200   -9.4930 C.3    34  THR34       0.1783
     14  OG1        0.0720   14.9030   -9.4220 O.3    34  THR34      -0.2211
     15  CG2        1.9070   13.9340   -8.2000 C.3    34  THR34       0.0376
     16  N          1.6880   15.6760  -12.2850 N.am   35  PRO35      -0.2728
     17  CA         1.0440   16.2800  -13.4710 C.3    35  PRO35       0.1401
     18  C         -0.4520   16.4570  -13.3260 C.2    35  PRO35       0.2269
     19  O         -1.0090   17.4230  -13.8340 O.2    35  PRO35      -0.2865
     20  CB         1.3750   15.3160  -14.6170 C.3    35  PRO35       0.0296
     21  CG         1.8500   14.0650  -13.9260 C.3    35  PRO35       0.0237
     22  CD         2.5050   14.5080  -12.6370 C.3    35  PRO35       0.0939
     23  N          2.1590   10.8340   -0.2340 N.3    58  PHE58      -0.1241
     24  CA         2.1810    9.4300   -0.6290 C.3    58  PHE58       0.1605
     25  C          3.0980    8.6190    0.2780 C.2    58  PHE58       0.2264
     26  O          2.8970    7.4200    0.4240 O.2    58  PHE58      -0.2867
     27  CB         2.5880    9.2680   -2.0860 C.3    58  PHE58       0.0534
     28  CG         1.5730    9.7800   -3.1020 C.ar   58  PHE58      -0.0203
     29  CD1        0.3100   10.2310   -2.7400 C.ar   58  PHE58      -0.0042
     30  CD2        1.9010    9.7900   -4.4470 C.ar   58  PHE58      -0.0042
     31  CE1       -0.5860   10.6890   -3.7100 C.ar   58  PHE58      -0.0003
     32  CE2        1.0110   10.2580   -5.4080 C.ar   58  PHE58      -0.0003
     33  CZ        -0.2260   10.7250   -5.0340 C.ar   58  PHE58      -0.0000
     34  N          1.8620    8.0880  -18.4250 N.3   137  GLY137     -0.1225
     35  CA         2.0540    7.5040  -17.1150 C.3   137  GLY137      0.1811
     36  C          2.5790    6.0910  -17.1490 C.2   137  GLY137      0.2280
     37  O          3.4100    5.7180  -16.3080 O.2   137  GLY137     -0.2866
     38  N          6.1850    6.3160  -17.9270 N.3   140  GLY140     -0.1225
     39  CA         6.9060    6.6780  -16.7190 C.3   140  GLY140      0.1811
     40  C          7.1410    5.4730  -15.8390 C.2   140  GLY140      0.2280
     41  O          8.2130    5.2740  -15.2700 O.2   140  GLY140     -0.2866
     42  N         10.1860    3.9500  -12.9890 N.3   145  PHE145     -0.1241
     43  CA         9.8500    3.3170  -11.7020 C.3   145  PHE145      0.1605
     44  C         10.0680    1.8200  -11.6630 C.2   145  PHE145      0.2264
     45  O         10.3680    1.2680  -10.6000 O.2   145  PHE145     -0.2867
     46  CB         8.4230    3.6870  -11.2740 C.3   145  PHE145      0.0534
     47  CG         8.2610    5.1480  -10.9690 C.ar  145  PHE145     -0.0203
     48  CD1        8.7410    5.6770   -9.7750 C.ar  145  PHE145     -0.0042
     49  CD2        7.6940    5.9850  -11.8920 C.ar  145  PHE145     -0.0042
     50  CE1        8.6250    7.0250   -9.5150 C.ar  145  PHE145     -0.0003
     51  CE2        7.5650    7.3400  -11.6380 C.ar  145  PHE145     -0.0003
     52  CZ         8.0330    7.8610  -10.4490 C.ar  145  PHE145     -0.0000
     53  N          1.6360   17.2480  -18.4170 N.3   195  TRP195     -0.1241
     54  CA         2.0340   15.8940  -18.7500 C.3   195  TRP195      0.1605
     55  C          3.2190   15.8660  -19.7190 C.2   195  TRP195      0.2264
     56  O          4.0940   15.0230  -19.5750 O.2   195  TRP195     -0.2867
     57  CB         0.8480   15.0810  -19.2600 C.3   195  TRP195      0.0550
     58  CG         0.1650   14.3290  -18.1490 C.ar  195  TRP195      0.0003
     59  CD1       -1.0310   14.5920  -17.5550 C.ar  195  TRP195      0.0946
     60  CD2        0.6820   13.1690  -17.5220 C.ar  195  TRP195      0.0152
     61  NE1       -1.2900   13.6480  -16.5950 N.ar  195  TRP195     -0.2442
     62  CE2       -0.2450   12.7650  -16.5510 C.ar  195  TRP195      0.0810
     63  CE3        1.8770   12.4580  -17.6550 C.ar  195  TRP195      0.0012
     64  CZ2       -0.0440   11.6360  -15.7630 C.ar  195  TRP195      0.0191
     65  CZ3        2.0840   11.3570  -16.8740 C.ar  195  TRP195      0.0001
     66  CH2        1.1160   10.9410  -15.9410 C.ar  195  TRP195      0.0015
     67  N          6.1740   16.6420  -17.5410 N.3   198  ASN198     -0.1240
     68  CA         6.5540   15.5100  -16.6800 C.3   198  ASN198      0.1653
     69  C          7.2660   14.4140  -17.4790 C.2   198  ASN198      0.2266
     70  O          8.2260   13.8030  -17.0140 O.2   198  ASN198     -0.2867
     71  CB         5.2730   14.9340  -16.0300 C.3   198  ASN198      0.1155
     72  CG         5.5150   13.9540  -14.8760 C.2   198  ASN198      0.2627
     73  OD1        6.2040   14.2480  -13.9300 O.2   198  ASN198     -0.2716
     74  ND2        4.8800   12.7770  -14.9380 N.am  198  ASN198     -0.0877
     75  N         10.7070   14.9370  -15.1200 N.3   202  PHE202     -0.1227
     76  CA        10.7080   13.9370  -14.0600 C.3   202  PHE202      0.1736
     77  C         10.8870   12.5240  -14.5740 C.2   202  PHE202      0.2595
     78  O         11.6720   11.7490  -14.0180 O.2   202  PHE202     -0.2718
     79  CB         9.4070   14.0490  -13.2680 C.3   202  PHE202      0.0547
     80  CG         9.3090   13.1300  -12.0750 C.ar  202  PHE202     -0.0202
     81  CD1       10.2150   13.1930  -11.0240 C.ar  202  PHE202     -0.0042
     82  CD2        8.2660   12.2240  -11.9980 C.ar  202  PHE202     -0.0042
     83  CE1       10.0720   12.3510   -9.9140 C.ar  202  PHE202     -0.0003
     84  CE2        8.1080   11.4050  -10.9130 C.ar  202  PHE202     -0.0003
     85  CZ         9.0060   11.4630   -9.8710 C.ar  202  PHE202     -0.0000
     86  N         10.1600   12.1480  -15.6250 N.am  203  TYR203     -0.1976
     87  CA        10.2720   10.7850  -16.1110 C.3   203  TYR203      0.1639
     88  C         11.5130   10.4980  -16.9090 C.2   203  TYR203      0.2290
     89  O         11.7910    9.3280  -17.1860 O.2   203  TYR203     -0.2864
     90  CB         9.1200   10.3970  -17.0080 C.3   203  TYR203      0.0560
     91  CG         7.8000   10.2030  -16.3910 C.ar  203  TYR203     -0.0198
     92  CD1        7.6350   10.0440  -15.0430 C.ar  203  TYR203     -0.0009
     93  CD2        6.7020   10.0130  -17.2230 C.ar  203  TYR203     -0.0009
     94  CE1        6.3750    9.8170  -14.5030 C.ar  203  TYR203      0.0417
     95  CE2        5.4520    9.7970  -16.7040 C.ar  203  TYR203      0.0417
     96  CZ         5.2830    9.6850  -15.3570 C.ar  203  TYR203      0.1957
     97  OH         4.0230    9.5110  -14.8800 O.3   203  TYR203     -0.2866
@<TRIPOS>BOND
     1    55    56    2
     2    55    54    1
     3    57    54    1
     4    57    58    1
     5    54    53    1
     6    34    35    1
     7    58    59   ar
     8    58    60   ar
     9    38    39    1
    10    63    60   ar
    11    63    65   ar
    12    59    61   ar
    13    67    68    1
    14    60    62   ar
    15    69    70    2
    16    69    68    1
    17    93    95   ar
    18    93    91   ar
    19    89    88    2
    20    36    35    1
    21    36    37    2
    22    90    91    1
    23    90    87    1
    24    88    87    1
    25    65    66   ar
    26    39    40    1
    27    95    96   ar
    28    68    71    1
    29    61    62   ar
    30    62    64   ar
    31    91    92   ar
    32    87    86    1
    33    71    72    1
    34    66    64   ar
    35    40    41    2
    36    86    77   am
    37    96    97    1
    38    96    94   ar
    39    75    76    1
    40    92    94   ar
    41    74    72   am
    42    72    73    2
    43    20    21    1
    44    20    17    1
    45    77    76    1
    46    77    78    2
    47    76    79    1
    48    21    22    1
    49    19    18    2
    50    17    18    1
    51    17    16    1
    52    79    80    1
    53    42    43    1
    54    22    16    1
    55    16    11   am
    56    80    82   ar
    57    80    81   ar
    58    82    84   ar
    59    49    51   ar
    60    49    47   ar
    61    43    44    1
    62    43    46    1
    63    44    45    2
    64    51    52   ar
    65    46    47    1
    66    11    12    2
    67    11    10    1
    68    81    83   ar
    69    47    48   ar
    70    84    85   ar
    71    52    50   ar
    72    83    85   ar
    73    10    13    1
    74    10     9    1
    75    48    50   ar
    76    13    14    1
    77    13    15    1
    78     4     3    2
    79     3     2    1
    80    32    33   ar
    81    32    30   ar
    82    33    31   ar
    83     1     2    1
    84     2     5    1
    85    30    28   ar
    86     5     6    1
    87     8     6    1
    88     6     7    1
    89    31    29   ar
    90    28    29   ar
    91    28    27    1
    92    27    24    1
    93    24    23    1
    94    24    25    1
    95    25    26    2
