@<TRIPOS>MOLECULE
tmp/4mf9A00.pdb
 177 166 0 0 0
SMALL
GASTEIGER

@<TRIPOS>ATOM
      1  N          6.3050  -20.8370   19.6790 N.3    93  MET93      -0.1245
      2  CA         6.3990  -22.1960   20.1640 C.3    93  MET93       0.1570
      3  C          5.5250  -22.4530   21.3690 C.2    93  MET93       0.2261
      4  O          5.5920  -21.7380   22.3270 O.2    93  MET93      -0.2867
      5  CB         7.8380  -22.6140   20.4820 C.3    93  MET93       0.0387
      6  CG         7.9910  -24.0890   20.7800 C.3    93  MET93       0.0595
      7  SD         8.2760  -25.1710   19.3670 S.3    93  MET93      -0.1393
      8  CE         8.7150  -24.0070   18.1070 C.3    93  MET93       0.0692
      9  N          4.1420  -25.5800   24.1500 N.3    95  LEU95      -0.1245
     10  CA         4.2700  -26.8950   24.6760 C.3    95  LEU95       0.1561
     11  C          3.1120  -27.2680   25.5840 C.2    95  LEU95       0.2260
     12  O          2.6700  -26.4850   26.3180 O.2    95  LEU95      -0.2867
     13  CB         5.5120  -26.9850   25.5190 C.3    95  LEU95       0.0270
     14  CG         6.5620  -27.6450   24.7140 C.3    95  LEU95       0.0019
     15  CD1        7.3010  -26.5130   24.0980 C.3    95  LEU95       0.0001
     16  CD2        7.3800  -28.4100   25.7120 C.3    95  LEU95       0.0001
     17  N          2.8110  -30.2910   28.3930 N.3    97  VAL97      -0.1245
     18  CA         3.6350  -31.3360   28.9850 C.3    97  VAL97       0.1561
     19  C          2.8760  -31.9590   30.1410 C.2    97  VAL97       0.2260
     20  O          2.4740  -31.2560   31.0690 O.2    97  VAL97      -0.2867
     21  CB         5.0010  -30.7700   29.4670 C.3    97  VAL97       0.0252
     22  CG1        5.8170  -31.8430   30.1530 C.3    97  VAL97       0.0019
     23  CG2        5.7910  -30.2020   28.2950 C.3    97  VAL97       0.0019
     24  N          3.8740  -30.7840   21.0320 N.3   104  ARG104     -0.1245
     25  CA         4.8370  -29.7630   20.6370 C.3   104  ARG104      0.1563
     26  C          4.1750  -28.9680   19.5330 C.2   104  ARG104      0.2260
     27  O          3.8380  -29.5210   18.4750 O.2   104  ARG104     -0.2867
     28  CB         6.1350  -30.3830   20.1160 C.3   104  ARG104      0.0307
     29  CG         6.7440  -31.4380   21.0290 C.3   104  ARG104      0.0489
     30  CD         7.0850  -30.8940   22.4150 C.3   104  ARG104      0.2205
     31  NE         7.5940  -31.9490   23.2980 N.pl3 104  ARG104     -0.0865
     32  CZ         6.8980  -32.5060   24.2900 C.cat 104  ARG104      0.5346
     33  NH1        5.6550  -32.1010   24.5560 N.pl3 104  ARG104      0.1354
     34  NH2        7.4470  -33.4670   25.0310 N.pl3 104  ARG104      0.1354
     35  N          4.0510  -25.8390   16.8460 N.3   106  PHE106     -0.1241
     36  CA         4.8360  -24.9040   16.0380 C.3   106  PHE106      0.1605
     37  C          3.8960  -23.8710   15.4330 C.2   106  PHE106      0.2264
     38  O          3.3700  -24.0440   14.3270 O.2   106  PHE106     -0.2867
     39  CB         5.6220  -25.6680   14.9750 C.3   106  PHE106      0.0534
     40  CG         6.4210  -26.7870   15.5450 C.ar  106  PHE106     -0.0203
     41  CD1        7.6330  -26.5390   16.1700 C.ar  106  PHE106     -0.0042
     42  CD2        5.9430  -28.0870   15.4960 C.ar  106  PHE106     -0.0042
     43  CE1        8.3600  -27.5680   16.7170 C.ar  106  PHE106     -0.0003
     44  CE2        6.6610  -29.1160   16.0430 C.ar  106  PHE106     -0.0003
     45  CZ         7.8680  -28.8640   16.6500 C.ar  106  PHE106     -0.0000
     46  N         22.0080  -35.0290   21.5140 N.3   199  ASP199     -0.1225
     47  CA        20.6160  -35.0830   21.9640 C.3   199  ASP199      0.1805
     48  C         19.7480  -35.2810   20.7310 C.2   199  ASP199      0.2598
     49  O         20.0020  -34.6620   19.6920 O.2   199  ASP199     -0.2718
     50  CB        20.2630  -33.7860   22.7030 C.3   199  ASP199      0.1424
     51  CG        18.7790  -33.6280   22.9610 C.2   199  ASP199      0.3668
     52  OD1       18.2910  -32.4920   22.7990 O.co2 199  ASP199     -0.2456
     53  OD2       18.1060  -34.6130   23.3410 O.co2 199  ASP199     -0.2456
     54  N         18.7280  -36.1090   20.8530 N.am  200  THR200     -0.1939
     55  CA        17.8820  -36.4390   19.7180 C.3   200  THR200      0.2028
     56  C         17.1890  -35.2210   19.1270 C.2   200  THR200      0.2642
     57  O         16.7650  -35.2260   18.0480 O.2   200  THR200     -0.2714
     58  CB        16.8230  -37.4870   20.0580 C.3   200  THR200      0.1808
     59  OG1       16.0880  -37.0630   21.1960 O.3   200  THR200     -0.2208
     60  CG2       17.4750  -38.8560   20.3210 C.3   200  THR200      0.0379
     61  N         17.1100  -34.1770   19.9250 N.am  201  HIS201     -0.1973
     62  CA        16.5820  -32.8890   19.4940 C.3   201  HIS201      0.1656
     63  C         17.4410  -32.1270   18.5120 C.2   201  HIS201      0.2291
     64  O         16.9950  -31.1900   17.9340 O.2   201  HIS201     -0.2864
     65  CB        16.2160  -32.0440   20.6780 C.3   201  HIS201      0.0771
     66  CG        15.0830  -32.6070   21.4440 C.ar  201  HIS201      0.0820
     67  ND1       15.2590  -33.4370   22.5180 N.ar  201  HIS201     -0.2267
     68  CD2       13.7500  -32.4970   21.2610 C.ar  201  HIS201      0.1154
     69  CE1       14.0760  -33.7830   22.9890 C.ar  201  HIS201      0.1986
     70  NE2       13.1500  -33.2200   22.2420 N.ar  201  HIS201     -0.2212
     71  N         18.8930  -33.5070   15.9300 N.3   203  PHE203     -0.1241
     72  CA        18.9230  -34.2410   14.6720 C.3   203  PHE203      0.1605
     73  C         18.5000  -33.3290   13.5270 C.2   203  PHE203      0.2264
     74  O         19.1610  -33.2610   12.4860 O.2   203  PHE203     -0.2867
     75  CB        18.0130  -35.4670   14.7590 C.3   203  PHE203      0.0534
     76  CG        18.1550  -36.4210   13.6000 C.ar  203  PHE203     -0.0203
     77  CD1       19.2940  -37.2090   13.4610 C.ar  203  PHE203     -0.0042
     78  CD2       17.1420  -36.5390   12.6580 C.ar  203  PHE203     -0.0042
     79  CE1       19.4100  -38.1030   12.4010 C.ar  203  PHE203     -0.0003
     80  CE2       17.2560  -37.4150   11.5920 C.ar  203  PHE203     -0.0003
     81  CZ        18.3820  -38.2010   11.4630 C.ar  203  PHE203     -0.0000
     82  N         15.1280  -36.4010    5.3020 N.3   214  ARG214     -0.1245
     83  CA        15.2580  -37.3300    6.3740 C.3   214  ARG214      0.1563
     84  C         15.4890  -38.7890    5.8880 C.2   214  ARG214      0.2260
     85  O         16.3390  -39.4530    6.3600 O.2   214  ARG214     -0.2867
     86  CB        14.0530  -37.3020    7.2840 C.3   214  ARG214      0.0307
     87  CG        14.2890  -38.1430    8.5120 C.3   214  ARG214      0.0489
     88  CD        13.2290  -38.2920    9.5880 C.3   214  ARG214      0.2205
     89  NE        13.3520  -37.2330   10.5230 N.pl3 214  ARG214     -0.0865
     90  CZ        13.5770  -37.2960   11.8240 C.cat 214  ARG214      0.5346
     91  NH1       13.6700  -38.3870   12.5040 N.pl3 214  ARG214      0.1354
     92  NH2       13.6900  -36.1890   12.4370 N.pl3 214  ARG214      0.1354
     93  N          6.5410  -44.8550   23.3730 N.3   249  MET249     -0.1245
     94  CA         6.1720  -43.5090   22.9810 C.3   249  MET249      0.1570
     95  C          5.7610  -43.5100   21.5290 C.2   249  MET249      0.2261
     96  O          6.4490  -44.0600   20.7310 O.2   249  MET249     -0.2867
     97  CB         7.3160  -42.5380   23.1800 C.3   249  MET249      0.0387
     98  CG         7.8100  -42.4410   24.5820 C.3   249  MET249      0.0595
     99  SD         9.1370  -41.3130   24.8660 S.3   249  MET249     -0.1393
    100  CE         8.2080  -39.8070   24.7390 C.3   249  MET249      0.0692
    101  N          4.7750  -40.9390   18.4880 N.3   251  PHE251     -0.1241
    102  CA         4.7850  -39.5580   17.9930 C.3   251  PHE251      0.1605
    103  C          4.0190  -39.5010   16.6860 C.2   251  PHE251      0.2264
    104  O          4.3440  -40.2200   15.7450 O.2   251  PHE251     -0.2867
    105  CB         6.2290  -39.1000   17.6840 C.3   251  PHE251      0.0534
    106  CG         7.0580  -38.7510   18.9000 C.ar  251  PHE251     -0.0203
    107  CD1        7.4160  -39.7240   19.8260 C.ar  251  PHE251     -0.0042
    108  CD2        7.5290  -37.4620   19.0780 C.ar  251  PHE251     -0.0042
    109  CE1        8.1970  -39.3960   20.9260 C.ar  251  PHE251     -0.0003
    110  CE2        8.3040  -37.1300   20.1760 C.ar  251  PHE251     -0.0003
    111  CZ         8.6310  -38.0990   21.1020 C.ar  251  PHE251     -0.0000
    112  N          2.9660  -31.7270   16.8450 N.3   258  ILE258     -0.1245
    113  CA         3.3130  -33.1130   17.1320 C.3   258  ILE258      0.1561
    114  C          2.6450  -33.5150   18.4350 C.2   258  ILE258      0.2260
    115  O          2.7140  -32.7820   19.4220 O.2   258  ILE258     -0.2867
    116  CB         4.8380  -33.3230   17.2150 C.3   258  ILE258      0.0252
    117  CG1        5.4940  -32.9550   15.8780 C.3   258  ILE258      0.0019
    118  CG2        5.1430  -34.7550   17.6380 C.3   258  ILE258      0.0019
    119  CD1        7.0110  -32.7330   15.9520 C.3   258  ILE258      0.0001
    120  N         20.3770  -43.1990   17.1980 N.3   299  LYS299     -0.1245
    121  CA        21.0360  -41.9260   17.3300 C.3   299  LYS299      0.1561
    122  C         21.7680  -41.8170   18.6860 C.2   299  LYS299      0.2260
    123  O         21.2130  -42.0760   19.6890 O.2   299  LYS299     -0.2867
    124  CB        20.0350  -40.7730   17.1870 C.3   299  LYS299      0.0271
    125  CG        19.0240  -40.8620   16.0800 C.3   299  LYS299      0.0035
    126  CD        18.2710  -39.5570   15.8670 C.3   299  LYS299      0.0206
    127  CE        16.8430  -39.6720   16.3630 C.3   299  LYS299      0.1093
    128  NZ        15.8730  -40.2540   15.4210 N.3   299  LYS299     -0.1314
    129  N         19.7390  -43.8550   21.3600 N.3   306  VAL306     -0.1245
    130  CA        18.2770  -43.8920   21.3350 C.3   306  VAL306      0.1561
    131  C         17.8130  -44.5940   20.0740 C.2   306  VAL306      0.2260
    132  O         18.1520  -44.1830   18.9660 O.2   306  VAL306     -0.2867
    133  CB        17.6370  -42.4740   21.3770 C.3   306  VAL306      0.0252
    134  CG1       16.0920  -42.5770   21.2180 C.3   306  VAL306      0.0019
    135  CG2       17.9820  -41.7670   22.6640 C.3   306  VAL306      0.0019
    136  N          6.3220  -42.2040   14.5990 N.3   321  GLN321     -0.1245
    137  CA         7.6010  -42.6510   15.1310 C.3   321  GLN321      0.1566
    138  C          7.3680  -43.3320   16.4470 C.2   321  GLN321      0.2260
    139  O          6.5730  -42.8740   17.2100 O.2   321  GLN321     -0.2867
    140  CB         8.5270  -41.4910   15.4310 C.3   321  GLN321      0.0367
    141  CG         9.1020  -40.7160   14.2910 C.3   321  GLN321      0.0905
    142  CD         9.9280  -39.5390   14.8170 C.2   321  GLN321      0.2608
    143  OE1       11.1420  -39.5410   14.7740 O.2   321  GLN321     -0.2717
    144  NE2        9.2520  -38.5810   15.3690 N.am  321  GLN321     -0.0878
    145  N          9.3280  -44.7160   19.9970 N.3   323  PHE323     -0.1227
    146  CA        10.5060  -44.8350   20.8490 C.3   323  PHE323      0.1736
    147  C         10.0960  -45.6700   22.0520 C.2   323  PHE323      0.2596
    148  O          8.9130  -46.0350   22.1970 O.2   323  PHE323     -0.2718
    149  CB        10.9890  -43.4730   21.3570 C.3   323  PHE323      0.0547
    150  CG        11.3620  -42.4950   20.2710 C.ar  323  PHE323     -0.0202
    151  CD1       12.7000  -42.1880   20.0230 C.ar  323  PHE323     -0.0042
    152  CD2       10.3760  -41.8450   19.5320 C.ar  323  PHE323     -0.0042
    153  CE1       13.0510  -41.2800   19.0490 C.ar  323  PHE323     -0.0003
    154  CE2       10.7260  -40.9280   18.5540 C.ar  323  PHE323     -0.0003
    155  CZ        12.0670  -40.6530   18.3080 C.ar  323  PHE323     -0.0000
    156  N         11.0620  -45.9570   22.9220 N.am  324  GLY324     -0.1957
    157  CA        10.7490  -46.5190   24.2230 C.3   324  GLY324      0.1869
    158  C         10.4970  -45.3870   25.1990 C.2   324  GLY324      0.2309
    159  O         11.0090  -44.2800   25.0320 O.2   324  GLY324     -0.2863
    160  N         11.0030  -43.0510   28.2040 N.3   326  ARG326     -0.1245
    161  CA        12.2070  -42.6020   28.8560 C.3   326  ARG326      0.1563
    162  C         12.1320  -41.1410   29.3580 C.2   326  ARG326      0.2260
    163  O         11.6030  -40.3110   28.6990 O.2   326  ARG326     -0.2867
    164  CB        13.3420  -42.8080   27.8520 C.3   326  ARG326      0.0307
    165  CG        14.5920  -41.9980   27.9790 C.3   326  ARG326      0.0489
    166  CD        15.4870  -42.2820   26.7740 C.3   326  ARG326      0.2205
    167  NE        15.6310  -41.1400   25.8820 N.pl3 326  ARG326     -0.0865
    168  CZ        16.3120  -40.0640   26.1910 C.cat 326  ARG326      0.5346
    169  NH1       16.9150  -40.0200   27.3340 N.pl3 326  ARG326      0.1354
    170  NH2       16.4410  -39.0650   25.3470 N.pl3 326  ARG326      0.1354
    171  N         14.2740  -37.6270   30.3030 N.3   328  PRO328     -0.2116
    172  CA        15.5680  -37.0890   29.9120 C.3   328  PRO328      0.1372
    173  C         16.5010  -37.3210   31.1020 C.2   328  PRO328      0.2244
    174  O         16.0800  -37.1330   32.1740 O.2   328  PRO328     -0.2868
    175  CB        15.2540  -35.6170   29.6250 C.3   328  PRO328      0.0268
    176  CG        13.7710  -35.5160   29.6310 C.3   328  PRO328      0.0207
    177  CD        13.2840  -36.5840   30.5440 C.3   328  PRO328      0.0892
@<TRIPOS>BOND
     1    82    83    1
     2    84    85    2
     3    84    83    1
     4    83    86    1
     5    86    87    1
     6    87    88    1
     7    88    89    1
     8    89    90    2
     9    81    80   ar
    10    81    79   ar
    11    80    78   ar
    12    90    92    1
    13    90    91    1
    14    79    77   ar
    15    74    73    2
    16    78    76   ar
    17    77    76   ar
    18    73    72    1
    19    76    75    1
    20   141   142    1
    21   141   140    1
    22    38    37    2
    23   136   137    1
    24    72    75    1
    25    72    71    1
    26   143   142    2
    27   142   144   am
    28    39    40    1
    29    39    36    1
    30   137   140    1
    31   137   138    1
    32   128   127    1
    33    37    36    1
    34    42    40   ar
    35    42    44   ar
    36    40    41   ar
    37   104   103    2
    38   126   125    1
    39   126   127    1
    40   117   119    1
    41   117   116    1
    42    36    35    1
    43    44    45   ar
    44   125   124    1
    45    41    43   ar
    46   138   139    2
    47    45    43   ar
    48   103   102    1
    49   112   113    1
    50   113   116    1
    51   113   114    1
    52   124   121    1
    53   120   121    1
    54   116   118    1
    55   121   122    1
    56   105   102    1
    57   105   106    1
    58    64    63    2
    59   102   101    1
    60    57    56    2
    61     8     7    1
    62   155   154   ar
    63   155   153   ar
    64   114   115    2
    65    27    26    2
    66    63    62    1
    67   154   152   ar
    68   122   123    2
    69   106   108   ar
    70   106   107   ar
    71   132   131    2
    72   153   151   ar
    73   108   110   ar
    74    56    55    1
    75    56    61   am
    76     7     6    1
    77    62    61    1
    78    62    65    1
    79   152   150   ar
    80    26    25    1
    81     1     2    1
    82    49    48    2
    83    55    58    1
    84    55    54    1
    85   107   109   ar
    86   145   146    1
    87   151   150   ar
    88    58    60    1
    89    58    59    1
    90   131   130    1
    91    28    25    1
    92    28    29    1
    93     2     5    1
    94     2     3    1
    95   110   111   ar
    96   150   149    1
    97     5     6    1
    98    25    24    1
    99    65    66    1
   100    48    54   am
   101    48    47    1
   102    96    95    2
   103   146   149    1
   104   146   147    1
   105   109   111   ar
   106    29    30    1
   107   134   133    1
   108    68    66   ar
   109    68    70   ar
   110   130   129    1
   111   130   133    1
   112     3     4    2
   113   133   135    1
   114    66    67   ar
   115    46    47    1
   116    95    94    1
   117    47    50    1
   118   147   148    2
   119   147   156   am
   120    70    69   ar
   121    30    31    1
   122    67    69   ar
   123    50    51    1
   124    52    51   ar
   125   156   157    1
   126    51    53   ar
   127    94    97    1
   128    94    93    1
   129    97    98    1
   130    31    32    2
   131    15    14    1
   132     9    10    1
   133   157   158    1
   134    32    33    1
   135    32    34    1
   136    98    99    1
   137    10    13    1
   138    10    11    1
   139    14    13    1
   140    14    16    1
   141   100    99    1
   142   159   158    2
   143   170   168    1
   144    11    12    2
   145   167   168    2
   146   167   166    1
   147   168   169    1
   148   166   165    1
   149   164   165    1
   150   164   161    1
   151   160   161    1
   152    23    21    1
   153    17    18    1
   154   163   162    2
   155   161   162    1
   156    18    21    1
   157    18    19    1
   158    21    22    1
   159   175   176    1
   160   175   172    1
   161   176   177    1
   162   172   171    1
   163   172   173    1
   164    19    20    2
   165   171   177    1
   166   173   174    2
