@<TRIPOS>MOLECULE
tmp/4mfbA00.pdb
 198 195 0 0 0
SMALL
GASTEIGER

@<TRIPOS>ATOM
      1  N        490.9040  -16.2370   26.0800 N.3    92  PRO92      -0.2116
      2  CA       490.0310  -16.9720   25.1610 C.3    92  PRO92       0.1372
      3  C        489.1430  -17.9510   25.9130 C.2    92  PRO92       0.2244
      4  O        489.5980  -18.5840   26.8640 O.2    92  PRO92      -0.2868
      5  CB       491.0190  -17.7210   24.2580 C.3    92  PRO92       0.0268
      6  CG       492.3040  -17.7520   25.0220 C.3    92  PRO92       0.0207
      7  CD       492.3300  -16.4770   25.7970 C.3    92  PRO92       0.0892
      8  N        487.1920  -22.3030   21.2720 N.3    97  LEU97      -0.1231
      9  CA       488.3510  -22.9820   20.7070 C.3    97  LEU97       0.1693
     10  C        487.9080  -24.0480   19.7100 C.2    97  LEU97       0.2592
     11  O        486.7890  -24.5600   19.7930 O.2    97  LEU97      -0.2718
     12  CB       489.1950  -23.6130   21.8140 C.3    97  LEU97       0.0284
     13  CG       489.7210  -22.6620   22.8890 C.3    97  LEU97       0.0019
     14  CD1      490.5910  -23.4130   23.8830 C.3    97  LEU97       0.0001
     15  CD2      490.4910  -21.5110   22.2600 C.3    97  LEU97       0.0001
     16  N        488.7810  -24.3700   18.7600 N.am   98  LYS98      -0.1966
     17  CA       488.4950  -25.4210   17.7900 C.3    98  LYS98       0.1728
     18  C        489.3770  -26.6390   18.0270 C.2    98  LYS98       0.2616
     19  O        490.5610  -26.5100   18.3410 O.2    98  LYS98      -0.2715
     20  CB       488.6640  -24.9190   16.3540 C.3    98  LYS98       0.0311
     21  CG       487.4820  -24.1240   15.8200 C.3    98  LYS98       0.0038
     22  CD       487.5940  -22.6480   16.1630 C.3    98  LYS98       0.0206
     23  CE       488.7690  -22.0130   15.4410 C.3    98  LYS98       0.1093
     24  NZ       488.9030  -20.5710   15.7670 N.3    98  LYS98      -0.1314
     25  N        488.7860  -27.8210   17.8720 N.am   99  LYS99      -0.1963
     26  CA       489.4870  -29.0810   18.1000 C.3    99  LYS99       0.1728
     27  C        490.6860  -29.2570   17.1700 C.2    99  LYS99       0.2616
     28  O        490.5640  -29.1470   15.9500 O.2    99  LYS99      -0.2715
     29  CB       488.5220  -30.2630   17.9410 C.3    99  LYS99       0.0311
     30  CG       489.1920  -31.6320   17.9540 C.3    99  LYS99       0.0038
     31  CD       489.8830  -31.9010   19.2820 C.3    99  LYS99       0.0206
     32  CE       490.6950  -33.1870   19.2460 C.3    99  LYS99       0.1093
     33  NZ       491.5540  -33.3020   20.4590 N.3    99  LYS99      -0.1314
     34  N        491.8440  -29.5260   17.7640 N.am  100  LYS100     -0.1977
     35  CA       493.0470  -29.8670   17.0160 C.3   100  LYS100      0.1596
     36  C        493.5120  -31.2480   17.4570 C.2   100  LYS100      0.2287
     37  O        493.4110  -31.5890   18.6360 O.2   100  LYS100     -0.2864
     38  CB       494.1490  -28.8330   17.2530 C.3   100  LYS100      0.0298
     39  CG       493.9410  -27.5200   16.5160 C.3   100  LYS100      0.0038
     40  CD       493.9420  -27.7370   15.0120 C.3   100  LYS100      0.0206
     41  CE       493.7630  -26.4320   14.2570 C.3   100  LYS100      0.1093
     42  NZ       493.7440  -26.6450   12.7840 N.3   100  LYS100     -0.1314
     43  N        496.2600  -32.5010   18.0900 N.3   102  SER102     -0.1202
     44  CA       497.1840  -32.4570   19.2200 C.3   102  SER102      0.2020
     45  C        497.4720  -31.0280   19.6850 C.2   102  SER102      0.2618
     46  O        497.5550  -30.1030   18.8730 O.2   102  SER102     -0.2717
     47  CB       498.4820  -33.2040   18.8950 C.3   102  SER102      0.2103
     48  OG       498.9790  -32.8440   17.6180 O.3   102  SER102     -0.2182
     49  N        497.6160  -30.8640   20.9990 N.am  103  VAL103     -0.1979
     50  CA       497.8960  -29.5650   21.6050 C.3   103  VAL103      0.1595
     51  C        499.0750  -29.6590   22.5750 C.2   103  VAL103      0.2287
     52  O        499.1360  -30.5620   23.4090 O.2   103  VAL103     -0.2864
     53  CB       496.6610  -29.0030   22.3560 C.3   103  VAL103      0.0276
     54  CG1      497.0150  -27.7190   23.0910 C.3   103  VAL103      0.0022
     55  CG2      495.5040  -28.7660   21.3940 C.3   103  VAL103      0.0022
     56  N        501.7250  -27.4380   25.2720 N.3   105  VAL105     -0.1245
     57  CA       501.9020  -26.2430   26.0800 C.3   105  VAL105      0.1561
     58  C        503.3730  -26.0400   26.4050 C.2   105  VAL105      0.2260
     59  O        504.0050  -26.9040   27.0100 O.2   105  VAL105     -0.2867
     60  CB       501.1000  -26.3330   27.3930 C.3   105  VAL105      0.0252
     61  CG1      501.3620  -25.1130   28.2640 C.3   105  VAL105      0.0019
     62  CG2      499.6180  -26.4770   27.0950 C.3   105  VAL105      0.0019
     63  N        498.6170  -23.8100   14.7690 N.3   176  VAL176     -0.1245
     64  CA       498.0080  -22.6840   15.4690 C.3   176  VAL176      0.1561
     65  C        498.6600  -22.3990   16.8180 C.2   176  VAL176      0.2260
     66  O        498.6520  -23.2440   17.7130 O.2   176  VAL176     -0.2867
     67  CB       496.5040  -22.9210   15.6920 C.3   176  VAL176      0.0252
     68  CG1      495.8720  -21.7120   16.3630 C.3   176  VAL176      0.0019
     69  CG2      495.8160  -23.2280   14.3720 C.3   176  VAL176      0.0019
     70  N        498.6050  -20.0130   20.1310 N.3   178  TYR178     -0.1241
     71  CA       498.0060  -19.0420   21.0310 C.3   178  TYR178      0.1605
     72  C        499.0870  -18.5100   21.9530 C.2   178  TYR178      0.2264
     73  O        499.8400  -19.2790   22.5500 O.2   178  TYR178     -0.2867
     74  CB       496.9080  -19.6940   21.8710 C.3   178  TYR178      0.0534
     75  CG       495.6110  -19.9110   21.1310 C.ar  178  TYR178     -0.0201
     76  CD1      494.5020  -19.1170   21.3890 C.ar  178  TYR178     -0.0009
     77  CD2      495.4960  -20.9060   20.1710 C.ar  178  TYR178     -0.0009
     78  CE1      493.3130  -19.3120   20.7120 C.ar  178  TYR178      0.0417
     79  CE2      494.3120  -21.1070   19.4900 C.ar  178  TYR178      0.0417
     80  CZ       493.2240  -20.3070   19.7630 C.ar  178  TYR178      0.1957
     81  OH       492.0440  -20.5070   19.0840 O.3   178  TYR178     -0.2866
     82  N        503.2290  -18.1710   28.3480 N.3   183  ASP183     -0.1239
     83  CA       502.9250  -19.4530   27.7170 C.3   183  ASP183      0.1674
     84  C        502.7040  -19.3860   26.2090 C.2   183  ASP183      0.2266
     85  O        502.2760  -18.3700   25.6660 O.2   183  ASP183     -0.2867
     86  CB       501.6850  -20.0810   28.3630 C.3   183  ASP183      0.1410
     87  CG       501.9600  -20.6550   29.7420 C.2   183  ASP183      0.3668
     88  OD1      503.0960  -20.5090   30.2410 O.co2 183  ASP183     -0.2456
     89  OD2      501.0280  -21.2470   30.3320 O.co2 183  ASP183     -0.2456
     90  N        500.7360  -21.9220   23.3300 N.3   185  TYR185     -0.1227
     91  CA       499.9100  -23.1000   23.1580 C.3   185  TYR185      0.1736
     92  C        499.8190  -23.4130   21.6770 C.2   185  TYR185      0.2595
     93  O        499.1900  -22.6880   20.9220 O.2   185  TYR185     -0.2718
     94  CB       498.5150  -22.8530   23.7290 C.3   185  TYR185      0.0548
     95  CG       498.5140  -22.2870   25.1290 C.ar  185  TYR185     -0.0200
     96  CD1      499.2660  -22.8730   26.1360 C.ar  185  TYR185     -0.0009
     97  CD2      497.7690  -21.1570   25.4400 C.ar  185  TYR185     -0.0009
     98  CE1      499.2700  -22.3540   27.4220 C.ar  185  TYR185      0.0417
     99  CE2      497.7690  -20.6260   26.7200 C.ar  185  TYR185      0.0417
    100  CZ       498.5200  -21.2280   27.7120 C.ar  185  TYR185      0.1957
    101  OH       498.5210  -20.7030   28.9910 O.3   185  TYR185     -0.2866
    102  N        500.4350  -24.5110   21.2660 N.am  186  VAL186     -0.1966
    103  CA       500.4920  -24.8620   19.8560 C.3   186  VAL186      0.1727
    104  C        499.5230  -26.0020   19.5940 C.2   186  VAL186      0.2616
    105  O        499.2730  -26.8120   20.4730 O.2   186  VAL186     -0.2715
    106  CB       501.9190  -25.2780   19.4530 C.3   186  VAL186      0.0290
    107  CG1      502.0490  -25.3590   17.9410 C.3   186  VAL186      0.0023
    108  CG2      502.9360  -24.3030   20.0330 C.3   186  VAL186      0.0023
    109  N        498.9560  -26.0580   18.3970 N.am  187  GLY187     -0.1955
    110  CA       498.0670  -27.1560   18.0730 C.3   187  GLY187      0.1869
    111  C        498.0800  -27.4890   16.6000 C.2   187  GLY187      0.2309
    112  O        498.3850  -26.6380   15.7680 O.2   187  GLY187     -0.2863
    113  N        503.6300  -30.8130   29.9830 N.3   220  LYS220     -0.1245
    114  CA       502.3160  -31.1850   30.4990 C.3   220  LYS220      0.1561
    115  C        501.4870  -32.0010   29.5120 C.2   220  LYS220      0.2260
    116  O        501.6110  -31.8510   28.2970 O.2   220  LYS220     -0.2867
    117  CB       501.5450  -29.9410   30.9470 C.3   220  LYS220      0.0271
    118  CG       502.2480  -29.1560   32.0410 C.3   220  LYS220      0.0035
    119  CD       501.5180  -27.8660   32.3650 C.3   220  LYS220      0.0206
    120  CE       502.2920  -27.0480   33.3850 C.3   220  LYS220      0.1093
    121  NZ       501.6410  -25.7390   33.6670 N.3   220  LYS220     -0.1314
    122  N        497.4710  -33.5250   28.5570 N.3   222  PRO222     -0.2116
    123  CA       496.0370  -33.3160   28.7910 C.3   222  PRO222      0.1372
    124  C        495.4780  -34.2930   29.8260 C.2   222  PRO222      0.2244
    125  O        495.9730  -35.4160   29.9270 O.2   222  PRO222     -0.2868
    126  CB       495.4110  -33.5700   27.4110 C.3   222  PRO222      0.0268
    127  CG       496.4680  -34.2720   26.6130 C.3   222  PRO222      0.0207
    128  CD       497.7640  -33.7420   27.1310 C.3   222  PRO222      0.0892
    129  N        494.5210  -30.2420   30.5900 N.3   224  PHE224     -0.1227
    130  CA       495.2680  -29.0960   31.0960 C.3   224  PHE224      0.1736
    131  C        494.4330  -28.3040   32.0930 C.2   224  PHE224      0.2595
    132  O        493.2290  -28.1270   31.9060 O.2   224  PHE224     -0.2718
    133  CB       495.6980  -28.1770   29.9500 C.3   224  PHE224      0.0547
    134  CG       496.5180  -28.8610   28.8910 C.ar  224  PHE224     -0.0202
    135  CD1      497.8670  -29.1020   29.0890 C.ar  224  PHE224     -0.0042
    136  CD2      495.9400  -29.2490   27.6920 C.ar  224  PHE224     -0.0042
    137  CE1      498.6250  -29.7300   28.1150 C.ar  224  PHE224     -0.0003
    138  CE2      496.6920  -29.8750   26.7140 C.ar  224  PHE224     -0.0003
    139  CZ       498.0360  -30.1160   26.9260 C.ar  224  PHE224     -0.0000
    140  N        495.0750  -27.8250   33.1530 N.am  225  LEU225     -0.1966
    141  CA       494.4030  -26.9530   34.1050 C.3   225  LEU225      0.1728
    142  C        494.8380  -25.5280   33.8170 C.2   225  LEU225      0.2616
    143  O        495.9650  -25.1420   34.1220 O.2   225  LEU225     -0.2715
    144  CB       494.7910  -27.3270   35.5330 C.3   225  LEU225      0.0311
    145  CG       494.7250  -28.8100   35.8970 C.3   225  LEU225      0.0022
    146  CD1      495.1480  -29.0190   37.3420 C.3   225  LEU225      0.0001
    147  CD2      493.3310  -29.3660   35.6510 C.3   225  LEU225      0.0001
    148  N        493.9350  -24.7400   33.2460 N.am  226  TRP226     -0.1974
    149  CA       494.2900  -23.4100   32.7750 C.3   226  TRP226      0.1640
    150  C        493.2520  -22.3670   33.1590 C.2   226  TRP226      0.2290
    151  O        492.0970  -22.4440   32.7390 O.2   226  TRP226     -0.2864
    152  CB       494.4890  -23.4330   31.2570 C.3   226  TRP226      0.0576
    153  CG       494.7260  -22.0880   30.6490 C.ar  226  TRP226      0.0006
    154  CD1      495.8590  -21.3330   30.7440 C.ar  226  TRP226      0.0946
    155  CD2      493.8120  -21.3410   29.8390 C.ar  226  TRP226      0.0152
    156  NE1      495.7040  -20.1580   30.0490 N.ar  226  TRP226     -0.2442
    157  CE2      494.4560  -20.1390   29.4830 C.ar  226  TRP226      0.0810
    158  CE3      492.5100  -21.5700   29.3810 C.ar  226  TRP226      0.0012
    159  CZ2      493.8420  -19.1690   28.6910 C.ar  226  TRP226      0.0191
    160  CZ3      491.9040  -20.6070   28.5960 C.ar  226  TRP226      0.0001
    161  CH2      492.5690  -19.4210   28.2590 C.ar  226  TRP226      0.0015
    162  N        490.8720  -28.3610   30.2540 N.3   231  LEU231     -0.1231
    163  CA       490.7860  -28.6380   28.8300 C.3   231  LEU231      0.1693
    164  C        491.1880  -30.0780   28.5660 C.2   231  LEU231      0.2592
    165  O        492.3640  -30.4310   28.6470 O.2   231  LEU231     -0.2718
    166  CB       491.6930  -27.6970   28.0270 C.3   231  LEU231      0.0284
    167  CG       491.4510  -26.1830   28.0560 C.3   231  LEU231      0.0019
    168  CD1      489.9610  -25.8560   28.0970 C.3   231  LEU231      0.0001
    169  CD2      492.1990  -25.5140   29.2050 C.3   231  LEU231      0.0001
    170  N        490.1980  -30.9070   28.2570 N.am  232  HIS232     -0.1962
    171  CA       490.4370  -32.2680   27.8050 C.3   232  HIS232      0.1772
    172  C        490.5130  -32.2340   26.2850 C.2   232  HIS232      0.2462
    173  O        490.0330  -31.2830   25.6710 O.2   232  HIS232     -0.2730
    174  CB       489.3220  -33.1960   28.2900 C.3   232  HIS232      0.0785
    175  CG       489.2510  -33.3260   29.7800 C.ar  232  HIS232      0.0821
    176  ND1      488.9240  -32.2720   30.6050 N.ar  232  HIS232     -0.2267
    177  CD2      489.4710  -34.3860   30.5940 C.ar  232  HIS232      0.1154
    178  CE1      488.9420  -32.6770   31.8630 C.ar  232  HIS232      0.1986
    179  NE2      489.2720  -33.9560   31.8830 N.ar  232  HIS232     -0.2212
    180  N        491.1370  -33.2520   25.6710 N.am  233  PRO233     -0.2727
    181  CA       491.2720  -33.2640   24.2100 C.3   233  PRO233      0.1402
    182  C        489.9550  -33.0800   23.4530 C.2   233  PRO233      0.2269
    183  O        489.9100  -32.2780   22.5220 O.2   233  PRO233     -0.2865
    184  CB       491.8440  -34.6550   23.9350 C.3   233  PRO233      0.0296
    185  CG       492.6450  -34.9590   25.1490 C.3   233  PRO233      0.0237
    186  CD       491.8880  -34.3540   26.3010 C.3   233  PRO233      0.0939
    187  N        483.8690  -28.2490   22.0530 N.3   315  TYR315     -0.1241
    188  CA       484.5670  -27.1800   21.3560 C.3   315  TYR315      0.1605
    189  C        483.7600  -26.7350   20.1430 C.2   315  TYR315      0.2264
    190  O        482.7080  -27.3040   19.8460 O.2   315  TYR315     -0.2867
    191  CB       485.9670  -27.6410   20.9550 C.3   315  TYR315      0.0534
    192  CG       486.8670  -27.8960   22.1430 C.ar  315  TYR315     -0.0201
    193  CD1      487.6550  -29.0380   22.2160 C.ar  315  TYR315     -0.0009
    194  CD2      486.9260  -26.9910   23.1960 C.ar  315  TYR315     -0.0009
    195  CE1      488.4760  -29.2710   23.3070 C.ar  315  TYR315      0.0417
    196  CE2      487.7450  -27.2130   24.2870 C.ar  315  TYR315      0.0417
    197  CZ       488.5160  -28.3540   24.3390 C.ar  315  TYR315      0.1957
    198  OH       489.3310  -28.5750   25.4260 O.3   315  TYR315     -0.2866
@<TRIPOS>BOND
     1    42    41    1
     2    41    40    1
     3    69    67    1
     4    63    64    1
     5    40    39    1
     6    23    24    1
     7    23    22    1
     8    64    67    1
     9    64    65    1
    10    67    68    1
    11   112   111    2
    12    21    22    1
    13    21    20    1
    14    28    27    2
    15    20    17    1
    16    39    38    1
    17   111   110    1
    18    65    66    2
    19    35    38    1
    20    35    36    1
    21    35    34    1
    22    27    34   am
    23    27    26    1
    24    36    37    2
    25    48    47    1
    26    17    18    1
    27    17    16    1
    28    25    18   am
    29    25    26    1
    30    29    30    1
    31    29    26    1
    32   107   106    1
    33    30    31    1
    34    18    19    2
    35   110   109    1
    36    43    44    1
    37   109   104   am
    38    16    10   am
    39    46    45    2
    40    47    44    1
    41    81    80    1
    42    44    45    1
    43    32    31    1
    44    32    33    1
    45   106   103    1
    46   106   108    1
    47    79    80   ar
    48    79    77   ar
    49   104   103    1
    50   104   105    2
    51    45    49   am
    52    10    11    2
    53    10     9    1
    54    80    78   ar
    55   190   189    2
    56   103   102    1
    57    70    71    1
    58   189   188    1
    59    77    75   ar
    60     9     8    1
    61     9    12    1
    62    78    76   ar
    63    93    92    2
    64   191   188    1
    65   191   192    1
    66    49    50    1
    67    71    74    1
    68    71    72    1
    69    75    76   ar
    70    75    74    1
    71   102    92   am
    72   188   187    1
    73    55    53    1
    74    50    53    1
    75    50    51    1
    76    92    91    1
    77    12    13    1
    78    72    73    2
    79   192   193   ar
    80   192   194   ar
    81   193   195   ar
    82    15    13    1
    83    53    54    1
    84   183   182    2
    85    51    52    2
    86    13    14    1
    87    91    90    1
    88    91    94    1
    89   194   196   ar
    90   195   197   ar
    91   182   181    1
    92    94    95    1
    93   184   181    1
    94   184   185    1
    95   181   180    1
    96     5     6    1
    97     5     2    1
    98   196   197   ar
    99   197   198    1
   100     6     7    1
   101    95    97   ar
   102    95    96   ar
   103   185   186    1
   104     2     3    1
   105     2     1    1
   106    56    57    1
   107    97    99   ar
   108    85    84    2
   109   173   172    2
   110   180   172   am
   111   180   186    1
   112     7     1    1
   113     3     4    2
   114    57    58    1
   115    57    60    1
   116    96    98   ar
   117    84    83    1
   118   172   171    1
   119    58    59    2
   120   127   128    1
   121   127   126    1
   122   138   139   ar
   123   138   136   ar
   124    99   100   ar
   125   139   137   ar
   126    62    60    1
   127   128   122    1
   128    60    61    1
   129   126   123    1
   130    98   100   ar
   131   136   134   ar
   132   100   101    1
   133    83    82    1
   134    83    86    1
   135   171   170    1
   136   171   174    1
   137   166   167    1
   138   166   163    1
   139   167   168    1
   140   167   169    1
   141   137   135   ar
   142   170   164   am
   143   161   160   ar
   144   161   159   ar
   145   174   175    1
   146   116   115    2
   147    86    87    1
   148   122   123    1
   149   164   165    2
   150   164   163    1
   151   160   158   ar
   152   159   157   ar
   153   123   124    1
   154   163   162    1
   155   134   135   ar
   156   134   133    1
   157   158   155   ar
   158   157   155   ar
   159   157   156   ar
   160   115   114    1
   161    87    88   ar
   162    87    89   ar
   163   175   177   ar
   164   175   176   ar
   165   124   125    2
   166   155   153   ar
   167   133   130    1
   168   113   114    1
   169   156   154   ar
   170   114   117    1
   171   129   130    1
   172   177   179   ar
   173   176   178   ar
   174   153   154   ar
   175   153   152    1
   176   117   118    1
   177   130   131    1
   178   152   149    1
   179   178   179   ar
   180   132   131    2
   181   118   119    1
   182   131   140   am
   183   119   120    1
   184   151   150    2
   185   149   150    1
   186   149   148    1
   187   140   141    1
   188   148   142   am
   189   120   121    1
   190   142   141    1
   191   142   143    2
   192   141   144    1
   193   144   145    1
   194   147   145    1
   195   145   146    1
