@<TRIPOS>MOLECULE
tmp/4mfeC01.pdb
 103 100 0 0 0
SMALL
GASTEIGER

@<TRIPOS>ATOM
      1  N        -40.2390    1.6520   74.4530 N.3     9  TYR9       -0.1241
      2  CA       -40.7340    0.3950   74.9320 C.3     9  TYR9        0.1605
      3  C        -41.6220   -0.2430   73.8840 C.2     9  TYR9        0.2264
      4  O        -41.3690   -1.3700   73.4460 O.2     9  TYR9       -0.2867
      5  CB       -41.5130    0.5710   76.2260 C.3     9  TYR9        0.0534
      6  CG       -42.0050   -0.7640   76.7150 C.ar    9  TYR9       -0.0201
      7  CD1      -41.1380   -1.6680   77.2880 C.ar    9  TYR9       -0.0009
      8  CD2      -43.3350   -1.1350   76.5650 C.ar    9  TYR9       -0.0009
      9  CE1      -41.5800   -2.9100   77.6970 C.ar    9  TYR9        0.0417
     10  CE2      -43.7640   -2.3720   76.9520 C.ar    9  TYR9        0.0417
     11  CZ       -42.8740   -3.2530   77.5120 C.ar    9  TYR9        0.1957
     12  OH       -43.3080   -4.4790   77.8980 O.3     9  TYR9       -0.2866
     13  N        -39.7960   -1.5210   71.1440 N.3    12  ASP12      -0.1225
     14  CA       -38.9960   -2.6520   71.5510 C.3    12  ASP12       0.1805
     15  C        -39.8260   -3.9050   71.6420 C.2    12  ASP12       0.2597
     16  O        -39.4590   -4.9480   71.1040 O.2    12  ASP12      -0.2718
     17  CB       -38.3030   -2.3830   72.8810 C.3    12  ASP12       0.1424
     18  CG       -36.9340   -3.0060   72.9420 C.2    12  ASP12       0.3668
     19  OD1      -36.6960   -3.9470   72.1530 O.co2  12  ASP12      -0.2456
     20  OD2      -36.1140   -2.5690   73.7800 O.co2  12  ASP12      -0.2456
     21  N        -40.9690   -3.8170   72.2810 N.am   13  VAL13      -0.1980
     22  CA       -41.7480   -5.0260   72.4150 C.3    13  VAL13       0.1595
     23  C        -42.4140   -5.4420   71.1070 C.2    13  VAL13       0.2287
     24  O        -42.5380   -6.6150   70.8380 O.2    13  VAL13      -0.2864
     25  CB       -42.7760   -4.9360   73.5310 C.3    13  VAL13       0.0276
     26  CG1      -43.8540   -3.8970   73.2410 C.3    13  VAL13       0.0022
     27  CG2      -43.3930   -6.2880   73.7540 C.3    13  VAL13       0.0022
     28  N        -39.5080   -7.1490   69.1350 N.3    16  ASN16      -0.1225
     29  CA       -38.7800   -8.2180   69.7680 C.3    16  ASN16       0.1785
     30  C        -39.5490   -9.1530   70.6840 C.2    16  ASN16       0.2598
     31  O        -39.0150  -10.1430   71.1160 O.2    16  ASN16      -0.2718
     32  CB       -37.5800   -7.6330   70.4870 C.3    16  ASN16       0.1169
     33  CG       -36.4860   -7.2090   69.5400 C.2    16  ASN16       0.2627
     34  OD1      -36.2350   -6.0420   69.3670 O.2    16  ASN16      -0.2716
     35  ND2      -35.8260   -8.1640   68.9360 N.am   16  ASN16      -0.0877
     36  N        -40.8060   -8.8540   70.9520 N.am   17  GLY17      -0.1942
     37  CA       -41.6030   -9.6300   71.8790 C.3    17  GLY17       0.2014
     38  C        -41.2580   -9.3210   73.3340 C.2    17  GLY17       0.2639
     39  O        -40.2710   -8.6610   73.6430 O.2    17  GLY17      -0.2714
     40  N        -42.0770   -9.8180   74.2400 N.am   18  HIS18      -0.1959
     41  CA       -41.7360   -9.7540   75.6710 C.3    18  HIS18       0.1772
     42  C        -41.1140  -11.0840   76.0580 C.2    18  HIS18       0.2462
     43  O        -41.6240  -12.1340   75.6760 O.2    18  HIS18      -0.2730
     44  CB       -42.9870   -9.5120   76.4810 C.3    18  HIS18       0.0785
     45  CG       -42.7390   -8.9350   77.8290 C.ar   18  HIS18       0.0821
     46  ND1      -42.3460   -9.7040   78.8960 N.ar   18  HIS18      -0.2267
     47  CD2      -42.9150   -7.6820   78.3110 C.ar   18  HIS18       0.1154
     48  CE1      -42.2810   -8.9540   79.9770 C.ar   18  HIS18       0.1986
     49  NE2      -42.6250   -7.7210   79.6510 N.ar   18  HIS18      -0.2212
     50  N        -40.0190  -11.0630   76.8040 N.am   19  PRO19      -0.2727
     51  CA       -39.3960  -12.3320   77.1610 C.3    19  PRO19       0.1402
     52  C        -40.2800  -13.2780   77.9370 C.2    19  PRO19       0.2269
     53  O        -40.0880  -14.4780   77.7840 O.2    19  PRO19      -0.2865
     54  CB       -38.1970  -11.9320   78.0050 C.3    19  PRO19       0.0296
     55  CG       -38.3550  -10.4820   78.2680 C.3    19  PRO19       0.0237
     56  CD       -39.1940   -9.9190   77.1750 C.3    19  PRO19       0.0939
     57  N        -42.0660   -4.7000   85.1660 N.3   127  THR127     -0.1218
     58  CA       -41.5200   -3.3380   85.0380 C.3   127  THR127      0.1862
     59  C        -42.3870   -2.2300   85.6460 C.2   127  THR127      0.2287
     60  O        -42.5190   -1.1270   85.0770 O.2   127  THR127     -0.2866
     61  CB       -41.2850   -2.9470   83.5600 C.3   127  THR127      0.1770
     62  OG1      -41.1550   -4.1060   82.7490 O.3   127  THR127     -0.2211
     63  CG2      -40.0410   -2.0850   83.4120 C.3   127  THR127      0.0375
     64  N        -34.2690    0.2030   84.0340 N.3   526  ALA526     -0.1245
     65  CA       -35.2950    0.0130   83.0130 C.3   526  ALA526      0.1562
     66  C        -36.2150    1.2140   82.9760 C.2   526  ALA526      0.2260
     67  O        -36.5110    1.7320   81.9070 O.2   526  ALA526     -0.2867
     68  CB       -36.1050   -1.2410   83.2720 C.3   526  ALA526      0.0290
     69  N        -37.4120    3.1080   79.7120 N.3   530  TYR530     -0.1241
     70  CA       -38.7130    2.8730   79.0780 C.3   530  TYR530      0.1605
     71  C        -39.8740    3.7060   79.6470 C.2   530  TYR530      0.2264
     72  O        -40.9450    3.7510   79.0570 O.2   530  TYR530     -0.2867
     73  CB       -39.0390    1.4000   79.1780 C.3   530  TYR530      0.0534
     74  CG       -38.1360    0.4790   78.3910 C.ar  530  TYR530     -0.0201
     75  CD1      -37.9400    0.6660   77.0390 C.ar  530  TYR530     -0.0009
     76  CD2      -37.5540   -0.6290   78.9850 C.ar  530  TYR530     -0.0009
     77  CE1      -37.1780   -0.2070   76.2920 C.ar  530  TYR530      0.0417
     78  CE2      -36.7740   -1.5080   78.2490 C.ar  530  TYR530      0.0417
     79  CZ       -36.5950   -1.2840   76.8990 C.ar  530  TYR530      0.1957
     80  OH       -35.8310   -2.1320   76.1410 O.3   530  TYR530     -0.2866
     81  N        -48.5370   -3.9640   76.6200 N.3   541  TYR541     -0.1241
     82  CA       -47.4310   -4.3150   77.4960 C.3   541  TYR541      0.1605
     83  C        -46.7080   -5.5790   77.0980 C.2   541  TYR541      0.2264
     84  O        -45.5020   -5.6000   77.0720 O.2   541  TYR541     -0.2867
     85  CB       -47.8490   -4.4300   78.9880 C.3   541  TYR541      0.0534
     86  CG       -46.6190   -4.7360   79.8070 C.ar  541  TYR541     -0.0201
     87  CD1      -45.6780   -3.7460   80.0740 C.ar  541  TYR541     -0.0009
     88  CD2      -46.3040   -6.0200   80.1370 C.ar  541  TYR541     -0.0009
     89  CE1      -44.4970   -4.0280   80.7320 C.ar  541  TYR541      0.0417
     90  CE2      -45.1360   -6.3170   80.8200 C.ar  541  TYR541      0.0417
     91  CZ       -44.2290   -5.3210   81.1210 C.ar  541  TYR541      0.1957
     92  OH       -43.0420   -5.6510   81.7660 O.3   541  TYR541     -0.2866
     93  N        -33.1900   -7.8280   68.5680 N.3   595  ARG595     -0.1245
     94  CA       -32.7410   -8.8160   69.5750 C.3   595  ARG595      0.1563
     95  C        -32.8570  -10.2890   69.1500 C.2   595  ARG595      0.2260
     96  O        -32.4950  -11.1620   69.9250 O.2   595  ARG595     -0.2867
     97  CB       -33.4680   -8.6160   70.9110 C.3   595  ARG595      0.0307
     98  CG       -33.3820   -7.2030   71.4640 C.3   595  ARG595      0.0489
     99  CD       -34.2520   -7.0630   72.6810 C.3   595  ARG595      0.2205
    100  NE       -34.4030   -5.6800   73.1440 N.pl3 595  ARG595     -0.0865
    101  CZ       -33.4410   -4.9470   73.7300 C.cat 595  ARG595      0.5346
    102  NH1      -32.2190   -5.4390   73.9070 N.pl3 595  ARG595      0.1354
    103  NH2      -33.6900   -3.7040   74.1310 N.pl3 595  ARG595      0.1354
@<TRIPOS>BOND
     1    93    94    1
     2    35    33   am
     3    28    29    1
     4    95    94    1
     5    95    96    2
     6    34    33    2
     7    33    32    1
     8    94    97    1
     9    29    32    1
    10    29    30    1
    11    30    36   am
    12    30    31    2
    13    24    23    2
    14    97    98    1
    15    36    37    1
    16    16    15    2
    17    23    22    1
    18    13    14    1
    19    98    99    1
    20    14    15    1
    21    14    17    1
    22    15    21   am
    23    37    38    1
    24    19    18   ar
    25    21    22    1
    26    22    25    1
    27    99   100    1
    28    17    18    1
    29    18    20   ar
    30   100   101    2
    31    26    25    1
    32    38    39    2
    33    38    40   am
    34     4     3    2
    35    25    27    1
    36   101   102    1
    37   101   103    1
    38     3     2    1
    39    40    41    1
    40     1     2    1
    41     2     5    1
    42    41    42    1
    43    41    44    1
    44    43    42    2
    45    42    50   am
    46    80    79    1
    47     5     6    1
    48    77    79   ar
    49    77    75   ar
    50    44    45    1
    51     8     6   ar
    52     8    10   ar
    53    81    82    1
    54     6     7   ar
    55    50    51    1
    56    50    56    1
    57    79    78   ar
    58    10    11   ar
    59    75    74   ar
    60    84    83    2
    61    83    82    1
    62    51    52    1
    63    51    54    1
    64    56    55    1
    65     7     9   ar
    66    82    85    1
    67    11     9   ar
    68    11    12    1
    69    53    52    2
    70    45    47   ar
    71    45    46   ar
    72    54    55    1
    73    78    76   ar
    74    47    49   ar
    75    74    76   ar
    76    74    73    1
    77    46    48   ar
    78    85    86    1
    79    72    71    2
    80    70    73    1
    81    70    71    1
    82    70    69    1
    83    49    48   ar
    84    86    87   ar
    85    86    88   ar
    86    87    89   ar
    87    88    90   ar
    88    89    91   ar
    89    90    91   ar
    90    91    92    1
    91    67    66    2
    92    62    61    1
    93    66    65    1
    94    65    68    1
    95    65    64    1
    96    63    61    1
    97    61    58    1
    98    58    57    1
    99    58    59    1
   100    60    59    2
