@<TRIPOS>MOLECULE
tmp/4mfeC00.pdb
 105 97 0 0 0
SMALL
GASTEIGER

@<TRIPOS>ATOM
      1  N        -54.3390  -10.1830   94.9380 N.3    78  ARG78      -0.1231
      2  CA       -53.0270  -10.6810   95.3810 C.3    78  ARG78       0.1694
      3  C        -52.9370  -12.1960   95.2750 C.2    78  ARG78       0.2592
      4  O        -52.4330  -12.7070   94.2760 O.2    78  ARG78      -0.2718
      5  CB       -52.7320  -10.2210   96.7930 C.3    78  ARG78       0.0321
      6  CG       -51.2790  -10.2180   97.2270 C.3    78  ARG78       0.0489
      7  CD       -50.6380  -11.5810   97.3860 C.3    78  ARG78       0.2205
      8  NE       -51.2880  -12.3960   98.3830 N.pl3  78  ARG78      -0.0865
      9  CZ       -50.8080  -13.5200   98.8840 C.cat  78  ARG78       0.5346
     10  NH1      -51.4980  -14.1640   99.8020 N.pl3  78  ARG78       0.1354
     11  NH2      -49.6500  -14.0150   98.5020 N.pl3  78  ARG78       0.1354
     12  N        -53.4690  -12.9310   96.2410 N.am   79  ASP79      -0.1974
     13  CA       -53.2940  -14.3640   96.2070 C.3    79  ASP79       0.1709
     14  C        -53.8880  -15.0230   95.0080 C.2    79  ASP79       0.2293
     15  O        -53.3050  -16.0000   94.4950 O.2    79  ASP79      -0.2864
     16  CB       -53.8830  -15.0430   97.4340 C.3    79  ASP79       0.1436
     17  CG       -53.0120  -16.1320   97.9780 C.2    79  ASP79       0.3671
     18  OD1      -52.0960  -16.5750   97.2850 O.co2  79  ASP79      -0.2456
     19  OD2      -53.2450  -16.5240   99.1340 O.co2  79  ASP79      -0.2456
     20  N        -51.6090  -14.7040   92.1030 N.3    82  GLN82      -0.1245
     21  CA       -50.3520  -15.3470   92.5320 C.3    82  GLN82       0.1566
     22  C        -50.4500  -16.8490   92.4020 C.2    82  GLN82       0.2260
     23  O        -49.4870  -17.5260   92.0280 O.2    82  GLN82      -0.2867
     24  CB       -49.9890  -14.9540   93.9900 C.3    82  GLN82       0.0367
     25  CG       -48.7530  -15.6360   94.5600 C.3    82  GLN82       0.0905
     26  CD       -48.1990  -15.0040   95.8550 C.2    82  GLN82       0.2608
     27  OE1      -48.3440  -13.8040   96.1290 O.2    82  GLN82      -0.2717
     28  NE2      -47.5130  -15.8040   96.6170 N.am   82  GLN82      -0.0878
     29  N        -46.8670  -10.5670   99.6170 N.3   116  GLY116     -0.1225
     30  CA       -46.6330  -11.8490   99.0090 C.3   116  GLY116      0.1811
     31  C        -45.6180  -11.6790   97.8950 C.2   116  GLY116      0.2280
     32  O        -44.6520  -10.9480   98.0330 O.2   116  GLY116     -0.2866
     33  N        -50.0030   -9.4110  102.7070 N.3   149  LEU149     -0.1245
     34  CA       -49.3260  -10.5170  103.3370 C.3   149  LEU149      0.1561
     35  C        -47.8790  -10.1320  103.6040 C.2   149  LEU149      0.2260
     36  O        -47.1380   -9.7810  102.6740 O.2   149  LEU149     -0.2867
     37  CB       -49.3600  -11.7290  102.4280 C.3   149  LEU149      0.0270
     38  CG       -48.7910  -12.9890  103.0460 C.3   149  LEU149      0.0019
     39  CD1      -49.5370  -13.3740  104.3170 C.3   149  LEU149      0.0001
     40  CD2      -48.8530  -14.1400  102.0790 C.3   149  LEU149      0.0001
     41  N        -44.2750  -11.5730  105.3540 N.3   151  ARG151     -0.1245
     42  CA       -43.6860  -12.8300  105.7880 C.3   151  ARG151      0.1563
     43  C        -42.7580  -12.7180  106.9900 C.2   151  ARG151      0.2260
     44  O        -41.6780  -13.3240  107.0210 O.2   151  ARG151     -0.2867
     45  CB       -42.9090  -13.4270  104.6580 C.3   151  ARG151      0.0307
     46  CG       -43.6730  -13.5450  103.3850 C.3   151  ARG151      0.0489
     47  CD       -42.7440  -14.0780  102.2960 C.3   151  ARG151      0.2205
     48  NE       -43.5020  -14.2190  101.0590 N.pl3 151  ARG151     -0.0865
     49  CZ       -43.0330  -13.9690   99.8590 C.cat 151  ARG151      0.5346
     50  NH1      -41.7740  -13.5500   99.6840 N.pl3 151  ARG151      0.1354
     51  NH2      -43.8490  -14.1180   98.8300 N.pl3 151  ARG151      0.1354
     52  N        -47.0050  -13.5610  109.0960 N.3   184  PHE184     -0.1241
     53  CA       -46.7940  -14.9640  109.4040 C.3   184  PHE184      0.1605
     54  C        -45.3050  -15.2960  109.4380 C.2   184  PHE184      0.2264
     55  O        -44.5060  -14.6530  108.7670 O.2   184  PHE184     -0.2867
     56  CB       -47.5590  -15.8620  108.4050 C.3   184  PHE184      0.0534
     57  CG       -46.8800  -16.0310  107.0750 C.ar  184  PHE184     -0.0203
     58  CD1      -46.0490  -17.1080  106.8430 C.ar  184  PHE184     -0.0042
     59  CD2      -47.0830  -15.1200  106.0490 C.ar  184  PHE184     -0.0042
     60  CE1      -45.4200  -17.2530  105.6160 C.ar  184  PHE184     -0.0003
     61  CE2      -46.4680  -15.2770  104.8200 C.ar  184  PHE184     -0.0003
     62  CZ       -45.6220  -16.3350  104.6140 C.ar  184  PHE184     -0.0000
     63  N        -52.3550  -22.4530  104.0440 N.3   249  MET249     -0.1245
     64  CA       -51.7030  -22.1330  102.7680 C.3   249  MET249      0.1570
     65  C        -51.8010  -23.2400  101.7640 C.2   249  MET249      0.2261
     66  O        -51.8100  -22.9630  100.5410 O.2   249  MET249     -0.2867
     67  CB       -50.2180  -21.7890  102.9630 C.3   249  MET249      0.0387
     68  CG       -49.3670  -22.8310  103.6610 C.3   249  MET249      0.0595
     69  SD       -49.5450  -22.6980  105.4470 S.3   249  MET249     -0.1393
     70  CE       -48.6420  -24.1570  105.9720 C.3   249  MET249      0.0692
     71  N        -56.9710  -22.3420  100.6490 N.3   278  HIS278     -0.1241
     72  CA       -56.8140  -22.5630   99.1900 C.3   278  HIS278      0.1621
     73  C        -57.6550  -23.7980   98.8610 C.2   278  HIS278      0.2264
     74  O        -57.9060  -24.6210   99.7380 O.2   278  HIS278     -0.2867
     75  CB       -55.3240  -22.6640   98.7100 C.3   278  HIS278      0.0745
     76  CG       -54.4920  -21.4480   99.0530 C.ar  278  HIS278      0.0817
     77  ND1      -53.8450  -20.5910   98.1580 N.ar  278  HIS278     -0.2268
     78  CD2      -54.2050  -20.9760  100.2800 C.ar  278  HIS278      0.1154
     79  CE1      -53.2610  -19.6070   98.8570 C.ar  278  HIS278      0.1986
     80  NE2      -53.4650  -19.8420  100.1320 N.ar  278  HIS278     -0.2212
     81  N        -48.1470  -25.7730   99.4350 N.3   370  PRO370     -0.2116
     82  CA       -48.9480  -24.5500   99.3260 C.3   370  PRO370      0.1372
     83  C        -49.5260  -24.2920   97.9330 C.2   370  PRO370      0.2244
     84  O        -48.8610  -24.5270   96.9640 O.2   370  PRO370     -0.2868
     85  CB       -47.9410  -23.4400   99.6830 C.3   370  PRO370      0.0268
     86  CG       -46.9590  -24.1000  100.5210 C.3   370  PRO370      0.0207
     87  CD       -46.7990  -25.4670   99.9230 C.3   370  PRO370      0.0892
     88  N        -49.9350  -21.4200   96.1670 N.3   372  GLY372     -0.1225
     89  CA       -49.0180  -20.5510   95.4170 C.3   372  GLY372      0.1811
     90  C        -47.6070  -21.1060   95.1270 C.2   372  GLY372      0.2280
     91  O        -46.7040  -20.3720   94.6910 O.2   372  GLY372     -0.2866
     92  N        -44.3540  -23.2070  104.0520 N.3   410  VAL410     -0.1231
     93  CA       -44.8890  -21.9980  103.4680 C.3   410  VAL410      0.1692
     94  C        -43.7060  -21.0830  103.1180 C.2   410  VAL410      0.2592
     95  O        -42.5890  -21.3100  103.5500 O.2   410  VAL410     -0.2718
     96  CB       -45.9150  -21.3850  104.4460 C.3   410  VAL410      0.0266
     97  CG1      -45.2470  -20.9400  105.7520 C.3   410  VAL410      0.0020
     98  CG2      -46.6790  -20.2410  103.8380 C.3   410  VAL410      0.0020
     99  N        -43.9180  -20.0910  102.2770 N.am  411  THR411     -0.1953
    100  CA       -42.8240  -19.2570  101.8140 C.3   411  THR411      0.1897
    101  C        -42.1450  -18.6690  103.0230 C.2   411  THR411      0.2313
    102  O        -42.7830  -17.9710  103.8010 O.2   411  THR411     -0.2863
    103  CB       -43.3310  -18.0970  100.9250 C.3   411  THR411      0.1794
    104  OG1      -44.2470  -18.6170   99.9660 O.3   411  THR411     -0.2208
    105  CG2      -42.1770  -17.3740  100.1920 C.3   411  THR411      0.0378
@<TRIPOS>BOND
     1    23    22    2
     2    20    21    1
     3    22    21    1
     4    21    24    1
     5    24    25    1
     6     4     3    2
     7    15    14    2
     8    25    26    1
     9    91    90    2
    10     1     2    1
    11    14    13    1
    12    90    89    1
    13     3     2    1
    14     3    12   am
    15     2     5    1
    16    89    88    1
    17    26    27    2
    18    26    28   am
    19    13    12    1
    20    13    16    1
    21     5     6    1
    22    84    83    2
    23     6     7    1
    24    18    17   ar
    25     7     8    1
    26    16    17    1
    27    31    32    2
    28    31    30    1
    29    83    82    1
    30    17    19   ar
    31    77    79   ar
    32    77    76   ar
    33     8     9    2
    34    11     9    1
    35    75    76    1
    36    75    72    1
    37    51    49    1
    38    79    80   ar
    39    73    72    1
    40    73    74    2
    41     9    10    1
    42    30    29    1
    43    76    78   ar
    44    72    71    1
    45    82    81    1
    46    82    85    1
    47    81    87    1
    48    85    86    1
    49    50    49    1
    50    49    48    2
    51    87    86    1
    52   104   103    1
    53    80    78   ar
    54   105   103    1
    55    66    65    2
    56   103   100    1
    57    48    47    1
    58    65    64    1
    59   100    99    1
    60   100   101    1
    61    40    38    1
    62    99    94   am
    63    47    46    1
    64    37    38    1
    65    37    34    1
    66    36    35    2
    67    33    34    1
    68    64    67    1
    69    64    63    1
    70    67    68    1
    71   101   102    2
    72    38    39    1
    73    94    93    1
    74    94    95    2
    75    34    35    1
    76    46    45    1
    77    93    92    1
    78    93    96    1
    79    68    69    1
    80    98    96    1
    81    96    97    1
    82    62    61   ar
    83    62    60   ar
    84    45    42    1
    85    61    59   ar
    86    41    42    1
    87    69    70    1
    88    60    58   ar
    89    42    43    1
    90    59    57   ar
    91    58    57   ar
    92    43    44    2
    93    57    56    1
    94    56    53    1
    95    55    54    2
    96    52    53    1
    97    53    54    1
