@<TRIPOS>MOLECULE
tmp/4mflA00.pdb
 149 145 0 0 0
SMALL
GASTEIGER

@<TRIPOS>ATOM
      1  N         38.4550  -47.8920   15.6100 N.3    90  ARG90      -0.1245
      2  CA        37.9960  -47.4310   16.9290 C.3    90  ARG90       0.1563
      3  C         38.3160  -45.9540   17.2060 C.2    90  ARG90       0.2260
      4  O         37.7190  -45.3320   18.0940 O.2    90  ARG90      -0.2867
      5  CB        38.5030  -48.3560   18.0360 C.3    90  ARG90       0.0307
      6  CG        37.7890  -49.7190   18.0040 C.3    90  ARG90       0.0489
      7  CD        38.3340  -50.6960   19.0430 C.3    90  ARG90       0.2205
      8  NE        37.6370  -51.9880   19.0020 N.pl3  90  ARG90      -0.0865
      9  CZ        38.0580  -53.0320   18.2930 C.cat  90  ARG90       0.5346
     10  NH1       39.1650  -52.9460   17.5760 N.pl3  90  ARG90       0.1354
     11  NH2       37.3850  -54.1650   18.3090 N.pl3  90  ARG90       0.1354
     12  N         38.0260  -42.0030   16.5190 N.3    92  LYS92      -0.1231
     13  CA        37.0450  -41.0630   15.9450 C.3    92  LYS92       0.1678
     14  C         37.5890  -40.4630   14.6380 C.2    92  LYS92       0.2434
     15  O         38.8150  -40.3520   14.4760 O.2    92  LYS92      -0.2733
     16  CB        36.7250  -39.9350   16.9290 C.3    92  LYS92       0.0284
     17  CG        35.9490  -40.3650   18.1690 C.3    92  LYS92       0.0035
     18  CD        35.7200  -39.1740   19.0910 C.3    92  LYS92       0.0206
     19  CE        34.7910  -39.5250   20.2520 C.3    92  LYS92       0.1093
     20  NZ        33.3720  -39.7030   19.8180 N.3    92  LYS92      -0.1314
     21  N         36.6880  -40.1070   13.7010 N.am   93  PRO93      -0.2718
     22  CA        37.0880  -39.5740   12.3890 C.3    93  PRO93       0.1535
     23  C         37.4500  -38.0790   12.4610 C.2    93  PRO93       0.2598
     24  O         36.6850  -37.2250   12.0010 O.2    93  PRO93      -0.2715
     25  CB        35.8340  -39.7740   11.5360 C.3    93  PRO93       0.0310
     26  CG        34.6980  -39.7170   12.5130 C.3    93  PRO93       0.0237
     27  CD        35.2250  -40.2990   13.7960 C.3    93  PRO93       0.0939
     28  N         38.6190  -37.7650   12.9890 N.am   94  ARG94      -0.1978
     29  CA        38.9790  -36.3470   13.1530 C.3    94  ARG94       0.1597
     30  C         39.9210  -35.9140   12.0260 C.2    94  ARG94       0.2287
     31  O         41.0900  -36.2860   11.9840 O.2    94  ARG94      -0.2864
     32  CB        39.5210  -36.0860   14.5600 C.3    94  ARG94       0.0334
     33  CG        38.4740  -36.4050   15.6320 C.3    94  ARG94       0.0492
     34  CD        38.8940  -35.9190   17.0180 C.3    94  ARG94       0.2205
     35  NE        40.0900  -36.6340   17.4620 N.pl3  94  ARG94      -0.0865
     36  CZ        41.0430  -36.1140   18.2330 C.cat  94  ARG94       0.5346
     37  NH1       40.9410  -34.8670   18.6740 N.pl3  94  ARG94       0.1354
     38  NH2       42.0990  -36.8510   18.5720 N.pl3  94  ARG94       0.1354
     39  N         34.4670  -32.2130    3.3610 N.3   161  MET161     -0.1245
     40  CA        34.0500  -33.4680    4.0080 C.3   161  MET161      0.1570
     41  C         35.2510  -34.2920    4.4840 C.2   161  MET161      0.2261
     42  O         35.2570  -35.5190    4.3840 O.2   161  MET161     -0.2867
     43  CB        33.2000  -34.2990    3.0470 C.3   161  MET161      0.0387
     44  CG        32.2260  -33.4640    2.2380 C.3   161  MET161      0.0595
     45  SD        30.6680  -34.2880    1.9110 S.3   161  MET161     -0.1393
     46  CE        30.3030  -33.6710    0.2790 C.3   161  MET161      0.0692
     47  N         36.1900  -35.0960    7.4160 N.3   163  TRP163     -0.1227
     48  CA        35.9210  -36.0920    8.4690 C.3   163  TRP163      0.1737
     49  C         35.6150  -37.4300    7.8220 C.2   163  TRP163      0.2595
     50  O         36.0630  -38.4550    8.3070 O.2   163  TRP163     -0.2718
     51  CB        34.8030  -35.6480    9.4040 C.3   163  TRP163      0.0564
     52  CG        33.5110  -35.4930    8.6850 C.ar  163  TRP163      0.0003
     53  CD1       33.0200  -34.3600    8.0470 C.ar  163  TRP163      0.0946
     54  CD2       32.5030  -36.5230    8.4660 C.ar  163  TRP163      0.0152
     55  NE1       31.8030  -34.6120    7.4700 N.ar  163  TRP163     -0.2442
     56  CE2       31.4300  -35.8840    7.6920 C.ar  163  TRP163      0.0810
     57  CE3       32.3790  -37.8470    8.8250 C.ar  163  TRP163      0.0012
     58  CZ2       30.3080  -36.5690    7.3030 C.ar  163  TRP163      0.0191
     59  CZ3       31.2260  -38.5370    8.4250 C.ar  163  TRP163      0.0001
     60  CH2       30.2250  -37.9070    7.6760 C.ar  163  TRP163      0.0015
     61  N         34.9140  -37.4020    6.6930 N.am  164  TRP164     -0.1976
     62  CA        34.5330  -38.6290    5.9790 C.3   164  TRP164      0.1640
     63  C         35.7000  -39.2660    5.2690 C.2   164  TRP164      0.2290
     64  O         35.9060  -40.4940    5.3410 O.2   164  TRP164     -0.2864
     65  CB        33.3770  -38.3170    5.0360 C.3   164  TRP164      0.0576
     66  CG        32.8720  -39.4980    4.2500 C.ar  164  TRP164      0.0006
     67  CD1       32.8310  -39.6450    2.8640 C.ar  164  TRP164      0.0946
     68  CD2       32.3290  -40.7440    4.7890 C.ar  164  TRP164      0.0152
     69  NE1       32.3040  -40.8580    2.5140 N.ar  164  TRP164     -0.2442
     70  CE2       31.9700  -41.5680    3.6300 C.ar  164  TRP164      0.0810
     71  CE3       32.0860  -41.2280    6.0740 C.ar  164  TRP164      0.0012
     72  CZ2       31.4060  -42.8370    3.7710 C.ar  164  TRP164      0.0191
     73  CZ3       31.5240  -42.5130    6.2100 C.ar  164  TRP164      0.0001
     74  CH2       31.1900  -43.2940    5.0850 C.ar  164  TRP164      0.0015
     75  N         38.0310  -42.0250    6.7880 N.3   167  TYR167     -0.1241
     76  CA        37.7610  -43.4750    6.6880 C.3   167  TYR167      0.1605
     77  C         38.5430  -44.0990    5.5260 C.2   167  TYR167      0.2264
     78  O         39.2060  -45.1360    5.6830 O.2   167  TYR167     -0.2867
     79  CB        36.2650  -43.7440    6.5060 C.3   167  TYR167      0.0534
     80  CG        35.3920  -43.5270    7.7270 C.ar  167  TYR167     -0.0201
     81  CD1       34.9800  -42.2450    8.1080 C.ar  167  TYR167     -0.0009
     82  CD2       34.9500  -44.6140    8.5010 C.ar  167  TYR167     -0.0009
     83  CE1       34.1660  -42.0480    9.2260 C.ar  167  TYR167      0.0417
     84  CE2       34.1420  -44.4250    9.6290 C.ar  167  TYR167      0.0417
     85  CZ        33.7550  -43.1440    9.9840 C.ar  167  TYR167      0.1957
     86  OH        32.9440  -42.9540   11.0830 O.3   167  TYR167     -0.2866
     87  N         27.9810  -50.5500   19.9710 N.3   187  LYS187     -0.1245
     88  CA        28.2720  -50.0290   21.3140 C.3   187  LYS187      0.1561
     89  C         28.8510  -51.1130   22.1980 C.2   187  LYS187      0.2260
     90  O         29.7350  -50.8580   23.0170 O.2   187  LYS187     -0.2867
     91  CB        27.0020  -49.4790   21.9680 C.3   187  LYS187      0.0271
     92  CG        26.5200  -48.1470   21.4110 C.3   187  LYS187      0.0035
     93  CD        25.2500  -47.6880   22.1310 C.3   187  LYS187      0.0206
     94  CE        24.5070  -46.5950   21.3710 C.3   187  LYS187      0.1093
     95  NZ        25.3730  -45.4200   21.0740 N.3   187  LYS187     -0.1314
     96  N         22.5280  -46.1930    8.8240 N.3   235  SER235     -0.1217
     97  CA        21.6640  -45.1230    9.3270 C.3   235  SER235      0.1889
     98  C         21.4910  -44.1630    8.1760 C.2   235  SER235      0.2288
     99  O         22.4700  -43.6830    7.6250 O.2   235  SER235     -0.2866
    100  CB        22.3010  -44.3740   10.4910 C.3   235  SER235      0.2089
    101  OG        22.5550  -45.2580   11.5570 O.3   235  SER235     -0.2183
    102  N         15.5550  -33.3360   13.4710 N.3   273  ASP273     -0.1239
    103  CA        16.9800  -33.6340   13.2260 C.3   273  ASP273      0.1674
    104  C         17.2940  -34.2290   11.8490 C.2   273  ASP273      0.2266
    105  O         18.3650  -33.9740   11.2850 O.2   273  ASP273     -0.2867
    106  CB        17.5300  -34.5780   14.3010 C.3   273  ASP273      0.1410
    107  CG        17.5790  -33.9430   15.6780 C.2   273  ASP273      0.3668
    108  OD1       17.1200  -32.7910   15.8480 O.co2 273  ASP273     -0.2456
    109  OD2       18.0810  -34.6140   16.6010 O.co2 273  ASP273     -0.2456
    110  N         17.8310  -32.0510    7.9480 N.3   276  SER276     -0.1202
    111  CA        19.0580  -31.5450    7.3160 C.3   276  SER276      0.2020
    112  C         19.7840  -32.6400    6.5150 C.2   276  SER276      0.2619
    113  O         20.4490  -32.3540    5.5220 O.2   276  SER276     -0.2717
    114  CB        19.9770  -30.8480    8.3240 C.3   276  SER276      0.2103
    115  OG        20.1130  -31.6180    9.4970 O.3   276  SER276     -0.2182
    116  N         19.6140  -33.8950    6.9260 N.am  277  SER277     -0.1951
    117  CA        20.2530  -35.0160    6.2390 C.3   277  SER277      0.1924
    118  C         19.6290  -35.2210    4.8630 C.2   277  SER277      0.2314
    119  O         20.3270  -35.2120    3.8260 O.2   277  SER277     -0.2863
    120  CB        20.1330  -36.2880    7.0830 C.3   277  SER277      0.2116
    121  OG        20.7860  -37.3690    6.4310 O.3   277  SER277     -0.2180
    122  N         20.5100  -32.2720    2.5960 N.3   280  GLU280     -0.1231
    123  CA        21.8980  -32.4290    2.0850 C.3   280  GLU280      0.1699
    124  C         21.9480  -33.4340    0.9400 C.2   280  GLU280      0.2592
    125  O         22.4060  -33.1070   -0.1620 O.2   280  GLU280     -0.2718
    126  CB        22.8730  -32.8360    3.1920 C.3   280  GLU280      0.0402
    127  CG        24.2470  -33.3030    2.6860 C.3   280  GLU280      0.1161
    128  CD        25.0860  -32.1850    2.0900 C.2   280  GLU280      0.3649
    129  OE1       24.7550  -31.0090    2.3130 O.co2 280  GLU280     -0.2457
    130  OE2       26.0660  -32.4800    1.3760 O.co2 280  GLU280     -0.2457
    131  N         21.4550  -34.6580    1.1630 N.am  281  PHE281     -0.1976
    132  CA        21.5910  -35.6750    0.1140 C.3   281  PHE281      0.1639
    133  C         20.7480  -35.5230   -1.1290 C.2   281  PHE281      0.2290
    134  O         21.1490  -35.9990   -2.1950 O.2   281  PHE281     -0.2864
    135  CB        21.5040  -37.0840    0.7010 C.3   281  PHE281      0.0560
    136  CG        22.6670  -37.4030    1.5510 C.ar  281  PHE281     -0.0200
    137  CD1       23.9260  -37.6030    0.9610 C.ar  281  PHE281     -0.0042
    138  CD2       22.5500  -37.4220    2.9310 C.ar  281  PHE281     -0.0042
    139  CE1       25.0400  -37.8540    1.7440 C.ar  281  PHE281     -0.0003
    140  CE2       23.6590  -37.6770    3.7240 C.ar  281  PHE281     -0.0003
    141  CZ        24.9010  -37.9000    3.1260 C.ar  281  PHE281     -0.0000
    142  N         16.2110  -39.8050   10.0370 N.3   315  MET315     -0.1245
    143  CA        17.1890  -40.8580    9.8270 C.3   315  MET315      0.1570
    144  C         16.6760  -42.0860   10.5650 C.2   315  MET315      0.2261
    145  O         16.2090  -41.9820   11.7000 O.2   315  MET315     -0.2867
    146  CB        18.5630  -40.4640   10.3750 C.3   315  MET315      0.0387
    147  CG        19.6510  -41.4590   10.0000 C.3   315  MET315      0.0595
    148  SD        21.3210  -40.7820   10.0640 S.3   315  MET315     -0.1393
    149  CE        21.0630  -39.2140    9.2440 C.3   315  MET315      0.0692
@<TRIPOS>BOND
     1   134   133    2
     2   133   132    1
     3   125   124    2
     4   132   135    1
     5   132   131    1
     6    46    45    1
     7   135   136    1
     8   124   131   am
     9   124   123    1
    10   137   136   ar
    11   137   139   ar
    12   130   128   ar
    13   136   138   ar
    14   139   141   ar
    15    45    44    1
    16   123   122    1
    17   123   126    1
    18   128   129   ar
    19   128   127    1
    20    44    43    1
    21    69    67   ar
    22    69    70   ar
    23   127   126    1
    24    67    66   ar
    25   138   140   ar
    26    43    40    1
    27   141   140   ar
    28    39    40    1
    29    70    72   ar
    30    70    68   ar
    31    72    74   ar
    32   119   118    2
    33    40    41    1
    34    66    68   ar
    35    66    65    1
    36    42    41    2
    37    68    71   ar
    38   118   117    1
    39    65    62    1
    40    74    73   ar
    41    63    64    2
    42    63    62    1
    43   113   112    2
    44    77    78    2
    45    77    76    1
    46    62    61    1
    47    71    73   ar
    48   117   116    1
    49   117   120    1
    50   121   120    1
    51    79    76    1
    52    79    80    1
    53   112   116   am
    54   112   111    1
    55    76    75    1
    56    61    49   am
    57    58    60   ar
    58    58    56   ar
    59   111   110    1
    60   111   114    1
    61    47    48    1
    62    55    56   ar
    63    55    53   ar
    64    99    98    2
    65    60    59   ar
    66    56    54   ar
    67    80    81   ar
    68    80    82   ar
    69    49    50    2
    70    49    48    1
    71    53    52   ar
    72    81    83   ar
    73    98    97    1
    74   114   115    1
    75    59    57   ar
    76    54    52   ar
    77    54    57   ar
    78    48    51    1
    79    82    84   ar
    80    52    51    1
    81    96    97    1
    82    83    85   ar
    83   149   148    1
    84    97   100    1
    85    84    85   ar
    86   143   142    1
    87   143   146    1
    88   143   144    1
    89    85    86    1
    90   147   148    1
    91   147   146    1
    92   100   101    1
    93   144   145    2
    94   105   104    2
    95    25    22    1
    96    25    26    1
    97   104   103    1
    98    31    30    2
    99    24    23    2
   100    30    29    1
   101    22    23    1
   102    22    21    1
   103    23    28   am
   104    26    27    1
   105    28    29    1
   106    29    32    1
   107   103   102    1
   108   103   106    1
   109    21    27    1
   110    21    14   am
   111   106   107    1
   112    15    14    2
   113    32    33    1
   114    14    13    1
   115     1     2    1
   116    33    34    1
   117   107   108   ar
   118   107   109   ar
   119    13    12    1
   120    13    16    1
   121     2     3    1
   122     2     5    1
   123    16    17    1
   124    34    35    1
   125     3     4    2
   126    35    36    2
   127    10     9    1
   128     6     5    1
   129     6     7    1
   130    17    18    1
   131    36    38    1
   132    36    37    1
   133     9    11    1
   134     9     8    2
   135     8     7    1
   136    18    19    1
   137    20    19    1
   138    87    88    1
   139    95    94    1
   140    88    91    1
   141    88    89    1
   142    94    93    1
   143    92    91    1
   144    92    93    1
   145    89    90    2
