@<TRIPOS>MOLECULE
tmp/4mflA02.pdb
 116 116 0 0 0
SMALL
GASTEIGER

@<TRIPOS>ATOM
      1  N         39.6600  -48.5490   13.2690 N.3    89  HIS89      -0.1241
      2  CA        38.2710  -48.0590   13.1930 C.3    89  HIS89       0.1621
      3  C         37.7070  -47.6640   14.5280 C.2    89  HIS89       0.2264
      4  O         36.5890  -47.1540   14.5900 O.2    89  HIS89      -0.2867
      5  CB        37.3570  -49.1050   12.5610 C.3    89  HIS89       0.0745
      6  CG        37.3610  -50.4220   13.2970 C.ar   89  HIS89       0.0817
      7  ND1       38.1720  -51.4350   12.9630 N.ar   89  HIS89      -0.2268
      8  CD2       36.6510  -50.8420   14.4180 C.ar   89  HIS89       0.1154
      9  CE1       37.9840  -52.4620   13.8160 C.ar   89  HIS89       0.1986
     10  NE2       37.0450  -52.1010   14.6940 N.ar   89  HIS89      -0.2212
     11  N         34.9140  -37.4020    6.6930 N.3   164  TRP164     -0.1241
     12  CA        34.5330  -38.6290    5.9790 C.3   164  TRP164      0.1605
     13  C         35.7000  -39.2660    5.2690 C.2   164  TRP164      0.2264
     14  O         35.9060  -40.4940    5.3410 O.2   164  TRP164     -0.2867
     15  CB        33.3770  -38.3170    5.0360 C.3   164  TRP164      0.0550
     16  CG        32.8720  -39.4980    4.2500 C.ar  164  TRP164      0.0003
     17  CD1       32.8310  -39.6450    2.8640 C.ar  164  TRP164      0.0946
     18  CD2       32.3290  -40.7440    4.7890 C.ar  164  TRP164      0.0152
     19  NE1       32.3040  -40.8580    2.5140 N.ar  164  TRP164     -0.2442
     20  CE2       31.9700  -41.5680    3.6300 C.ar  164  TRP164      0.0810
     21  CE3       32.0860  -41.2280    6.0740 C.ar  164  TRP164      0.0012
     22  CZ2       31.4060  -42.8370    3.7710 C.ar  164  TRP164      0.0191
     23  CZ3       31.5240  -42.5130    6.2100 C.ar  164  TRP164      0.0001
     24  CH2       31.1900  -43.2940    5.0850 C.ar  164  TRP164      0.0015
     25  N         38.0310  -42.0250    6.7880 N.3   167  TYR167     -0.1241
     26  CA        37.7610  -43.4750    6.6880 C.3   167  TYR167      0.1605
     27  C         38.5430  -44.0990    5.5260 C.2   167  TYR167      0.2264
     28  O         39.2060  -45.1360    5.6830 O.2   167  TYR167     -0.2867
     29  CB        36.2650  -43.7440    6.5060 C.3   167  TYR167      0.0534
     30  CG        35.3920  -43.5270    7.7270 C.ar  167  TYR167     -0.0201
     31  CD1       34.9800  -42.2450    8.1080 C.ar  167  TYR167     -0.0009
     32  CD2       34.9500  -44.6140    8.5010 C.ar  167  TYR167     -0.0009
     33  CE1       34.1660  -42.0480    9.2260 C.ar  167  TYR167      0.0417
     34  CE2       34.1420  -44.4250    9.6290 C.ar  167  TYR167      0.0417
     35  CZ        33.7550  -43.1440    9.9840 C.ar  167  TYR167      0.1957
     36  OH        32.9440  -42.9540   11.0830 O.3   167  TYR167     -0.2866
     37  N         32.4210  -50.1950    5.7340 N.3   182  SER182     -0.1202
     38  CA        33.4810  -49.8310    6.6710 C.3   182  SER182      0.2020
     39  C         33.5810  -50.8630    7.8130 C.2   182  SER182      0.2619
     40  O         32.5740  -51.4210    8.2560 O.2   182  SER182     -0.2717
     41  CB        33.2320  -48.4160    7.2290 C.3   182  SER182      0.2103
     42  OG        31.9800  -48.3830    7.9070 O.3   182  SER182     -0.2182
     43  N         34.7940  -51.1140    8.2780 N.am  183  LEU183     -0.1965
     44  CA        34.9800  -51.8460    9.5320 C.3   183  LEU183      0.1728
     45  C         34.3710  -51.0110   10.6460 C.2   183  LEU183      0.2616
     46  O         34.6830  -49.8240   10.7940 O.2   183  LEU183     -0.2715
     47  CB        36.4660  -52.0200    9.7970 C.3   183  LEU183      0.0311
     48  CG        37.3050  -52.7730    8.7750 C.3   183  LEU183      0.0022
     49  CD1       38.7750  -52.5350    9.1230 C.3   183  LEU183      0.0001
     50  CD2       36.9550  -54.2490    8.8590 C.3   183  LEU183      0.0001
     51  N         33.4890  -51.6230   11.4250 N.am  184  ALA184     -0.1963
     52  CA        32.7810  -50.8950   12.4640 C.3   184  ALA184      0.1728
     53  C         32.4720  -51.8400   13.6260 C.2   184  ALA184      0.2617
     54  O         32.5960  -53.0630   13.5060 O.2   184  ALA184     -0.2715
     55  CB        31.4990  -50.2970   11.8950 C.3   184  ALA184      0.0334
     56  N         32.1080  -51.2640   14.7650 N.am  185  THR185     -0.1937
     57  CA        31.6740  -52.0570   15.9120 C.3   185  THR185      0.2028
     58  C         30.4610  -51.3890   16.5290 C.2   185  THR185      0.2643
     59  O         30.2930  -50.1540   16.4550 O.2   185  THR185     -0.2714
     60  CB        32.7590  -52.1700   16.9960 C.3   185  THR185      0.1808
     61  OG1       33.1010  -50.8530   17.4270 O.3   185  THR185     -0.2208
     62  CG2       34.0070  -52.8820   16.4670 C.3   185  THR185      0.0379
     63  N         29.5950  -52.1960   17.1140 N.am  186  GLY186     -0.1939
     64  CA        28.4660  -51.6450   17.8590 C.3   186  GLY186      0.2014
     65  C         28.9230  -51.1110   19.2100 C.2   186  GLY186      0.2638
     66  O         30.1010  -51.2190   19.5690 O.2   186  GLY186     -0.2714
     67  N         27.9810  -50.5500   19.9710 N.am  187  LYS187     -0.1977
     68  CA        28.2720  -50.0290   21.3140 C.3   187  LYS187      0.1596
     69  C         28.8510  -51.1130   22.1980 C.2   187  LYS187      0.2287
     70  O         29.7350  -50.8580   23.0170 O.2   187  LYS187     -0.2864
     71  CB        27.0020  -49.4790   21.9680 C.3   187  LYS187      0.0298
     72  CG        26.5200  -48.1470   21.4110 C.3   187  LYS187      0.0038
     73  CD        25.2500  -47.6880   22.1310 C.3   187  LYS187      0.0206
     74  CE        24.5070  -46.5950   21.3710 C.3   187  LYS187      0.1093
     75  NZ        25.3730  -45.4200   21.0740 N.3   187  LYS187     -0.1314
     76  N         30.6250  -55.1750   13.0170 N.3   192  HIS192     -0.1241
     77  CA        29.7110  -55.1960   11.8750 C.3   192  HIS192      0.1621
     78  C         30.3460  -54.4350   10.7360 C.2   192  HIS192      0.2264
     79  O         31.4540  -53.9310   10.8840 O.2   192  HIS192     -0.2867
     80  CB        28.3190  -54.6520   12.2140 C.3   192  HIS192      0.0745
     81  CG        28.3000  -53.2120   12.6790 C.ar  192  HIS192      0.0817
     82  ND1       28.0140  -52.8690   13.9600 N.ar  192  HIS192     -0.2268
     83  CD2       28.4770  -52.0130   11.9810 C.ar  192  HIS192      0.1154
     84  CE1       28.0530  -51.5190   14.0880 C.ar  192  HIS192      0.1986
     85  NE2       28.3340  -50.9930   12.8760 N.ar  192  HIS192     -0.2212
     86  N         29.7620  -51.1460    8.3540 N.3   194  GLY194     -0.1210
     87  CA        28.9110  -49.9760    8.1760 C.3   194  GLY194      0.1956
     88  C         28.6710  -49.8290    6.6730 C.2   194  GLY194      0.2612
     89  O         29.6080  -49.7870    5.8950 O.2   194  GLY194     -0.2717
     90  N         27.4280  -49.7340    6.2550 N.am  195  LEU195     -0.1965
     91  CA        27.1750  -49.6450    4.8050 C.3   195  LEU195      0.1728
     92  C         26.9740  -48.1830    4.4110 C.2   195  LEU195      0.2616
     93  O         26.3260  -47.4370    5.1370 O.2   195  LEU195     -0.2715
     94  CB        25.9620  -50.5090    4.4450 C.3   195  LEU195      0.0311
     95  CG        25.5900  -50.7790    2.9790 C.3   195  LEU195      0.0022
     96  CD1       24.7290  -52.0270    2.9740 C.3   195  LEU195      0.0001
     97  CD2       24.8220  -49.6060    2.3780 C.3   195  LEU195      0.0001
     98  N         27.5360  -47.7550    3.2810 N.am  196  ALA196     -0.1977
     99  CA        27.2720  -46.3970    2.7970 C.3   196  ALA196      0.1597
    100  C         27.0770  -46.4280    1.2820 C.2   196  ALA196      0.2287
    101  O         27.4940  -47.3830    0.6030 O.2   196  ALA196     -0.2864
    102  CB        28.3810  -45.4150    3.2080 C.3   196  ALA196      0.0319
    103  N         25.1460  -52.6270    8.9660 N.3   233  TRP233     -0.1241
    104  CA        24.2870  -51.6470    9.6160 C.3   233  TRP233      0.1605
    105  C         24.3160  -50.3720    8.8390 C.2   233  TRP233      0.2264
    106  O         25.3620  -49.9890    8.3120 O.2   233  TRP233     -0.2867
    107  CB        24.7610  -51.3760   11.0380 C.3   233  TRP233      0.0550
    108  CG        24.4020  -52.4720   12.0150 C.ar  233  TRP233      0.0003
    109  CD1       25.1280  -53.6230   12.3020 C.ar  233  TRP233      0.0946
    110  CD2       23.2160  -52.5520   12.8760 C.ar  233  TRP233      0.0152
    111  NE1       24.4900  -54.3880   13.2470 N.ar  233  TRP233     -0.2442
    112  CE2       23.3340  -53.8080   13.6250 C.ar  233  TRP233      0.0810
    113  CE3       22.1020  -51.7490   13.0830 C.ar  233  TRP233      0.0012
    114  CZ2       22.3800  -54.2060   14.5470 C.ar  233  TRP233      0.0191
    115  CZ3       21.1460  -52.1700   14.0000 C.ar  233  TRP233      0.0001
    116  CH2       21.2850  -53.3660   14.7200 C.ar  233  TRP233      0.0015
@<TRIPOS>BOND
     1   101   100    2
     2   100    99    1
     3    97    95    1
     4    19    17   ar
     5    19    20   ar
     6    99   102    1
     7    99    98    1
     8    17    16   ar
     9    96    95    1
    10    95    94    1
    11    98    92   am
    12    20    22   ar
    13    20    18   ar
    14    22    24   ar
    15    16    18   ar
    16    16    15    1
    17    92    91    1
    18    92    93    2
    19    94    91    1
    20    18    21   ar
    21    91    90    1
    22    15    12    1
    23    24    23   ar
    24    13    14    2
    25    13    12    1
    26    27    28    2
    27    27    26    1
    28    37    38    1
    29    89    88    2
    30    12    11    1
    31    21    23   ar
    32    90    88   am
    33    29    26    1
    34    29    30    1
    35    38    41    1
    36    38    39    1
    37    88    87    1
    38    26    25    1
    39    41    42    1
    40    30    31   ar
    41    30    32   ar
    42    39    40    2
    43    39    43   am
    44    31    33   ar
    45    87    86    1
    46    43    44    1
    47   106   105    2
    48    32    34   ar
    49    48    50    1
    50    48    49    1
    51    48    47    1
    52   105   104    1
    53   103   104    1
    54    33    35   ar
    55    44    47    1
    56    44    45    1
    57   104   107    1
    58    34    35   ar
    59    35    36    1
    60    45    46    2
    61    45    51   am
    62    78    79    2
    63    78    77    1
    64   107   108    1
    65    51    52    1
    66    77    80    1
    67    77    76    1
    68    55    52    1
    69    83    81   ar
    70    83    85   ar
    71   108   109   ar
    72   108   110   ar
    73    80    81    1
    74   109   111   ar
    75    52    53    1
    76     5     2    1
    77     5     6    1
    78    81    82   ar
    79   110   113   ar
    80   110   112   ar
    81    85    84   ar
    82     7     6   ar
    83     7     9   ar
    84   113   115   ar
    85     2     1    1
    86     2     3    1
    87   111   112   ar
    88     6     8   ar
    89    54    53    2
    90   112   114   ar
    91    53    56   am
    92     9    10   ar
    93    82    84   ar
    94   115   116   ar
    95     8    10   ar
    96     3     4    2
    97   114   116   ar
    98    56    57    1
    99    57    58    1
   100    57    60    1
   101    59    58    2
   102    62    60    1
   103    58    63   am
   104    60    61    1
   105    63    64    1
   106    64    65    1
   107    65    66    2
   108    65    67   am
   109    67    68    1
   110    75    74    1
   111    68    71    1
   112    68    69    1
   113    74    73    1
   114    72    71    1
   115    72    73    1
   116    69    70    2
