@<TRIPOS>MOLECULE
tmp/4mflA03.pdb
 132 129 0 0 0
SMALL
GASTEIGER

@<TRIPOS>ATOM
      1  N         36.2990  -41.5510   -4.3530 N.3   142  GLN142     -0.1245
      2  CA        35.2760  -40.6630   -3.7830 C.3   142  GLN142      0.1566
      3  C         35.8460  -39.2590   -3.5480 C.2   142  GLN142      0.2260
      4  O         35.0880  -38.3040   -3.4140 O.2   142  GLN142     -0.2867
      5  CB        34.6000  -41.2070   -2.5150 C.3   142  GLN142      0.0367
      6  CG        33.2610  -40.4880   -2.2960 C.3   142  GLN142      0.0905
      7  CD        32.4310  -41.0220   -1.1520 C.2   142  GLN142      0.2608
      8  OE1       32.9580  -41.5610   -0.2090 O.2   142  GLN142     -0.2717
      9  NE2       31.1080  -40.8150   -1.2200 N.am  142  GLN142     -0.0878
     10  N         33.5670  -35.8820   -3.9160 N.3   146  LEU146     -0.1245
     11  CA        33.4000  -34.9060   -2.8280 C.3   146  LEU146      0.1561
     12  C         33.8590  -33.5160   -3.2670 C.2   146  LEU146      0.2260
     13  O         33.2660  -32.4990   -2.8730 O.2   146  LEU146     -0.2867
     14  CB        34.1720  -35.3550   -1.5850 C.3   146  LEU146      0.0270
     15  CG        33.6040  -36.6930   -1.0420 C.3   146  LEU146      0.0019
     16  CD1       34.5470  -37.2470    0.0070 C.3   146  LEU146      0.0001
     17  CD2       32.2140  -36.5150   -0.4380 C.3   146  LEU146      0.0001
     18  N         34.4670  -32.2130    3.3610 N.3   161  MET161     -0.1245
     19  CA        34.0500  -33.4680    4.0080 C.3   161  MET161      0.1570
     20  C         35.2510  -34.2920    4.4840 C.2   161  MET161      0.2261
     21  O         35.2570  -35.5190    4.3840 O.2   161  MET161     -0.2867
     22  CB        33.2000  -34.2990    3.0470 C.3   161  MET161      0.0387
     23  CG        32.2260  -33.4640    2.2380 C.3   161  MET161      0.0595
     24  SD        30.6680  -34.2880    1.9110 S.3   161  MET161     -0.1393
     25  CE        30.3030  -33.6710    0.2790 C.3   161  MET161      0.0692
     26  N         36.1900  -35.0960    7.4160 N.3   163  TRP163     -0.1227
     27  CA        35.9210  -36.0920    8.4690 C.3   163  TRP163      0.1737
     28  C         35.6150  -37.4300    7.8220 C.2   163  TRP163      0.2595
     29  O         36.0630  -38.4550    8.3070 O.2   163  TRP163     -0.2718
     30  CB        34.8030  -35.6480    9.4040 C.3   163  TRP163      0.0564
     31  CG        33.5110  -35.4930    8.6850 C.ar  163  TRP163      0.0003
     32  CD1       33.0200  -34.3600    8.0470 C.ar  163  TRP163      0.0946
     33  CD2       32.5030  -36.5230    8.4660 C.ar  163  TRP163      0.0152
     34  NE1       31.8030  -34.6120    7.4700 N.ar  163  TRP163     -0.2442
     35  CE2       31.4300  -35.8840    7.6920 C.ar  163  TRP163      0.0810
     36  CE3       32.3790  -37.8470    8.8250 C.ar  163  TRP163      0.0012
     37  CZ2       30.3080  -36.5690    7.3030 C.ar  163  TRP163      0.0191
     38  CZ3       31.2260  -38.5370    8.4250 C.ar  163  TRP163      0.0001
     39  CH2       30.2250  -37.9070    7.6760 C.ar  163  TRP163      0.0015
     40  N         34.9140  -37.4020    6.6930 N.am  164  TRP164     -0.1976
     41  CA        34.5330  -38.6290    5.9790 C.3   164  TRP164      0.1640
     42  C         35.7000  -39.2660    5.2690 C.2   164  TRP164      0.2290
     43  O         35.9060  -40.4940    5.3410 O.2   164  TRP164     -0.2864
     44  CB        33.3770  -38.3170    5.0360 C.3   164  TRP164      0.0576
     45  CG        32.8720  -39.4980    4.2500 C.ar  164  TRP164      0.0006
     46  CD1       32.8310  -39.6450    2.8640 C.ar  164  TRP164      0.0946
     47  CD2       32.3290  -40.7440    4.7890 C.ar  164  TRP164      0.0152
     48  NE1       32.3040  -40.8580    2.5140 N.ar  164  TRP164     -0.2442
     49  CE2       31.9700  -41.5680    3.6300 C.ar  164  TRP164      0.0810
     50  CE3       32.0860  -41.2280    6.0740 C.ar  164  TRP164      0.0012
     51  CZ2       31.4060  -42.8370    3.7710 C.ar  164  TRP164      0.0191
     52  CZ3       31.5240  -42.5130    6.2100 C.ar  164  TRP164      0.0001
     53  CH2       31.1900  -43.2940    5.0850 C.ar  164  TRP164      0.0015
     54  N         29.6930  -48.9880   -0.3950 N.3   180  GLN180     -0.1245
     55  CA        30.9010  -48.9930    0.4230 C.3   180  GLN180      0.1566
     56  C         30.6140  -49.7250    1.7270 C.2   180  GLN180      0.2260
     57  O         29.4840  -49.6930    2.2230 O.2   180  GLN180     -0.2867
     58  CB        31.2840  -47.5600    0.7940 C.3   180  GLN180      0.0367
     59  CG        31.7580  -46.6930   -0.3670 C.3   180  GLN180      0.0905
     60  CD        31.5830  -45.2340   -0.0470 C.2   180  GLN180      0.2608
     61  OE1       30.6050  -44.8380    0.6050 O.2   180  GLN180     -0.2717
     62  NE2       32.5390  -44.4200   -0.4700 N.am  180  GLN180     -0.0878
     63  N         27.4280  -49.7340    6.2550 N.3   195  LEU195     -0.1231
     64  CA        27.1750  -49.6450    4.8050 C.3   195  LEU195      0.1693
     65  C         26.9740  -48.1830    4.4110 C.2   195  LEU195      0.2592
     66  O         26.3260  -47.4370    5.1370 O.2   195  LEU195     -0.2718
     67  CB        25.9620  -50.5090    4.4450 C.3   195  LEU195      0.0284
     68  CG        25.5900  -50.7790    2.9790 C.3   195  LEU195      0.0019
     69  CD1       24.7290  -52.0270    2.9740 C.3   195  LEU195      0.0001
     70  CD2       24.8220  -49.6060    2.3780 C.3   195  LEU195      0.0001
     71  N         27.5360  -47.7550    3.2810 N.am  196  ALA196     -0.1966
     72  CA        27.2720  -46.3970    2.7970 C.3   196  ALA196      0.1728
     73  C         27.0770  -46.4280    1.2820 C.2   196  ALA196      0.2616
     74  O         27.4940  -47.3830    0.6030 O.2   196  ALA196     -0.2715
     75  CB        28.3810  -45.4150    3.2080 C.3   196  ALA196      0.0334
     76  N         26.4410  -45.3820    0.7610 N.am  197  VAL197     -0.1964
     77  CA        26.1170  -45.3220   -0.6490 C.3   197  VAL197      0.1712
     78  C         26.7030  -44.0250   -1.2230 C.2   197  VAL197      0.2458
     79  O         26.1690  -42.9360   -1.0020 O.2   197  VAL197     -0.2730
     80  CB        24.5780  -45.3690   -0.8710 C.3   197  VAL197      0.0289
     81  CG1       24.2460  -45.3460   -2.3640 C.3   197  VAL197      0.0023
     82  CG2       23.9900  -46.6230   -0.2170 C.3   197  VAL197      0.0023
     83  N         27.8090  -44.1470   -1.9600 N.am  198  PRO198     -0.2727
     84  CA        28.3710  -42.9550   -2.6180 C.3   198  PRO198      0.1402
     85  C         27.4260  -42.4200   -3.6990 C.2   198  PRO198      0.2269
     86  O         26.6330  -43.1730   -4.2700 O.2   198  PRO198     -0.2865
     87  CB        29.6510  -43.4650   -3.2610 C.3   198  PRO198      0.0296
     88  CG        29.5300  -44.9530   -3.3030 C.3   198  PRO198      0.0237
     89  CD        28.5230  -45.3880   -2.2880 C.3   198  PRO198      0.0939
     90  N         22.5280  -46.1930    8.8240 N.3   235  SER235     -0.1202
     91  CA        21.6640  -45.1230    9.3270 C.3   235  SER235      0.2020
     92  C         21.4910  -44.1630    8.1760 C.2   235  SER235      0.2619
     93  O         22.4700  -43.6830    7.6250 O.2   235  SER235     -0.2717
     94  CB        22.3010  -44.3740   10.4910 C.3   235  SER235      0.2103
     95  OG        22.5550  -45.2580   11.5570 O.3   235  SER235     -0.2182
     96  N         20.2580  -43.9010    7.7770 N.am  236  SER236     -0.1951
     97  CA        20.0710  -43.0810    6.6070 C.3   236  SER236      0.1924
     98  C         18.6780  -42.5100    6.4920 C.2   236  SER236      0.2314
     99  O         17.7000  -43.1090    6.9590 O.2   236  SER236     -0.2863
    100  CB        20.3630  -43.9060    5.3520 C.3   236  SER236      0.2116
    101  OG        20.2030  -43.1410    4.1650 O.3   236  SER236     -0.2180
    102  N         20.5100  -32.2720    2.5960 N.3   280  GLU280     -0.1231
    103  CA        21.8980  -32.4290    2.0850 C.3   280  GLU280      0.1699
    104  C         21.9480  -33.4340    0.9400 C.2   280  GLU280      0.2592
    105  O         22.4060  -33.1070   -0.1620 O.2   280  GLU280     -0.2718
    106  CB        22.8730  -32.8360    3.1920 C.3   280  GLU280      0.0402
    107  CG        24.2470  -33.3030    2.6860 C.3   280  GLU280      0.1161
    108  CD        25.0860  -32.1850    2.0900 C.2   280  GLU280      0.3649
    109  OE1       24.7550  -31.0090    2.3130 O.co2 280  GLU280     -0.2457
    110  OE2       26.0660  -32.4800    1.3760 O.co2 280  GLU280     -0.2457
    111  N         21.4550  -34.6580    1.1630 N.am  281  PHE281     -0.1976
    112  CA        21.5910  -35.6750    0.1140 C.3   281  PHE281      0.1639
    113  C         20.7480  -35.5230   -1.1290 C.2   281  PHE281      0.2290
    114  O         21.1490  -35.9990   -2.1950 O.2   281  PHE281     -0.2864
    115  CB        21.5040  -37.0840    0.7010 C.3   281  PHE281      0.0560
    116  CG        22.6670  -37.4030    1.5510 C.ar  281  PHE281     -0.0200
    117  CD1       23.9260  -37.6030    0.9610 C.ar  281  PHE281     -0.0042
    118  CD2       22.5500  -37.4220    2.9310 C.ar  281  PHE281     -0.0042
    119  CE1       25.0400  -37.8540    1.7440 C.ar  281  PHE281     -0.0003
    120  CE2       23.6590  -37.6770    3.7240 C.ar  281  PHE281     -0.0003
    121  CZ        24.9010  -37.9000    3.1260 C.ar  281  PHE281     -0.0000
    122  N         21.8240  -31.0480   -1.7800 N.3   284  ARG284     -0.1245
    123  CA        23.0610  -30.4040   -1.2900 C.3   284  ARG284      0.1563
    124  C         22.6850  -29.0250   -0.7790 C.2   284  ARG284      0.2260
    125  O         23.2520  -27.9970   -1.1790 O.2   284  ARG284     -0.2867
    126  CB        24.1490  -30.3380   -2.3800 C.3   284  ARG284      0.0307
    127  CG        24.5800  -31.6970   -2.9350 C.3   284  ARG284      0.0489
    128  CD        25.1570  -32.5990   -1.8470 C.3   284  ARG284      0.2205
    129  NE        25.2790  -33.9920   -2.2950 N.pl3 284  ARG284     -0.0865
    130  CZ        25.8260  -34.9740   -1.5790 C.cat 284  ARG284      0.5346
    131  NH1       26.2880  -34.7230   -0.3680 N.pl3 284  ARG284      0.1354
    132  NH2       25.8980  -36.2170   -2.0690 N.pl3 284  ARG284      0.1354
@<TRIPOS>BOND
     1     1     2    1
     2    86    85    2
     3    10    11    1
     4     2     3    1
     5     2     5    1
     6    85    84    1
     7     3     4    2
     8    88    87    1
     9    88    89    1
    10    12    13    2
    11    12    11    1
    12    87    84    1
    13   127   126    1
    14   127   128    1
    15    11    14    1
    16    84    83    1
    17     5     6    1
    18   126   123    1
    19    81    80    1
    20     6     7    1
    21   129   128    1
    22   129   130    2
    23    89    83    1
    24   114   113    2
    25   132   130    1
    26    83    78   am
    27   122   123    1
    28    14    15    1
    29   130   131    1
    30   123   124    1
    31    78    79    2
    32    78    77    1
    33     9     7   am
    34   125   124    2
    35     7     8    2
    36   113   112    1
    37    15    17    1
    38    15    16    1
    39    80    77    1
    40    80    82    1
    41    77    76    1
    42    62    60   am
    43    54    55    1
    44    59    60    1
    45    59    58    1
    46   105   104    2
    47    60    61    2
    48   112   115    1
    49   112   111    1
    50    25    24    1
    51    55    58    1
    52    55    56    1
    53    74    73    2
    54   115   116    1
    55    76    73   am
    56   104   111   am
    57   104   103    1
    58   117   116   ar
    59   117   119   ar
    60    73    72    1
    61   110   108   ar
    62   116   118   ar
    63    56    57    2
    64   119   121   ar
    65    24    23    1
    66   103   102    1
    67   103   106    1
    68   108   109   ar
    69   108   107    1
    70    23    22    1
    71    70    68    1
    72    48    46   ar
    73    48    49   ar
    74   107   106    1
    75    72    75    1
    76    72    71    1
    77    46    45   ar
    78   118   120   ar
    79    69    68    1
    80    68    67    1
    81    22    19    1
    82   121   120   ar
    83    71    65   am
    84    18    19    1
    85    49    51   ar
    86    49    47   ar
    87    51    53   ar
    88    19    20    1
    89   101   100    1
    90    45    47   ar
    91    45    44    1
    92    21    20    2
    93    65    64    1
    94    65    66    2
    95    67    64    1
    96    47    50   ar
    97    64    63    1
    98    44    41    1
    99    53    52   ar
   100    42    43    2
   101    42    41    1
   102   100    97    1
   103    41    40    1
   104    50    52   ar
   105    98    97    1
   106    98    99    2
   107    97    96    1
   108    40    28   am
   109    37    39   ar
   110    37    35   ar
   111    26    27    1
   112    34    35   ar
   113    34    32   ar
   114    93    92    2
   115    39    38   ar
   116    35    33   ar
   117    96    92   am
   118    28    29    2
   119    28    27    1
   120    32    31   ar
   121    92    91    1
   122    38    36   ar
   123    33    31   ar
   124    33    36   ar
   125    27    30    1
   126    31    30    1
   127    90    91    1
   128    91    94    1
   129    94    95    1
