@<TRIPOS>MOLECULE
tmp/4mfqA04.pdb
 132 128 0 0 0
SMALL
GASTEIGER

@<TRIPOS>ATOM
      1  N         14.9440   48.8170   -0.8810 N.3   164  TRP164     -0.1241
      2  CA        16.1710   49.1150   -1.6530 C.3   164  TRP164      0.1605
      3  C         16.1370   50.4620   -2.3260 C.2   164  TRP164      0.2264
      4  O         17.0990   51.2590   -2.2290 O.2   164  TRP164     -0.2867
      5  CB        16.4550   47.9630   -2.6280 C.3   164  TRP164      0.0550
      6  CG        17.7480   48.0900   -3.3850 C.ar  164  TRP164      0.0003
      7  CD1       17.9320   48.1130   -4.7720 C.ar  164  TRP164      0.0946
      8  CD2       19.0800   48.2240   -2.8190 C.ar  164  TRP164      0.0152
      9  NE1       19.2490   48.2570   -5.0810 N.ar  164  TRP164     -0.2442
     10  CE2       19.9940   48.3230   -3.9460 C.ar  164  TRP164      0.0810
     11  CE3       19.5940   48.2600   -1.5110 C.ar  164  TRP164      0.0012
     12  CZ2       21.3710   48.4630   -3.7690 C.ar  164  TRP164      0.0191
     13  CZ3       20.9770   48.4030   -1.3440 C.ar  164  TRP164      0.0001
     14  CH2       21.8440   48.4910   -2.4540 C.ar  164  TRP164      0.0015
     15  N         29.1000   48.4120   -1.2910 N.3   195  LEU195     -0.1231
     16  CA        29.1400   48.1250   -2.7420 C.3   195  LEU195      0.1693
     17  C         27.9030   47.3130   -3.1120 C.2   195  LEU195      0.2592
     18  O         27.4480   46.5020   -2.3170 O.2   195  LEU195     -0.2718
     19  CB        30.4670   47.4350   -3.1090 C.3   195  LEU195      0.0284
     20  CG        31.0000   47.4150   -4.5430 C.3   195  LEU195      0.0019
     21  CD1       32.5060   47.2240   -4.5360 C.3   195  LEU195      0.0001
     22  CD2       30.3980   46.1850   -5.2060 C.3   195  LEU195      0.0001
     23  N         27.3030   47.5790   -4.2690 N.am  196  ALA196     -0.1966
     24  CA        26.2270   46.7190   -4.7730 C.3   196  ALA196      0.1728
     25  C         26.3720   46.5590   -6.2890 C.2   196  ALA196      0.2616
     26  O         27.0300   47.3920   -6.9640 O.2   196  ALA196     -0.2715
     27  CB        24.8420   47.2690   -4.3950 C.3   196  ALA196      0.0334
     28  N         25.7830   45.4830   -6.8150 N.am  197  VAL197     -0.1977
     29  CA        25.9380   45.1480   -8.2250 C.3   197  VAL197      0.1596
     30  C         24.5590   45.0730   -8.8650 C.2   197  VAL197      0.2287
     31  O         23.8080   44.1240   -8.6120 O.2   197  VAL197     -0.2864
     32  CB        26.6600   43.7940   -8.4070 C.3   197  VAL197      0.0276
     33  CG1       26.7820   43.4490   -9.9060 C.3   197  VAL197      0.0022
     34  CG2       28.0600   43.8500   -7.8010 C.3   197  VAL197      0.0022
     35  N         30.2790   41.0940  -15.1260 N.3   204  LEU204     -0.1245
     36  CA        31.1630   41.8820  -14.2650 C.3   204  LEU204      0.1561
     37  C         32.5660   41.7710  -14.7990 C.2   204  LEU204      0.2260
     38  O         33.4290   41.1430  -14.1700 O.2   204  LEU204     -0.2867
     39  CB        31.1590   41.2970  -12.8620 C.3   204  LEU204      0.0270
     40  CG        30.4450   41.9930  -11.7280 C.3   204  LEU204      0.0019
     41  CD1       30.7590   41.2240  -10.4560 C.3   204  LEU204      0.0001
     42  CD2       30.9500   43.4210  -11.6220 C.3   204  LEU204      0.0001
     43  N         34.6290   46.4970  -13.5950 N.3   209  TYR209     -0.1241
     44  CA        34.7460   46.5250  -12.1220 C.3   209  TYR209      0.1605
     45  C         35.8380   47.5240  -11.6850 C.2   209  TYR209      0.2264
     46  O         35.5970   48.3760  -10.8200 O.2   209  TYR209     -0.2867
     47  CB        35.0220   45.1180  -11.6160 C.3   209  TYR209      0.0534
     48  CG        35.4640   45.0070  -10.1570 C.ar  209  TYR209     -0.0201
     49  CD1       36.8090   45.0780   -9.8070 C.ar  209  TYR209     -0.0009
     50  CD2       34.5380   44.7810   -9.1400 C.ar  209  TYR209     -0.0009
     51  CE1       37.2260   44.9560   -8.4810 C.ar  209  TYR209      0.0417
     52  CE2       34.9510   44.6300   -7.8140 C.ar  209  TYR209      0.0417
     53  CZ        36.2890   44.7280   -7.4880 C.ar  209  TYR209      0.1957
     54  OH        36.7100   44.5940   -6.1710 O.3   209  TYR209     -0.2866
     55  N         31.4280   44.7670    1.2080 N.3   234  GLY234     -0.1210
     56  CA        30.3800   44.0080    0.5200 C.3   234  GLY234      0.1956
     57  C         29.9750   42.7920    1.3450 C.2   234  GLY234      0.2613
     58  O         30.8290   42.2070    2.0370 O.2   234  GLY234     -0.2717
     59  N         28.6810   42.4510    1.3230 N.am  235  SER235     -0.1938
     60  CA        28.1720   41.1430    1.8090 C.3   235  SER235      0.2055
     61  C         27.3540   40.4990    0.7090 C.2   235  SER235      0.2643
     62  O         26.4200   41.1210    0.1740 O.2   235  SER235     -0.2714
     63  CB        27.2820   41.2790    3.0260 C.3   235  SER235      0.2130
     64  OG        27.9470   42.0330    3.9910 O.3   235  SER235     -0.2179
     65  N         27.7190   39.2750    0.3280 N.am  236  SER236     -0.1949
     66  CA        27.1300   38.6950   -0.8590 C.3   236  SER236      0.1924
     67  C         27.3710   37.1840   -0.9220 C.2   236  SER236      0.2314
     68  O         28.3660   36.6710   -0.3920 O.2   236  SER236     -0.2863
     69  CB        27.7460   39.3560   -2.0790 C.3   236  SER236      0.2116
     70  OG        27.1620   38.8720   -3.2700 O.3   236  SER236     -0.2180
     71  N         28.1640   36.1320   -3.5840 N.3   238  MET238     -0.1230
     72  CA        29.2600   36.1290   -4.5710 C.3   238  MET238      0.1702
     73  C         30.6470   36.0180   -3.9180 C.2   238  MET238      0.2592
     74  O         31.6290   35.6680   -4.5960 O.2   238  MET238     -0.2718
     75  CB        29.2190   37.3880   -5.4470 C.3   238  MET238      0.0401
     76  CG        27.9970   37.5040   -6.3600 C.3   238  MET238      0.0596
     77  SD        28.1260   38.9320   -7.4590 S.3   238  MET238     -0.1393
     78  CE        27.9990   40.2370   -6.2600 C.3   238  MET238      0.0692
     79  N         30.7240   36.3500   -2.6270 N.am  239  LEU239     -0.1980
     80  CA        31.9630   36.2780   -1.8820 C.3   239  LEU239      0.1596
     81  C         32.1520   34.9120   -1.1840 C.2   239  LEU239      0.2287
     82  O         33.1180   34.7300   -0.4700 O.2   239  LEU239     -0.2864
     83  CB        32.0620   37.4180   -0.8530 C.3   239  LEU239      0.0297
     84  CG        32.3130   38.8090   -1.4750 C.3   239  LEU239      0.0022
     85  CD1       32.3510   39.8710   -0.3770 C.3   239  LEU239      0.0001
     86  CD2       33.5990   38.8410   -2.3060 C.3   239  LEU239      0.0001
     87  N         33.2080   36.3390  -11.3140 N.3   253  ILE253     -0.1245
     88  CA        33.0300   36.2900   -9.8420 C.3   253  ILE253      0.1561
     89  C         34.2800   35.7290   -9.1600 C.2   253  ILE253      0.2260
     90  O         34.8130   36.3440   -8.2280 O.2   253  ILE253     -0.2867
     91  CB        31.7490   35.5410   -9.4410 C.3   253  ILE253      0.0252
     92  CG1       30.5260   36.3390   -9.9470 C.3   253  ILE253      0.0019
     93  CG2       31.6840   35.3200   -7.9200 C.3   253  ILE253      0.0019
     94  CD1       29.2030   35.6500   -9.7020 C.3   253  ILE253      0.0001
     95  N         37.3640   38.2210   -9.4900 N.3   256  LEU256     -0.1231
     96  CA        37.2000   39.4470   -8.6920 C.3   256  LEU256      0.1693
     97  C         37.1520   39.2070   -7.1830 C.2   256  LEU256      0.2591
     98  O         37.6840   40.0090   -6.4090 O.2   256  LEU256     -0.2718
     99  CB        35.9780   40.2420   -9.1750 C.3   256  LEU256      0.0284
    100  CG        36.0850   40.7020  -10.6390 C.3   256  LEU256      0.0019
    101  CD1       34.8060   41.4310  -11.0230 C.3   256  LEU256      0.0001
    102  CD2       37.3130   41.5580  -10.9200 C.3   256  LEU256      0.0001
    103  N         36.5530   38.0950   -6.7580 N.am  257  ALA257     -0.1980
    104  CA        36.5040   37.7890   -5.3240 C.3   257  ALA257      0.1597
    105  C         37.9130   37.6390   -4.7530 C.2   257  ALA257      0.2287
    106  O         38.1180   37.8390   -3.5620 O.2   257  ALA257     -0.2864
    107  CB        35.6640   36.5480   -5.0420 C.3   257  ALA257      0.0319
    108  N         39.2760   40.4240   -2.6460 N.3   260  TRP260     -0.1241
    109  CA        38.5690   40.7770   -1.4360 C.3   260  TRP260      0.1605
    110  C         39.1820   40.1300   -0.2270 C.2   260  TRP260      0.2264
    111  O         39.6540   39.0040   -0.2990 O.2   260  TRP260     -0.2867
    112  CB        37.0900   40.3920   -1.5770 C.3   260  TRP260      0.0550
    113  CG        36.3900   41.4000   -2.4450 C.ar  260  TRP260      0.0003
    114  CD1       36.5230   41.5780   -3.8230 C.ar  260  TRP260      0.0946
    115  CD2       35.4710   42.4520   -2.0050 C.ar  260  TRP260      0.0152
    116  NE1       35.7570   42.6390   -4.2570 N.ar  260  TRP260     -0.2442
    117  CE2       35.1170   43.2210   -3.2020 C.ar  260  TRP260      0.0810
    118  CE3       34.9310   42.8250   -0.7760 C.ar  260  TRP260      0.0012
    119  CZ2       34.2490   44.2960   -3.1500 C.ar  260  TRP260      0.0191
    120  CZ3       34.0710   43.9220   -0.7360 C.ar  260  TRP260      0.0001
    121  CH2       33.7220   44.6310   -1.8990 C.ar  260  TRP260      0.0015
    122  N         19.0720   35.6380   -6.4840 N.3   281  PHE281     -0.1241
    123  CA        19.8660   36.2330   -7.5690 C.3   281  PHE281      0.1605
    124  C         20.1240   35.3610   -8.7700 C.2   281  PHE281      0.2264
    125  O         20.3190   35.8660   -9.8720 O.2   281  PHE281     -0.2867
    126  CB        21.1560   36.8650   -7.0240 C.3   281  PHE281      0.0534
    127  CG        20.8730   38.0470   -6.1620 C.ar  281  PHE281     -0.0203
    128  CD1       20.4340   39.2520   -6.7510 C.ar  281  PHE281     -0.0042
    129  CD2       20.9420   37.9560   -4.7750 C.ar  281  PHE281     -0.0042
    130  CE1       20.1140   40.3480   -5.9640 C.ar  281  PHE281     -0.0003
    131  CE2       20.6130   39.0430   -3.9870 C.ar  281  PHE281     -0.0003
    132  CZ        20.2090   40.2420   -4.5770 C.ar  281  PHE281     -0.0000
@<TRIPOS>BOND
     1    35    36    1
     2    37    36    1
     3    37    38    2
     4    36    39    1
     5    43    44    1
     6    39    40    1
     7    44    45    1
     8    44    47    1
     9    40    42    1
    10    40    41    1
    11    45    46    2
    12    47    48    1
    13    87    88    1
    14   101   100    1
    15   102   100    1
    16   100    99    1
    17    48    49   ar
    18    48    50   ar
    19    92    94    1
    20    92    91    1
    21    33    32    1
    22   125   124    2
    23    88    91    1
    24    88    89    1
    25    49    51   ar
    26    95    96    1
    27    91    93    1
    28    99    96    1
    29    89    90    2
    30    50    52   ar
    31    30    31    2
    32    30    29    1
    33   124   123    1
    34    96    97    1
    35    51    53   ar
    36    32    29    1
    37    32    34    1
    38    29    28    1
    39    52    53   ar
    40   123   126    1
    41   123   122    1
    42    53    54    1
    43    77    76    1
    44    77    78    1
    45    97   103   am
    46    97    98    2
    47   126   127    1
    48    26    25    2
    49    28    25   am
    50   103   104    1
    51   128   127   ar
    52   128   130   ar
    53    76    75    1
    54    25    24    1
    55   127   129   ar
    56   130   132   ar
    57    75    72    1
    58   104   107    1
    59   104   105    1
    60    22    20    1
    61     9     7   ar
    62     9    10   ar
    63   129   131   ar
    64    24    27    1
    65    24    23    1
    66     7     6   ar
    67   105   106    2
    68    74    73    2
    69   132   131   ar
    70    72    73    1
    71    72    71    1
    72    20    21    1
    73    20    19    1
    74    23    17   am
    75   116   114   ar
    76   116   117   ar
    77    10    12   ar
    78    10     8   ar
    79    73    79   am
    80   114   113   ar
    81    12    14   ar
    82     6     8   ar
    83     6     5    1
    84    70    69    1
    85   117   119   ar
    86   117   115   ar
    87   119   121   ar
    88    17    16    1
    89    17    18    2
    90    19    16    1
    91     8    11   ar
    92    16    15    1
    93   108   109    1
    94     5     2    1
    95    79    80    1
    96    14    13   ar
    97   113   115   ar
    98   113   112    1
    99     3     4    2
   100     3     2    1
   101    86    84    1
   102    69    66    1
   103   115   118   ar
   104   121   120   ar
   105    80    81    1
   106    80    83    1
   107     2     1    1
   108   112   109    1
   109    11    13   ar
   110    84    83    1
   111    84    85    1
   112   109   110    1
   113    81    82    2
   114    67    66    1
   115    67    68    2
   116    66    65    1
   117   118   120   ar
   118   111   110    2
   119    62    61    2
   120    65    61   am
   121    56    55    1
   122    56    57    1
   123    61    60    1
   124    59    57   am
   125    59    60    1
   126    57    58    2
   127    60    63    1
   128    63    64    1
