@<TRIPOS>MOLECULE
tmp/4mg3A00.pdb
 86 81 0 0 0
SMALL
GASTEIGER

@<TRIPOS>ATOM
      1  N         48.6670  -10.8000   20.4440 N.3    79  ILE79      -0.1231
      2  CA        47.6740  -10.3070   19.4920 C.3    79  ILE79       0.1692
      3  C         47.4800  -11.2970   18.3560 C.2    79  ILE79       0.2592
      4  O         48.4610  -11.8020   17.8110 O.2    79  ILE79      -0.2718
      5  CB        48.1820   -8.9820   18.8540 C.3    79  ILE79       0.0266
      6  CG1       48.3270   -7.8820   19.9090 C.3    79  ILE79       0.0019
      7  CG2       47.2760   -8.5330   17.7190 C.3    79  ILE79       0.0020
      8  CD1       47.0070   -7.4470   20.5260 C.3    79  ILE79       0.0001
      9  N         46.2280  -11.5730   17.9850 N.am   80  PHE80      -0.1962
     10  CA        45.9840  -12.4330   16.8260 C.3    80  PHE80       0.1771
     11  C         46.3900  -11.7360   15.5380 C.2    80  PHE80       0.2619
     12  O         45.9980  -10.5980   15.2930 O.2    80  PHE80      -0.2715
     13  CB        44.5180  -12.8740   16.7350 C.3    80  PHE80       0.0574
     14  CG        44.2140  -13.6980   15.5080 C.ar   80  PHE80      -0.0200
     15  CD1       43.5170  -13.1510   14.4440 C.ar   80  PHE80      -0.0042
     16  CD2       44.6450  -15.0150   15.4140 C.ar   80  PHE80      -0.0042
     17  CE1       43.2400  -13.9020   13.3170 C.ar   80  PHE80      -0.0003
     18  CE2       44.3710  -15.7770   14.2830 C.ar   80  PHE80      -0.0003
     19  CZ        43.6660  -15.2160   13.2320 C.ar   80  PHE80      -0.0000
     20  N         47.1820  -12.4220   14.7200 N.am   81  VAL81      -0.1963
     21  CA        47.6420  -11.8820   13.4480 C.3    81  VAL81       0.1727
     22  C         47.2520  -12.8200   12.3130 C.2    81  VAL81       0.2616
     23  O         47.5550  -14.0130   12.3530 O.2    81  VAL81      -0.2715
     24  CB        49.1750  -11.6810   13.4540 C.3    81  VAL81       0.0290
     25  CG1       49.6640  -11.1050   12.1290 C.3    81  VAL81       0.0023
     26  CG2       49.5610  -10.7750   14.5950 C.3    81  VAL81       0.0023
     27  N         46.5860  -12.2780   11.2970 N.am   82  GLU82      -0.1977
     28  CA        46.1880  -13.0760   10.1420 C.3    82  GLU82       0.1602
     29  C         47.4120  -13.5810    9.3710 C.2    82  GLU82       0.2287
     30  O         48.5020  -13.0100    9.4650 O.2    82  GLU82      -0.2864
     31  CB        45.2790  -12.2720    9.2050 C.3    82  GLU82       0.0415
     32  CG        43.9880  -11.7770    9.8410 C.3    82  GLU82       0.1163
     33  CD        42.8890  -12.8350    9.8620 C.2    82  GLU82       0.3649
     34  OE1       41.8190  -12.5580   10.4450 O.co2  82  GLU82      -0.2457
     35  OE2       43.0880  -13.9370    9.2970 O.co2  82  GLU82      -0.2457
     36  N         53.6770   -7.4000   20.7690 N.3    95  LEU95      -0.1245
     37  CA        53.2940   -6.6000   19.6180 C.3    95  LEU95       0.1561
     38  C         52.5140   -5.3630   20.0600 C.2    95  LEU95       0.2260
     39  O         51.6290   -5.4370   20.9100 O.2    95  LEU95      -0.2867
     40  CB        52.4450   -7.4290   18.6520 C.3    95  LEU95       0.0270
     41  CG        52.0940   -6.7950   17.3000 C.3    95  LEU95       0.0019
     42  CD1       53.3540   -6.6200   16.4600 C.3    95  LEU95       0.0001
     43  CD2       51.0680   -7.6460   16.5510 C.3    95  LEU95       0.0001
     44  N         50.3290   -1.9250   18.6130 N.3    97  LEU97      -0.1245
     45  CA        49.5520   -1.5530   17.4380 C.3    97  LEU97       0.1561
     46  C         49.3200   -0.0450   17.3620 C.2    97  LEU97       0.2260
     47  O         49.2030    0.6280   18.3870 O.2    97  LEU97      -0.2867
     48  CB        48.2000   -2.2740   17.4530 C.3    97  LEU97       0.0270
     49  CG        48.2610   -3.8020   17.3670 C.3    97  LEU97       0.0019
     50  CD1       46.8780   -4.4040   17.6340 C.3    97  LEU97       0.0001
     51  CD2       48.8110   -4.2440   16.0130 C.3    97  LEU97       0.0001
     52  N         53.9270   -6.1790   11.5390 N.3   123  THR123     -0.1203
     53  CA        52.6660   -6.5890   10.9360 C.3   123  THR123      0.1994
     54  C         51.9180   -5.4220   10.2910 C.2   123  THR123      0.2618
     55  O         52.1930   -4.2520   10.5480 O.2   123  THR123     -0.2717
     56  CB        51.7320   -7.2080   11.9850 C.3   123  THR123      0.1784
     57  OG1       51.2760   -6.1840   12.8730 O.3   123  THR123     -0.2211
     58  CG2       52.4480   -8.2810   12.7850 C.3   123  THR123      0.0376
     59  N         50.9670   -5.7470    9.4350 N.am  124  GLY124     -0.1942
     60  CA        50.0310   -4.7330    9.0010 C.3   124  GLY124      0.2014
     61  C         48.7950   -5.3970    8.4380 C.2   124  GLY124      0.2639
     62  O         48.8440   -6.5100    7.9240 O.2   124  GLY124     -0.2714
     63  N         47.6760   -4.6980    8.5340 N.am  125  GLY125     -0.1939
     64  CA        46.4500   -5.1080    7.8760 C.3   125  GLY125      0.2014
     65  C         45.3020   -4.3600    8.5160 C.2   125  GLY125      0.2638
     66  O         45.4340   -3.8490    9.6350 O.2   125  GLY125     -0.2714
     67  N         44.1680   -4.3360    7.8300 N.am  126  ASN126     -0.1972
     68  CA        43.0120   -3.5560    8.2660 C.3   126  ASN126      0.1688
     69  C         43.3770   -2.1550    8.7740 C.2   126  ASN126      0.2292
     70  O         42.7390   -1.6510    9.6950 O.2   126  ASN126     -0.2864
     71  CB        42.1060   -4.3110    9.2600 C.3   126  ASN126      0.1181
     72  CG        42.8780   -5.1300   10.2790 C.2   126  ASN126      0.2629
     73  OD1       43.3860   -4.5970   11.2660 O.2   126  ASN126     -0.2716
     74  ND2       42.9340   -6.4440   10.0620 N.am  126  ASN126     -0.0877
     75  N         46.0240   -1.0570   10.3280 N.3   128  LEU128     -0.1245
     76  CA        46.8870   -0.9910   11.5100 C.3   128  LEU128      0.1561
     77  C         48.3210   -1.3380   11.1360 C.2   128  LEU128      0.2260
     78  O         48.5610   -2.1160   10.2090 O.2   128  LEU128     -0.2867
     79  CB        46.4180   -1.9520   12.6070 C.3   128  LEU128      0.0270
     80  CG        45.0260   -1.7760   13.2140 C.3   128  LEU128      0.0019
     81  CD1       44.7690   -2.8850   14.2340 C.3   128  LEU128      0.0001
     82  CD2       44.8790   -0.4150   13.8450 C.3   128  LEU128      0.0001
     83  N         51.6000   -2.9480   13.0710 N.3   130  GLY130     -0.1225
     84  CA        52.1470   -3.5150   14.2970 C.3   130  GLY130      0.1811
     85  C         53.6420   -3.3680   14.4210 C.2   130  GLY130      0.2280
     86  O         54.3350   -3.6440   13.4550 O.2   130  GLY130     -0.2866
@<TRIPOS>BOND
     1    67    68    1
     2    67    65   am
     3    64    65    1
     4    64    63    1
     5    62    61    2
     6    68    69    1
     7    68    71    1
     8    61    63   am
     9    61    60    1
    10    65    66    2
    11    69    70    2
    12    60    59    1
    13    31    32    1
    14    31    28    1
    15    71    72    1
    16    35    33   ar
    17    29    30    2
    18    29    28    1
    19    59    54   am
    20    32    33    1
    21    33    34   ar
    22    74    72   am
    23    28    27    1
    24    78    77    2
    25    72    73    2
    26    54    55    2
    27    54    53    1
    28    75    76    1
    29    53    52    1
    30    53    56    1
    31    77    76    1
    32    27    22   am
    33    76    79    1
    34    56    58    1
    35    56    57    1
    36    25    24    1
    37    22    23    2
    38    22    21    1
    39    79    80    1
    40    83    84    1
    41    80    82    1
    42    80    81    1
    43    19    17   ar
    44    19    18   ar
    45    17    15   ar
    46    21    24    1
    47    21    20    1
    48    24    26    1
    49    86    85    2
    50    18    16   ar
    51    84    85    1
    52    15    14   ar
    53    20    11   am
    54    12    11    2
    55    16    14   ar
    56    14    13    1
    57    11    10    1
    58    51    49    1
    59    42    41    1
    60    43    41    1
    61    13    10    1
    62    10     9    1
    63    41    40    1
    64    46    45    1
    65    46    47    2
    66    49    48    1
    67    49    50    1
    68    45    48    1
    69    45    44    1
    70     7     5    1
    71     4     3    2
    72     9     3   am
    73     3     2    1
    74    40    37    1
    75     5     2    1
    76     5     6    1
    77     2     1    1
    78    37    38    1
    79    37    36    1
    80     6     8    1
    81    38    39    2
