@<TRIPOS>MOLECULE
tmp/4mg5A01.pdb
 175 165 0 0 0
SMALL
GASTEIGER

@<TRIPOS>ATOM
      1  N        -11.1260   -2.0540   14.3020 N.3    39  MET39      -0.1245
      2  CA       -10.7670   -3.0360   15.3030 C.3    39  MET39       0.1570
      3  C        -10.0760   -4.2280   14.6500 C.2    39  MET39       0.2261
      4  O         -9.2260   -4.8810   15.2610 O.2    39  MET39      -0.2867
      5  CB       -12.0280   -3.4970   16.0240 C.3    39  MET39       0.0387
      6  CG       -11.7860   -4.5570   17.0630 C.3    39  MET39       0.0595
      7  SD       -10.5380   -3.9970   18.2300 S.3    39  MET39      -0.1393
      8  CE       -11.1810   -2.3980   18.7100 C.3    39  MET39       0.0692
      9  N         -6.4700   -3.1350   14.3250 N.3    42  LEU42      -0.1231
     10  CA        -5.7060   -3.1710   15.5730 C.3    42  LEU42       0.1693
     11  C         -5.3680   -4.5930   16.0110 C.2    42  LEU42       0.2592
     12  O         -4.2540   -4.8620   16.4630 O.2    42  LEU42      -0.2718
     13  CB        -6.4410   -2.4170   16.6880 C.3    42  LEU42       0.0284
     14  CG        -6.6350   -0.9160   16.4610 C.3    42  LEU42       0.0019
     15  CD1       -7.3900   -0.2780   17.6160 C.3    42  LEU42       0.0001
     16  CD2       -5.2970   -0.2270   16.2470 C.3    42  LEU42       0.0001
     17  N         -6.3270   -5.5020   15.8730 N.am   43  THR43      -0.1953
     18  CA        -6.0970   -6.9040   16.2010 C.3    43  THR43       0.1897
     19  C         -5.2010   -7.5740   15.1550 C.2    43  THR43       0.2313
     20  O         -4.4050   -8.4590   15.4830 O.2    43  THR43      -0.2863
     21  CB        -7.4200   -7.6830   16.3380 C.3    43  THR43       0.1794
     22  OG1       -8.2090   -7.5090   15.1540 O.3    43  THR43      -0.2208
     23  CG2       -8.2100   -7.1820   17.5430 C.3    43  THR43       0.0378
     24  N         -2.8180   -5.9900   13.6390 N.3    45  LEU45      -0.1231
     25  CA        -1.5130   -5.4730   14.0320 C.3    45  LEU45       0.1693
     26  C         -0.9550   -6.2150   15.2500 C.2    45  LEU45       0.2591
     27  O          0.1980   -6.6460   15.2460 O.2    45  LEU45      -0.2718
     28  CB        -1.6120   -3.9710   14.3120 C.3    45  LEU45       0.0284
     29  CG        -0.3500   -3.2260   14.7510 C.3    45  LEU45       0.0019
     30  CD1        0.8210   -3.5220   13.8210 C.3    45  LEU45       0.0001
     31  CD2       -0.6200   -1.7330   14.8150 C.3    45  LEU45       0.0001
     32  N         -1.7740   -6.3610   16.2890 N.am   46  ALA46      -0.1980
     33  CA        -1.3540   -7.0660   17.5000 C.3    46  ALA46       0.1597
     34  C         -0.8510   -8.4730   17.1860 C.2    46  ALA46       0.2287
     35  O          0.1810   -8.9050   17.7000 O.2    46  ALA46      -0.2864
     36  CB        -2.4950   -7.1200   18.5120 C.3    46  ALA46       0.0319
     37  N          2.5100   -8.3290   15.7580 N.3    49  GLU49      -0.1245
     38  CA         3.4690   -7.9380   16.7860 C.3    49  GLU49       0.1567
     39  C          3.8020   -9.0900   17.7220 C.2    49  GLU49       0.2260
     40  O          4.9270   -9.1990   18.2070 O.2    49  GLU49      -0.2867
     41  CB         2.9480   -6.7570   17.5980 C.3    49  GLU49       0.0388
     42  CG         3.0070   -5.4320   16.8750 C.3    49  GLU49       0.1160
     43  CD         2.5630   -4.2890   17.7600 C.2    49  GLU49       0.3649
     44  OE1        1.3420   -4.1540   17.9890 O.co2  49  GLU49      -0.2457
     45  OE2        3.4330   -3.5330   18.2380 O.co2  49  GLU49      -0.2457
     46  N          1.9790  -11.2030   27.6940 N.3    78  TRP78      -0.1227
     47  CA         1.9210  -10.6910   26.3190 C.3    78  TRP78       0.1737
     48  C          1.1900   -9.3560   26.1390 C.2    78  TRP78       0.2595
     49  O          1.6870   -8.4670   25.4500 O.2    78  TRP78      -0.2718
     50  CB         1.3870  -11.7420   25.3310 C.3    78  TRP78       0.0564
     51  CG        -0.0720  -12.0600   25.4610 C.ar   78  TRP78       0.0003
     52  CD1       -0.6340  -13.0000   26.2730 C.ar   78  TRP78       0.0946
     53  CD2       -1.1540  -11.4570   24.7380 C.ar   78  TRP78       0.0152
     54  NE1       -1.9980  -13.0130   26.1090 N.ar   78  TRP78      -0.2442
     55  CE2       -2.3430  -12.0740   25.1720 C.ar   78  TRP78       0.0810
     56  CE3       -1.2310  -10.4530   23.7670 C.ar   78  TRP78       0.0012
     57  CZ2       -3.5950  -11.7180   24.6730 C.ar   78  TRP78       0.0191
     58  CZ3       -2.4740  -10.1020   23.2730 C.ar   78  TRP78       0.0001
     59  CH2       -3.6390  -10.7320   23.7260 C.ar   78  TRP78       0.0015
     60  N          0.0150   -9.2150   26.7440 N.am   79  LEU79      -0.1980
     61  CA        -0.7590   -7.9900   26.5780 C.3    79  LEU79       0.1596
     62  C         -0.0670   -6.8120   27.2720 C.2    79  LEU79       0.2287
     63  O         -0.0440   -5.7000   26.7400 O.2    79  LEU79      -0.2864
     64  CB        -2.1910   -8.1730   27.0860 C.3    79  LEU79       0.0297
     65  CG        -3.1960   -7.0690   26.7530 C.3    79  LEU79       0.0022
     66  CD1       -3.0430   -6.6010   25.3090 C.3    79  LEU79       0.0001
     67  CD2       -4.6160   -7.5430   27.0250 C.3    79  LEU79       0.0001
     68  N          2.6360   -5.6560   24.9040 N.3    82  LEU82      -0.1231
     69  CA         2.0850   -4.8740   23.7990 C.3    82  LEU82       0.1693
     70  C          1.7290   -3.4650   24.2550 C.2    82  LEU82       0.2591
     71  O          2.0380   -2.4860   23.5740 O.2    82  LEU82      -0.2718
     72  CB         0.8450   -5.5510   23.2110 C.3    82  LEU82       0.0284
     73  CG         1.0680   -6.8390   22.4160 C.3    82  LEU82       0.0019
     74  CD1       -0.2600   -7.3900   21.9330 C.3    82  LEU82       0.0001
     75  CD2        2.0140   -6.6010   21.2420 C.3    82  LEU82       0.0001
     76  N          1.0770   -3.3720   25.4110 N.am   83  MET83      -0.1979
     77  CA         0.6090   -2.0930   25.9340 C.3    83  MET83       0.1605
     78  C          1.7440   -1.1580   26.3350 C.2    83  MET83       0.2287
     79  O          1.6940    0.0390   26.0450 O.2    83  MET83      -0.2864
     80  CB        -0.3570   -2.3020   27.1030 C.3    83  MET83       0.0413
     81  CG        -1.7010   -2.8830   26.6850 C.3    83  MET83       0.0598
     82  SD        -2.8050   -3.1680   28.0860 S.3    83  MET83      -0.1393
     83  CE        -4.2260   -2.1800   27.6350 C.3    83  MET83       0.0692
     84  N          3.2080    0.1980   23.1990 N.3    86  LEU86      -0.1245
     85  CA         2.2870    1.2120   22.7050 C.3    86  LEU86       0.1561
     86  C          2.4630    2.5220   23.4650 C.2    86  LEU86       0.2260
     87  O          2.6020    3.5880   22.8640 O.2    86  LEU86      -0.2867
     88  CB         0.8430    0.7160   22.8220 C.3    86  LEU86       0.0270
     89  CG        -0.2610    1.6980   22.4200 C.3    86  LEU86       0.0019
     90  CD1       -0.0330    2.2230   21.0080 C.3    86  LEU86       0.0001
     91  CD2       -1.6340    1.0530   22.5470 C.3    86  LEU86       0.0001
     92  N         -0.4740    3.6410   17.5050 N.3    99  PHE99      -0.1241
     93  CA        -0.5550    2.2050   17.2680 C.3    99  PHE99       0.1605
     94  C          0.4370    1.8010   16.1840 C.2    99  PHE99       0.2264
     95  O          1.0460    0.7310   16.2440 O.2    99  PHE99      -0.2867
     96  CB        -1.9780    1.8060   16.8710 C.3    99  PHE99       0.0534
     97  CG        -2.9870    1.9910   17.9710 C.ar   99  PHE99      -0.0203
     98  CD1       -3.2890    0.9500   18.8380 C.ar   99  PHE99      -0.0042
     99  CD2       -3.6280    3.2060   18.1430 C.ar   99  PHE99      -0.0042
    100  CE1       -4.2190    1.1200   19.8600 C.ar   99  PHE99      -0.0003
    101  CE2       -4.5580    3.3820   19.1580 C.ar   99  PHE99      -0.0003
    102  CZ        -4.8520    2.3360   20.0170 C.ar   99  PHE99      -0.0000
    103  N        -13.7590    0.7640   24.4040 N.3   116  MET116     -0.1245
    104  CA       -12.3600    1.0720   24.1360 C.3   116  MET116      0.1570
    105  C        -11.9040    2.3510   24.8360 C.2   116  MET116      0.2261
    106  O        -10.7170    2.5290   25.1110 O.2   116  MET116     -0.2867
    107  CB       -12.1320    1.1950   22.6260 C.3   116  MET116      0.0387
    108  CG       -10.6750    1.1200   22.2110 C.3   116  MET116      0.0595
    109  SD        -9.9110   -0.4390   22.7210 S.3   116  MET116     -0.1393
    110  CE       -10.8910   -1.6080   21.7980 C.3   116  MET116      0.0692
    111  N         -9.9590    2.1050   28.3820 N.3   119  ILE119     -0.1231
    112  CA        -8.6090    1.5780   28.2370 C.3   119  ILE119      0.1692
    113  C         -7.6870    2.5800   27.5400 C.2   119  ILE119      0.2592
    114  O         -6.5120    2.6940   27.8840 O.2   119  ILE119     -0.2718
    115  CB        -8.6210    0.2270   27.5010 C.3   119  ILE119      0.0266
    116  CG1       -9.4980   -0.7660   28.2710 C.3   119  ILE119      0.0019
    117  CG2       -7.2090   -0.3120   27.3440 C.3   119  ILE119      0.0020
    118  CD1       -9.7010   -2.0890   27.5740 C.3   119  ILE119      0.0001
    119  N         -8.2270    3.3130   26.5720 N.am  120  PHE120     -0.1976
    120  CA        -7.4790    4.3840   25.9220 C.3   120  PHE120      0.1639
    121  C         -6.9930    5.4050   26.9450 C.2   120  PHE120      0.2290
    122  O         -5.8320    5.8170   26.9190 O.2   120  PHE120     -0.2864
    123  CB        -8.3400    5.0760   24.8640 C.3   120  PHE120      0.0560
    124  CG        -8.1080    4.5730   23.4660 C.ar  120  PHE120     -0.0200
    125  CD1       -7.7870    5.4520   22.4450 C.ar  120  PHE120     -0.0042
    126  CD2       -8.2010    3.2210   23.1760 C.ar  120  PHE120     -0.0042
    127  CE1       -7.5720    4.9940   21.1580 C.ar  120  PHE120     -0.0003
    128  CE2       -7.9840    2.7540   21.8910 C.ar  120  PHE120     -0.0003
    129  CZ        -7.6720    3.6410   20.8810 C.ar  120  PHE120     -0.0000
    130  N         -4.1300    4.0260   29.0260 N.3   123  LEU123     -0.1245
    131  CA        -2.9290    4.0420   28.1980 C.3   123  LEU123      0.1561
    132  C         -2.3870    5.4680   28.0870 C.2   123  LEU123      0.2260
    133  O         -1.1860    5.6960   28.2280 O.2   123  LEU123     -0.2867
    134  CB        -3.2140    3.4400   26.8170 C.3   123  LEU123      0.0270
    135  CG        -3.4750    1.9280   26.8120 C.3   123  LEU123      0.0019
    136  CD1       -4.3840    1.5080   25.6610 C.3   123  LEU123      0.0001
    137  CD2       -2.1700    1.1410   26.7870 C.3   123  LEU123      0.0001
    138  N         -7.9290   -4.9260   29.4250 N.3   214  GLY214     -0.1225
    139  CA        -7.8340   -5.1780   27.9990 C.3   214  GLY214      0.1811
    140  C         -8.2290   -6.5990   27.6490 C.2   214  GLY214      0.2280
    141  O         -8.9340   -6.8330   26.6690 O.2   214  GLY214     -0.2866
    142  N        -11.8380   -6.9140   27.5400 N.3   217  HIS217     -0.1226
    143  CA       -12.4170   -6.2820   26.3640 C.3   217  HIS217      0.1752
    144  C        -12.2710   -7.1930   25.1490 C.2   217  HIS217      0.2595
    145  O        -13.1830   -7.3100   24.3310 O.2   217  HIS217     -0.2718
    146  CB       -11.7660   -4.9280   26.0900 C.3   217  HIS217      0.0759
    147  CG       -12.4290   -4.1600   24.9900 C.ar  217  HIS217      0.0818
    148  ND1      -12.1990   -4.4230   23.6570 N.ar  217  HIS217     -0.2268
    149  CD2      -13.3280   -3.1480   25.0250 C.ar  217  HIS217      0.1154
    150  CE1      -12.9250   -3.6030   22.9180 C.ar  217  HIS217      0.1986
    151  NE2      -13.6180   -2.8190   23.7230 N.ar  217  HIS217     -0.2212
    152  N        -11.1140   -7.8380   25.0470 N.am  218  LEU218     -0.1980
    153  CA       -10.8250   -8.7620   23.9570 C.3   218  LEU218      0.1596
    154  C        -11.7720   -9.9570   23.9940 C.2   218  LEU218      0.2287
    155  O        -12.3090  -10.3720   22.9660 O.2   218  LEU218     -0.2864
    156  CB        -9.3730   -9.2330   24.0480 C.3   218  LEU218      0.0297
    157  CG        -8.8290  -10.1340   22.9400 C.3   218  LEU218      0.0022
    158  CD1       -8.9340   -9.4480   21.5870 C.3   218  LEU218      0.0001
    159  CD2       -7.3890  -10.5140   23.2420 C.3   218  LEU218      0.0001
    160  N        -15.0910   -8.7600   22.8040 N.3   221  MET221     -0.1245
    161  CA       -15.0670   -8.6770   21.3450 C.3   221  MET221      0.1570
    162  C        -15.2590  -10.0440   20.7110 C.2   221  MET221      0.2261
    163  O        -16.0390  -10.2040   19.7730 O.2   221  MET221     -0.2867
    164  CB       -13.7400   -8.1040   20.8500 C.3   221  MET221      0.0387
    165  CG       -13.5970   -6.6100   21.0050 C.3   221  MET221      0.0595
    166  SD       -12.3850   -5.9740   19.8300 S.3   221  MET221     -0.1393
    167  CE       -10.9800   -7.0350   20.1550 C.3   221  MET221      0.0692
    168  N         -4.1160  -15.0470   18.6410 N.3   232  LEU232     -0.1245
    169  CA        -4.7750  -14.1860   19.6170 C.3   232  LEU232      0.1561
    170  C         -5.8060  -14.9580   20.4310 C.2   232  LEU232      0.2260
    171  O         -5.8870  -14.8040   21.6480 O.2   232  LEU232     -0.2867
    172  CB        -5.4350  -12.9830   18.9390 C.3   232  LEU232      0.0270
    173  CG        -4.6130  -11.6950   18.8940 C.3   232  LEU232      0.0019
    174  CD1       -5.4830  -10.5280   18.4470 C.3   232  LEU232      0.0001
    175  CD2       -4.0060  -11.4110   20.2570 C.3   232  LEU232      0.0001
@<TRIPOS>BOND
     1    24    25    1
     2    30    29    1
     3    25    28    1
     4    25    26    1
     5     1     2    1
     6    28    29    1
     7     9    10    1
     8     3     4    2
     9     3     2    1
    10    29    31    1
    11    22    21    1
    12    19    20    2
    13    19    18    1
    14    27    26    2
    15    26    32   am
    16     2     5    1
    17    10    11    1
    18    10    13    1
    19    37    38    1
    20    17    11   am
    21    17    18    1
    22    11    12    2
    23     5     6    1
    24    94    95    2
    25    94    93    1
    26    18    21    1
    27    16    14    1
    28    32    33    1
    29    21    23    1
    30    14    13    1
    31    14    15    1
    32    38    41    1
    33    38    39    1
    34    96    93    1
    35    96    97    1
    36    42    41    1
    37    42    43    1
    38     6     7    1
    39    34    33    1
    40    34    35    2
    41    93    92    1
    42    33    36    1
    43    39    40    2
    44    43    44   ar
    45    43    45   ar
    46    97    99   ar
    47    97    98   ar
    48    99   101   ar
    49     7     8    1
    50   174   173    1
    51   168   169    1
    52    98   100   ar
    53   173   172    1
    54   173   175    1
    55   172   169    1
    56   101   102   ar
    57   169   170    1
    58   163   162    2
    59   166   167    1
    60   166   165    1
    61   100   102   ar
    62   170   171    2
    63   162   161    1
    64   164   165    1
    65   164   161    1
    66   129   127   ar
    67   129   128   ar
    68    90    89    1
    69   127   125   ar
    70    75    73    1
    71   161   160    1
    72   158   157    1
    73   110   109    1
    74   128   126   ar
    75    74    73    1
    76   108   107    1
    77   108   109    1
    78    73    72    1
    79    89    91    1
    80    89    88    1
    81   125   124   ar
    82   107   104    1
    83    85    88    1
    84    85    84    1
    85    85    86    1
    86    87    86    2
    87   150   148   ar
    88   150   151   ar
    89   157   159    1
    90   157   156    1
    91   155   154    2
    92   126   124   ar
    93    72    69    1
    94    58    59   ar
    95    58    56   ar
    96   124   123    1
    97    71    70    2
    98   148   147   ar
    99   151   149   ar
   100    59    57   ar
   101    56    53   ar
   102    69    70    1
   103    69    68    1
   104   153   154    1
   105   153   156    1
   106   153   152    1
   107   104   103    1
   108   104   105    1
   109    70    76   am
   110   145   144    2
   111    57    55   ar
   112    53    55   ar
   113    53    51   ar
   114   105   106    2
   115   123   120    1
   116   147   149   ar
   117   147   146    1
   118   152   144   am
   119   144   143    1
   120    55    54   ar
   121    66    65    1
   122    50    51    1
   123    50    47    1
   124    76    77    1
   125    49    48    2
   126    51    52   ar
   127   136   135    1
   128   120   119    1
   129   120   121    1
   130    77    78    1
   131    77    80    1
   132    79    78    2
   133   146   143    1
   134    54    52   ar
   135    48    47    1
   136    48    60   am
   137    47    46    1
   138   143   142    1
   139   119   113   am
   140    61    60    1
   141    61    64    1
   142    61    62    1
   143   141   140    2
   144    81    80    1
   145    81    82    1
   146    63    62    2
   147    65    67    1
   148    65    64    1
   149   137   135    1
   150   135   134    1
   151   134   131    1
   152   122   121    2
   153   117   115    1
   154   115   112    1
   155   115   116    1
   156   113   114    2
   157   113   112    1
   158   118   116    1
   159    83    82    1
   160   140   139    1
   161   139   138    1
   162   132   131    1
   163   132   133    2
   164   131   130    1
   165   112   111    1
