@<TRIPOS>MOLECULE
tmp/4mg6B01.pdb
 186 175 0 0 0
SMALL
GASTEIGER

@<TRIPOS>ATOM
      1  N         36.1780   -9.8590  -24.1060 N.3    41  MET41      -0.1245
      2  CA        36.3090   -8.5310  -23.5130 C.3    41  MET41       0.1570
      3  C         37.0400   -7.5750  -24.4350 C.2    41  MET41       0.2261
      4  O         36.8490   -6.3610  -24.3580 O.2    41  MET41      -0.2867
      5  CB        37.0250   -8.6040  -22.1680 C.3    41  MET41       0.0387
      6  CG        36.1430   -9.0820  -21.0280 C.3    41  MET41       0.0595
      7  SD        34.6450   -8.0890  -20.8470 S.3    41  MET41      -0.1393
      8  CE        33.5830   -8.7940  -22.1060 C.3    41  MET41       0.0692
      9  N         34.2840   -6.6460  -27.0100 N.3    44  LEU44      -0.1231
     10  CA        33.2860   -5.7790  -26.3910 C.3    44  LEU44       0.1693
     11  C         33.8080   -4.3810  -26.0500 C.2    44  LEU44       0.2592
     12  O         33.0840   -3.3920  -26.1970 O.2    44  LEU44      -0.2718
     13  CB        32.6800   -6.4370  -25.1550 C.3    44  LEU44       0.0284
     14  CG        31.9060   -7.7320  -25.4060 C.3    44  LEU44       0.0019
     15  CD1       30.9670   -8.0120  -24.2420 C.3    44  LEU44       0.0001
     16  CD2       31.1310   -7.6420  -26.7000 C.3    44  LEU44       0.0001
     17  N         35.0500   -4.2870  -25.5850 N.am   45  THR45      -0.1953
     18  CA        35.6060   -2.9720  -25.2830 C.3    45  THR45       0.1897
     19  C         35.9210   -2.2230  -26.5710 C.2    45  THR45       0.2313
     20  O         35.7110   -1.0190  -26.6600 O.2    45  THR45      -0.2863
     21  CB        36.8550   -3.0420  -24.3880 C.3    45  THR45       0.1794
     22  OG1       37.8120   -3.9480  -24.9510 O.3    45  THR45      -0.2208
     23  CG2       36.4750   -3.5140  -23.0000 C.3    45  THR45       0.0378
     24  N         34.2740   -2.5330  -29.3450 N.3    47  LEU47      -0.1231
     25  CA        32.9720   -2.1050  -29.8520 C.3    47  LEU47       0.1693
     26  C         32.4600   -0.8850  -29.0870 C.2    47  LEU47       0.2591
     27  O         31.9890    0.0850  -29.6840 O.2    47  LEU47      -0.2718
     28  CB        31.9570   -3.2460  -29.7520 C.3    47  LEU47       0.0284
     29  CG        30.5750   -2.9820  -30.3550 C.3    47  LEU47       0.0019
     30  CD1       30.6880   -2.6600  -31.8410 C.3    47  LEU47       0.0001
     31  CD2       29.6650   -4.1740  -30.1280 C.3    47  LEU47       0.0001
     32  N         32.5610   -0.9420  -27.7640 N.am   48  ALA48      -0.1980
     33  CA        32.1450    0.1670  -26.9170 C.3    48  ALA48       0.1597
     34  C         32.9120    1.4390  -27.2620 C.2    48  ALA48       0.2287
     35  O         32.3350    2.5300  -27.3070 O.2    48  ALA48      -0.2864
     36  CB        32.3360   -0.1850  -25.4500 C.3    48  ALA48       0.0319
     37  N         31.4320    2.7540  -30.5570 N.3    51  GLU51      -0.1245
     38  CA        30.0750    3.2440  -30.3000 C.3    51  GLU51       0.1567
     39  C         30.0610    4.5310  -29.4700 C.2    51  GLU51       0.2260
     40  O         29.1930    5.3860  -29.6510 O.2    51  GLU51      -0.2867
     41  CB        29.2170    2.1740  -29.6240 C.3    51  GLU51       0.0388
     42  CG        28.7510    1.0790  -30.5590 C.3    51  GLU51       0.1160
     43  CD        27.4780    0.4100  -30.0800 C.2    51  GLU51       0.3649
     44  OE1       27.5720   -0.6370  -29.4210 O.co2  51  GLU51      -0.2457
     45  OE2       26.3820    0.9320  -30.3630 O.co2  51  GLU51      -0.2457
     46  N         26.6150    7.0940  -20.0460 N.3    80  TRP80      -0.1227
     47  CA        27.1460    6.3810  -21.2130 C.3    80  TRP80       0.1737
     48  C         26.8750    4.8690  -21.2600 C.2    80  TRP80       0.2595
     49  O         26.5380    4.3320  -22.3130 O.2    80  TRP80      -0.2718
     50  CB        28.6360    6.6730  -21.4220 C.3    80  TRP80       0.0564
     51  CG        29.5480    6.0380  -20.4220 C.ar   80  TRP80       0.0003
     52  CD1       29.9570    6.5680  -19.2320 C.ar   80  TRP80       0.0946
     53  CD2       30.1760    4.7560  -20.5270 C.ar   80  TRP80       0.0152
     54  NE1       30.8030    5.6940  -18.5920 N.ar   80  TRP80      -0.2442
     55  CE2       30.9530    4.5710  -19.3660 C.ar   80  TRP80       0.0810
     56  CE3       30.1590    3.7430  -21.4930 C.ar   80  TRP80       0.0012
     57  CZ2       31.7040    3.4180  -19.1380 C.ar   80  TRP80       0.0191
     58  CZ3       30.9060    2.5970  -21.2670 C.ar   80  TRP80       0.0001
     59  CH2       31.6610    2.4430  -20.0950 C.ar   80  TRP80       0.0015
     60  N         27.0260    4.1860  -20.1310 N.am   81  LEU81      -0.1980
     61  CA        26.8260    2.7430  -20.1120 C.3    81  LEU81       0.1596
     62  C         25.3400    2.3760  -20.1950 C.2    81  LEU81       0.2287
     63  O         24.9750    1.4110  -20.8570 O.2    81  LEU81      -0.2864
     64  CB        27.4970    2.0990  -18.8870 C.3    81  LEU81       0.0297
     65  CG        27.4890    0.5650  -18.8920 C.3    81  LEU81       0.0022
     66  CD1       27.8810    0.0100  -20.2600 C.3    81  LEU81       0.0001
     67  CD2       28.3930   -0.0070  -17.7930 C.3    81  LEU81       0.0001
     68  N         24.6140    2.6960  -23.9260 N.3    84  LEU84      -0.1231
     69  CA        25.1060    1.5500  -24.6820 C.3    84  LEU84       0.1693
     70  C         24.1990    0.3520  -24.4430 C.2    84  LEU84       0.2591
     71  O         23.8620   -0.3840  -25.3690 O.2    84  LEU84      -0.2718
     72  CB        26.5320    1.1830  -24.2610 C.3    84  LEU84       0.0284
     73  CG        27.6780    2.1150  -24.6300 C.3    84  LEU84       0.0019
     74  CD1       28.9820    1.5240  -24.1150 C.3    84  LEU84       0.0001
     75  CD2       27.7440    2.3210  -26.1420 C.3    84  LEU84       0.0001
     76  N         23.8100    0.1590  -23.1890 N.am   85  MET85      -0.1979
     77  CA        22.9830   -0.9810  -22.8170 C.3    85  MET85       0.1605
     78  C         21.5940   -0.9450  -23.4410 C.2    85  MET85       0.2287
     79  O         21.1300   -1.9560  -23.9750 O.2    85  MET85      -0.2864
     80  CB        22.8960   -1.1110  -21.2900 C.3    85  MET85       0.0413
     81  CG        24.1400   -1.7510  -20.6690 C.3    85  MET85       0.0598
     82  SD        24.0830   -1.8210  -18.8640 S.3    85  MET85      -0.1393
     83  CE        25.4100   -2.9940  -18.5530 C.3    85  MET85       0.0692
     84  N         21.9660   -1.8350  -26.9950 N.3    88  LEU88      -0.1245
     85  CA        22.1650   -3.2820  -27.0960 C.3    88  LEU88       0.1561
     86  C         20.8510   -4.0410  -26.9480 C.2    88  LEU88       0.2260
     87  O         20.5380   -4.9260  -27.7450 O.2    88  LEU88      -0.2867
     88  CB        23.1650   -3.7640  -26.0370 C.3    88  LEU88       0.0270
     89  CG        23.4010   -5.2720  -25.8920 C.3    88  LEU88       0.0019
     90  CD1       23.9720   -5.8690  -27.1690 C.3    88  LEU88       0.0001
     91  CD2       24.3250   -5.5670  -24.7160 C.3    88  LEU88       0.0001
     92  N         18.5690   -3.5100  -30.0170 N.3    91  ARG91      -0.1245
     93  CA        19.0840   -4.3130  -31.1250 C.3    91  ARG91       0.1563
     94  C         18.7180   -5.7820  -30.9940 C.2    91  ARG91       0.2260
     95  O         18.5310   -6.4670  -31.9940 O.2    91  ARG91      -0.2867
     96  CB        20.6110   -4.2180  -31.2060 C.3    91  ARG91       0.0307
     97  CG        21.1290   -2.8970  -31.6850 C.3    91  ARG91       0.0489
     98  CD        22.5380   -3.0180  -32.2310 C.3    91  ARG91       0.2205
     99  NE        23.5400   -3.3830  -31.2300 N.pl3  91  ARG91      -0.0865
    100  CZ        24.1810   -2.5050  -30.4650 C.cat  91  ARG91       0.5346
    101  NH1       23.8980   -1.2150  -30.5570 N.pl3  91  ARG91       0.1354
    102  NH2       25.0950   -2.9150  -29.6000 N.pl3  91  ARG91       0.1354
    103  N         22.0450  -11.7130  -27.3140 N.3    99  LEU99      -0.1245
    104  CA        22.4200  -10.3100  -27.3230 C.3    99  LEU99       0.1561
    105  C         23.1440   -9.9940  -28.6260 C.2    99  LEU99       0.2260
    106  O         24.2040  -10.5450  -28.9020 O.2    99  LEU99      -0.2867
    107  CB        23.3090   -9.9840  -26.1210 C.3    99  LEU99       0.0270
    108  CG        22.5850  -10.0170  -24.7750 C.3    99  LEU99       0.0019
    109  CD1       23.5450   -9.7740  -23.6130 C.3    99  LEU99       0.0001
    110  CD2       21.4650   -8.9910  -24.7790 C.3    99  LEU99       0.0001
    111  N         25.3390   -7.8820  -30.0710 N.3   101  PHE101     -0.1241
    112  CA        26.3460   -6.8460  -29.8890 C.3   101  PHE101      0.1605
    113  C         26.6350   -6.1640  -31.2210 C.2   101  PHE101      0.2264
    114  O         26.8210   -4.9470  -31.2840 O.2   101  PHE101     -0.2867
    115  CB        27.6210   -7.4280  -29.2790 C.3   101  PHE101      0.0534
    116  CG        27.4960   -7.7460  -27.8190 C.ar  101  PHE101     -0.0203
    117  CD1       27.7860   -6.7880  -26.8630 C.ar  101  PHE101     -0.0042
    118  CD2       27.0760   -8.9990  -27.4020 C.ar  101  PHE101     -0.0042
    119  CE1       27.6690   -7.0750  -25.5150 C.ar  101  PHE101     -0.0003
    120  CE2       26.9550   -9.2940  -26.0580 C.ar  101  PHE101     -0.0003
    121  CZ        27.2510   -8.3300  -25.1110 C.ar  101  PHE101     -0.0000
    122  N         30.1640  -12.0930  -15.4140 N.3   118  MET118     -0.1245
    123  CA        29.4790  -11.4840  -16.5450 C.3   118  MET118      0.1570
    124  C         28.0740  -12.0260  -16.7970 C.2   118  MET118      0.2261
    125  O         27.1850  -11.2810  -17.2100 O.2   118  MET118     -0.2867
    126  CB        30.3100  -11.6320  -17.8170 C.3   118  MET118      0.0387
    127  CG        29.5360  -11.2870  -19.0760 C.3   118  MET118      0.0595
    128  SD        30.6260  -10.8040  -20.4270 S.3   118  MET118     -0.1393
    129  CE        31.6000   -9.5520  -19.6070 C.3   118  MET118      0.0692
    130  N         25.0420  -10.0600  -15.5370 N.3   121  ILE121     -0.1231
    131  CA        24.6790   -8.8690  -16.2990 C.3   121  ILE121      0.1692
    132  C         24.0430   -9.2800  -17.6230 C.2   121  ILE121      0.2592
    133  O         23.0680   -8.6810  -18.0770 O.2   121  ILE121     -0.2718
    134  CB        25.9100   -7.9800  -16.5550 C.3   121  ILE121      0.0266
    135  CG1       26.5710   -7.5990  -15.2260 C.3   121  ILE121      0.0019
    136  CG2       25.5210   -6.7320  -17.3370 C.3   121  ILE121      0.0020
    137  CD1       27.8830   -6.8630  -15.3800 C.3   121  ILE121      0.0001
    138  N         24.5990  -10.3250  -18.2210 N.am  122  PHE122     -0.1976
    139  CA        24.0710  -10.9000  -19.4450 C.3   122  PHE122      0.1639
    140  C         22.5900  -11.2520  -19.2670 C.2   122  PHE122      0.2290
    141  O         21.7470  -10.8850  -20.0850 O.2   122  PHE122     -0.2864
    142  CB        24.8760  -12.1540  -19.7960 C.3   122  PHE122      0.0560
    143  CG        24.9550  -12.4390  -21.2660 C.ar  122  PHE122     -0.0200
    144  CD1       26.0870  -12.1040  -21.9850 C.ar  122  PHE122     -0.0042
    145  CD2       23.9050  -13.0530  -21.9260 C.ar  122  PHE122     -0.0042
    146  CE1       26.1730  -12.3720  -23.3390 C.ar  122  PHE122     -0.0003
    147  CE2       23.9830  -13.3210  -23.2820 C.ar  122  PHE122     -0.0003
    148  CZ        25.1190  -12.9810  -23.9890 C.ar  122  PHE122     -0.0000
    149  N         20.2720   -8.1710  -19.0060 N.3   125  LEU125     -0.1245
    150  CA        20.0890   -7.5930  -20.3360 C.3   125  LEU125      0.1561
    151  C         19.0750   -8.3870  -21.1560 C.2   125  LEU125      0.2260
    152  O         18.2120   -7.8090  -21.8080 O.2   125  LEU125     -0.2867
    153  CB        21.4330   -7.5010  -21.0730 C.3   125  LEU125      0.0270
    154  CG        22.4010   -6.4570  -20.5040 C.3   125  LEU125      0.0019
    155  CD1       23.8250   -6.7080  -20.9670 C.3   125  LEU125      0.0001
    156  CD2       21.9570   -5.0380  -20.8740 C.3   125  LEU125      0.0001
    157  N         27.4470   -3.2210  -14.3700 N.3   208  GLY208     -0.1225
    158  CA        28.3900   -3.2990  -15.4740 C.3   208  GLY208      0.1811
    159  C         29.6130   -2.4380  -15.2340 C.2   208  GLY208      0.2280
    160  O         30.7180   -2.7760  -15.6560 O.2   208  GLY208     -0.2866
    161  N         31.8820   -4.2590  -12.9880 N.3   211  HIS211     -0.1226
    162  CA        32.5280   -5.3170  -13.7500 C.3   211  HIS211      0.1752
    163  C         33.6750   -4.7940  -14.6090 C.2   211  HIS211      0.2595
    164  O         34.7210   -5.4340  -14.7210 O.2   211  HIS211     -0.2718
    165  CB        31.5130   -6.0490  -14.6280 C.3   211  HIS211      0.0759
    166  CG        32.0840   -7.2440  -15.3200 C.ar  211  HIS211      0.0818
    167  ND1       32.5220   -7.2080  -16.6260 N.ar  211  HIS211     -0.2268
    168  CD2       32.3180   -8.5010  -14.8780 C.ar  211  HIS211      0.1154
    169  CE1       32.9860   -8.3980  -16.9640 C.ar  211  HIS211      0.1986
    170  NE2       32.8750   -9.2000  -15.9200 N.ar  211  HIS211     -0.2212
    171  N         33.4730   -3.6340  -15.2230 N.am  212  LEU212     -0.1980
    172  CA        34.5080   -3.0380  -16.0560 C.3   212  LEU212      0.1596
    173  C         35.6880   -2.6250  -15.1870 C.2   212  LEU212      0.2287
    174  O         36.8420   -2.7000  -15.6070 O.2   212  LEU212     -0.2864
    175  CB        33.9600   -1.8310  -16.8130 C.3   212  LEU212      0.0297
    176  CG        34.9310   -1.1020  -17.7360 C.3   212  LEU212      0.0022
    177  CD1       35.5080   -2.0570  -18.7770 C.3   212  LEU212      0.0001
    178  CD2       34.2380    0.0850  -18.4010 C.3   212  LEU212      0.0001
    179  N         37.7560    5.0480  -22.8470 N.3   226  LEU226     -0.1245
    180  CA        36.9840    4.1320  -22.0230 C.3   226  LEU226      0.1561
    181  C         37.4100    4.2210  -20.5580 C.2   226  LEU226      0.2260
    182  O         36.5730    4.1520  -19.6590 O.2   226  LEU226     -0.2867
    183  CB        37.1180    2.7010  -22.5510 C.3   226  LEU226      0.0270
    184  CG        36.0320    1.7280  -22.1030 C.3   226  LEU226      0.0019
    185  CD1       34.6570    2.2730  -22.4670 C.3   226  LEU226      0.0001
    186  CD2       36.2500    0.3520  -22.7200 C.3   226  LEU226      0.0001
@<TRIPOS>BOND
     1    98    97    1
     2    98    99    1
     3    95    94    2
     4    30    29    1
     5    97    96    1
     6   114   113    2
     7    99   100    2
     8   113   112    1
     9    96    93    1
    10    93    94    1
    11    93    92    1
    12    42    43    1
    13    42    41    1
    14    37    38    1
    15   101   100    1
    16   100   102    1
    17    45    43   ar
    18    29    31    1
    19    29    28    1
    20    38    41    1
    21    38    39    1
    22    43    44   ar
    23   111   112    1
    24   112   115    1
    25    25    28    1
    26    25    24    1
    27    25    26    1
    28    27    26    2
    29    40    39    2
    30   115   116    1
    31    26    32   am
    32   106   105    2
    33   105   104    1
    34   116   118   ar
    35   116   117   ar
    36    32    33    1
    37    87    86    2
    38   118   120   ar
    39   104   103    1
    40   104   107    1
    41    35    34    2
    42    34    33    1
    43    90    89    1
    44    85    84    1
    45    85    86    1
    46    85    88    1
    47     9    10    1
    48    33    36    1
    49   117   119   ar
    50    16    14    1
    51    20    19    2
    52    19    18    1
    53    10    11    1
    54    10    13    1
    55    12    11    2
    56    75    73    1
    57   107   108    1
    58   120   121   ar
    59    11    17   am
    60    88    89    1
    61    89    91    1
    62    17    18    1
    63   119   121   ar
    64    14    13    1
    65    14    15    1
    66    71    70    2
    67    18    21    1
    68    22    21    1
    69   110   108    1
    70   108   109    1
    71    69    70    1
    72    69    72    1
    73    69    68    1
    74    73    72    1
    75    73    74    1
    76    70    76   am
    77     3     4    2
    78     3     2    1
    79    21    23    1
    80     1     2    1
    81   148   146   ar
    82   148   147   ar
    83    79    78    2
    84     2     5    1
    85    78    77    1
    86   146   144   ar
    87   147   145   ar
    88    76    77    1
    89   179   180    1
    90    77    80    1
    91   186   184    1
    92   183   184    1
    93   183   180    1
    94   185   184    1
    95    49    48    2
    96     5     6    1
    97     8     7    1
    98   180   181    1
    99   144   143   ar
   100   145   143   ar
   101   152   151    2
   102    56    58   ar
   103    56    53   ar
   104    50    47    1
   105    50    51    1
   106    80    81    1
   107    58    59   ar
   108   143   142    1
   109    48    47    1
   110    48    60   am
   111    47    46    1
   112   151   150    1
   113   153   154    1
   114   153   150    1
   115     6     7    1
   116   155   154    1
   117   156   154    1
   118    63    62    2
   119    81    82    1
   120   181   182    2
   121    53    51   ar
   122    53    55   ar
   123   128   129    1
   124   128   127    1
   125    51    52   ar
   126   150   149    1
   127    66    65    1
   128    62    61    1
   129    60    61    1
   130    61    64    1
   131    59    57   ar
   132   141   140    2
   133   142   139    1
   134   139   140    1
   135   139   138    1
   136    55    57   ar
   137    55    54   ar
   138    52    54   ar
   139   127   126    1
   140    65    64    1
   141    65    67    1
   142    82    83    1
   143   177   176    1
   144   178   176    1
   145   138   132   am
   146   133   132    2
   147   126   123    1
   148   176   175    1
   149   132   131    1
   150   136   134    1
   151   125   124    2
   152   169   167   ar
   153   169   170   ar
   154   175   172    1
   155   124   123    1
   156   167   166   ar
   157   134   131    1
   158   134   135    1
   159   123   122    1
   160   131   130    1
   161   172   171    1
   162   172   173    1
   163   170   168   ar
   164   160   159    2
   165   174   173    2
   166   158   159    1
   167   158   157    1
   168   137   135    1
   169   166   168   ar
   170   166   165    1
   171   171   163   am
   172   164   163    2
   173   165   162    1
   174   163   162    1
   175   162   161    1
