@<TRIPOS>MOLECULE
tmp/4mg7B01.pdb
 186 175 0 0 0
SMALL
GASTEIGER

@<TRIPOS>ATOM
      1  N        -18.6210  -18.1620   52.0870 N.3    41  MET41      -0.1245
      2  CA       -18.6870  -16.8060   51.5510 C.3    41  MET41       0.1570
      3  C        -19.4550  -15.8720   52.4800 C.2    41  MET41       0.2261
      4  O        -19.1880  -14.6730   52.5250 O.2    41  MET41      -0.2867
      5  CB       -19.3060  -16.7960   50.1510 C.3    41  MET41       0.0387
      6  CG       -18.4750  -17.5220   49.1060 C.3    41  MET41       0.0595
      7  SD       -16.7230  -17.0950   49.1780 S.3    41  MET41      -0.1393
      8  CE       -16.7910  -15.3150   49.0300 C.3    41  MET41       0.0692
      9  N        -16.8690  -14.8790   54.9500 N.3    44  LEU44      -0.1231
     10  CA       -15.8540  -14.0370   54.3200 C.3    44  LEU44       0.1693
     11  C        -16.3470  -12.6270   54.0050 C.2    44  LEU44       0.2592
     12  O        -15.6440  -11.6510   54.2610 O.2    44  LEU44      -0.2718
     13  CB       -15.3080  -14.6970   53.0530 C.3    44  LEU44       0.0284
     14  CG       -14.6330  -16.0530   53.2510 C.3    44  LEU44       0.0019
     15  CD1      -13.9570  -16.5050   51.9600 C.3    44  LEU44       0.0001
     16  CD2      -13.6330  -15.9830   54.3920 C.3    44  LEU44       0.0001
     17  N        -17.5460  -12.5200   53.4430 N.am   45  THR45      -0.1953
     18  CA       -18.1060  -11.2130   53.1110 C.3    45  THR45       0.1897
     19  C        -18.4230  -10.4050   54.3710 C.2    45  THR45       0.2313
     20  O        -18.2330   -9.1890   54.4040 O.2    45  THR45      -0.2863
     21  CB       -19.3680  -11.3340   52.2290 C.3    45  THR45       0.1794
     22  OG1      -20.3300  -12.1780   52.8740 O.3    45  THR45      -0.2208
     23  CG2      -19.0150  -11.9240   50.8730 C.3    45  THR45       0.0378
     24  N        -16.8160  -10.7100   57.2180 N.3    47  LEU47      -0.1231
     25  CA       -15.5010  -10.3220   57.7120 C.3    47  LEU47       0.1693
     26  C        -14.9480   -9.1490   56.9110 C.2    47  LEU47       0.2591
     27  O        -14.4780   -8.1630   57.4790 O.2    47  LEU47      -0.2718
     28  CB       -14.5370  -11.5060   57.6360 C.3    47  LEU47       0.0284
     29  CG       -13.1420  -11.2950   58.2250 C.3    47  LEU47       0.0019
     30  CD1      -13.2240  -10.9980   59.7190 C.3    47  LEU47       0.0001
     31  CD2      -12.2780  -12.5150   57.9690 C.3    47  LEU47       0.0001
     32  N        -15.0130   -9.2650   55.5880 N.am   48  ALA48      -0.1980
     33  CA       -14.5220   -8.2230   54.6970 C.3    48  ALA48       0.1597
     34  C        -15.2280   -6.8990   54.9680 C.2    48  ALA48       0.2287
     35  O        -14.5960   -5.8430   55.0110 O.2    48  ALA48      -0.2864
     36  CB       -14.7060   -8.6390   53.2380 C.3    48  ALA48       0.0319
     37  N        -13.8530   -5.4320   58.1050 N.3    51  GLU51      -0.1245
     38  CA       -12.4920   -4.9590   57.8570 C.3    51  GLU51       0.1567
     39  C        -12.4810   -3.6510   57.0600 C.2    51  GLU51       0.2260
     40  O        -11.6000   -2.8100   57.2440 O.2    51  GLU51      -0.2867
     41  CB       -11.6540   -6.0270   57.1450 C.3    51  GLU51       0.0388
     42  CG       -11.0950   -7.1010   58.0650 C.3    51  GLU51       0.1160
     43  CD        -9.7820   -7.6810   57.5570 C.2    51  GLU51       0.3649
     44  OE1       -9.8020   -8.4340   56.5610 O.co2  51  GLU51      -0.2457
     45  OE2       -8.7260   -7.3790   58.1520 O.co2  51  GLU51      -0.2457
     46  N         -9.1060   -0.9110   47.6950 N.3    80  TRP80      -0.1227
     47  CA        -9.6790   -1.6320   48.8350 C.3    80  TRP80       0.1737
     48  C         -9.4100   -3.1420   48.8540 C.2    80  TRP80       0.2595
     49  O         -9.0480   -3.6930   49.8920 O.2    80  TRP80      -0.2718
     50  CB       -11.1760   -1.3420   48.9930 C.3    80  TRP80       0.0564
     51  CG       -12.0510   -2.0030   47.9770 C.ar   80  TRP80       0.0003
     52  CD1      -12.4090   -1.5090   46.7580 C.ar   80  TRP80       0.0946
     53  CD2      -12.6900   -3.2790   48.0960 C.ar   80  TRP80       0.0152
     54  NE1      -13.2300   -2.3980   46.1090 N.ar   80  TRP80      -0.2442
     55  CE2      -13.4180   -3.4940   46.9100 C.ar   80  TRP80       0.0810
     56  CE3      -12.7170   -4.2610   49.0910 C.ar   80  TRP80       0.0012
     57  CZ2      -14.1630   -4.6510   46.6890 C.ar   80  TRP80       0.0191
     58  CZ3      -13.4570   -5.4100   48.8700 C.ar   80  TRP80       0.0001
     59  CH2      -14.1680   -5.5950   47.6790 C.ar   80  TRP80       0.0015
     60  N         -9.5800   -3.8110   47.7190 N.am   81  LEU81      -0.1980
     61  CA        -9.3990   -5.2600   47.6850 C.3    81  LEU81       0.1596
     62  C         -7.9280   -5.6600   47.8070 C.2    81  LEU81       0.2287
     63  O         -7.6000   -6.6360   48.4830 O.2    81  LEU81      -0.2864
     64  CB       -10.0350   -5.8710   46.4330 C.3    81  LEU81       0.0297
     65  CG       -10.0310   -7.4040   46.3820 C.3    81  LEU81       0.0022
     66  CD1      -10.4670   -8.0080   47.7170 C.3    81  LEU81       0.0001
     67  CD2      -10.9050   -7.9130   45.2450 C.3    81  LEU81       0.0001
     68  N         -7.1730   -5.4170   51.4500 N.3    84  LEU84      -0.1231
     69  CA        -7.7320   -6.5550   52.1680 C.3    84  LEU84       0.1693
     70  C         -6.8460   -7.7770   51.9660 C.2    84  LEU84       0.2591
     71  O         -6.5530   -8.5100   52.9120 O.2    84  LEU84      -0.2718
     72  CB        -9.1560   -6.8630   51.6970 C.3    84  LEU84       0.0284
     73  CG       -10.2830   -5.9720   52.2220 C.3    84  LEU84       0.0019
     74  CD1      -11.6240   -6.4910   51.7370 C.3    84  LEU84       0.0001
     75  CD2      -10.2600   -5.9080   53.7440 C.3    84  LEU84       0.0001
     76  N         -6.4140   -7.9820   50.7270 N.am   85  MET85      -0.1979
     77  CA        -5.6340   -9.1640   50.3760 C.3    85  MET85       0.1605
     78  C         -4.2260   -9.1710   50.9620 C.2    85  MET85       0.2287
     79  O         -3.7680  -10.2020   51.4540 O.2    85  MET85      -0.2864
     80  CB        -5.5920   -9.3620   48.8570 C.3    85  MET85       0.0413
     81  CG        -6.8520  -10.0050   48.3080 C.3    85  MET85       0.0598
     82  SD        -6.8610  -10.1890   46.5170 S.3    85  MET85      -0.1393
     83  CE        -8.2930  -11.2470   46.3070 C.3    85  MET85       0.0692
     84  N         -4.5740  -10.0450   54.5260 N.3    88  LEU88      -0.1245
     85  CA        -4.7930  -11.4830   54.6470 C.3    88  LEU88       0.1561
     86  C         -3.4760  -12.2410   54.5220 C.2    88  LEU88       0.2260
     87  O         -3.1610  -13.1020   55.3440 O.2    88  LEU88      -0.2867
     88  CB        -5.7720  -11.9660   53.5740 C.3    88  LEU88       0.0270
     89  CG        -5.9570  -13.4810   53.4400 C.3    88  LEU88       0.0019
     90  CD1       -6.4470  -14.0870   54.7530 C.3    88  LEU88       0.0001
     91  CD2       -6.9110  -13.8150   52.3050 C.3    88  LEU88       0.0001
     92  N         -1.2180  -11.7740   57.6580 N.3    91  ARG91      -0.1245
     93  CA        -1.6660  -12.5970   58.7810 C.3    91  ARG91       0.1563
     94  C         -1.3200  -14.0700   58.5840 C.2    91  ARG91       0.2260
     95  O         -1.1430  -14.8080   59.5510 O.2    91  ARG91      -0.2867
     96  CB        -3.1770  -12.4620   58.9880 C.3    91  ARG91       0.0307
     97  CG        -3.6390  -11.0720   59.3690 C.3    91  ARG91       0.0489
     98  CD        -5.0690  -11.0890   59.8900 C.3    91  ARG91       0.2205
     99  NE        -6.0580  -11.4690   58.8810 N.pl3  91  ARG91      -0.0865
    100  CZ        -6.6910  -10.6020   58.0970 C.cat  91  ARG91       0.5346
    101  NH1       -6.4250   -9.3070   58.1910 N.pl3  91  ARG91       0.1354
    102  NH2       -7.5850  -11.0280   57.2160 N.pl3  91  ARG91       0.1354
    103  N         -7.8710  -16.0040   57.5700 N.3   101  PHE101     -0.1241
    104  CA        -8.8720  -14.9620   57.3890 C.3   101  PHE101      0.1605
    105  C         -9.1720  -14.3060   58.7310 C.2   101  PHE101      0.2264
    106  O         -9.3820  -13.0950   58.8140 O.2   101  PHE101     -0.2867
    107  CB       -10.1420  -15.5350   56.7610 C.3   101  PHE101      0.0534
    108  CG        -9.9640  -15.9780   55.3370 C.ar  101  PHE101     -0.0203
    109  CD1      -10.1840  -15.0970   54.2920 C.ar  101  PHE101     -0.0042
    110  CD2       -9.5700  -17.2730   55.0440 C.ar  101  PHE101     -0.0042
    111  CE1      -10.0180  -15.5000   52.9770 C.ar  101  PHE101     -0.0003
    112  CE2       -9.4020  -17.6850   53.7310 C.ar  101  PHE101     -0.0003
    113  CZ        -9.6270  -16.7970   52.6960 C.ar  101  PHE101     -0.0000
    114  N        -12.5420  -20.5820   43.1340 N.3   117  MET117     -0.1245
    115  CA       -11.9430  -20.0040   44.3310 C.3   117  MET117      0.1570
    116  C        -10.4840  -20.4170   44.5170 C.2   117  MET117      0.2261
    117  O         -9.6360  -19.5890   44.8470 O.2   117  MET117     -0.2867
    118  CB       -12.7550  -20.3690   45.5750 C.3   117  MET117      0.0387
    119  CG       -12.1740  -19.8120   46.8660 C.3   117  MET117      0.0595
    120  SD       -13.1220  -20.2750   48.3280 S.3   117  MET117     -0.1393
    121  CE       -12.1670  -19.4800   49.6210 C.3   117  MET117      0.0692
    122  N         -7.5240  -18.3080   43.0120 N.3   120  ILE120     -0.1231
    123  CA        -7.1690  -17.1260   43.7850 C.3   120  ILE120      0.1692
    124  C         -6.5370  -17.5390   45.1110 C.2   120  ILE120      0.2592
    125  O         -5.6250  -16.8790   45.6110 O.2   120  ILE120     -0.2718
    126  CB        -8.4020  -16.2420   44.0500 C.3   120  ILE120      0.0266
    127  CG1       -9.0560  -15.8330   42.7260 C.3   120  ILE120      0.0019
    128  CG2       -8.0160  -15.0190   44.8700 C.3   120  ILE120      0.0020
    129  CD1      -10.3510  -15.0590   42.8880 C.3   120  ILE120      0.0001
    130  N         -7.0270  -18.6440   45.6640 N.am  121  PHE121     -0.1976
    131  CA        -6.5340  -19.1740   46.9290 C.3   121  PHE121      0.1639
    132  C         -5.0450  -19.4970   46.8220 C.2   121  PHE121      0.2290
    133  O         -4.2520  -19.1010   47.6750 O.2   121  PHE121     -0.2864
    134  CB        -7.3220  -20.4340   47.3060 C.3   121  PHE121      0.0560
    135  CG        -7.3170  -20.7440   48.7780 C.ar  121  PHE121     -0.0200
    136  CD1       -6.2140  -21.3320   49.3760 C.ar  121  PHE121     -0.0042
    137  CD2       -8.4250  -20.4620   49.5620 C.ar  121  PHE121     -0.0042
    138  CE1       -6.2120  -21.6210   50.7260 C.ar  121  PHE121     -0.0003
    139  CE2       -8.4280  -20.7500   50.9130 C.ar  121  PHE121     -0.0003
    140  CZ        -7.3210  -21.3320   51.4960 C.ar  121  PHE121     -0.0000
    141  N         -2.8470  -16.4490   46.6470 N.3   124  LEU124     -0.1245
    142  CA        -2.6810  -15.8570   47.9680 C.3   124  LEU124      0.1561
    143  C         -1.6460  -16.6260   48.7870 C.2   124  LEU124      0.2260
    144  O         -0.8160  -16.0270   49.4680 O.2   124  LEU124     -0.2867
    145  CB        -4.0210  -15.7990   48.7030 C.3   124  LEU124      0.0270
    146  CG        -5.0350  -14.8170   48.1070 C.3   124  LEU124      0.0019
    147  CD1       -6.4410  -15.0680   48.6320 C.3   124  LEU124      0.0001
    148  CD2       -4.6060  -13.3760   48.3590 C.3   124  LEU124      0.0001
    149  N        -10.0180  -11.3090   41.9590 N.3   206  GLY206     -0.1225
    150  CA       -10.9540  -11.3600   43.0650 C.3   206  GLY206      0.1811
    151  C        -12.1840  -10.5240   42.7740 C.2   206  GLY206      0.2280
    152  O        -13.3000  -10.8870   43.1470 O.2   206  GLY206     -0.2866
    153  N        -14.4940  -12.3290   40.4780 N.3   209  HIS209     -0.1226
    154  CA       -15.1350  -13.3890   41.2480 C.3   209  HIS209      0.1752
    155  C        -16.2670  -12.8240   42.1040 C.2   209  HIS209      0.2595
    156  O        -17.3390  -13.4210   42.2110 O.2   209  HIS209     -0.2718
    157  CB       -14.1080  -14.1000   42.1320 C.3   209  HIS209      0.0759
    158  CG       -14.6080  -15.3750   42.7360 C.ar  209  HIS209      0.0818
    159  ND1      -15.5130  -15.4030   43.7760 N.ar  209  HIS209     -0.2268
    160  CD2      -14.3290  -16.6680   42.4450 C.ar  209  HIS209      0.1154
    161  CE1      -15.7700  -16.6580   44.0980 C.ar  209  HIS209      0.1986
    162  NE2      -15.0640  -17.4450   43.3070 N.ar  209  HIS209     -0.2212
    163  N        -16.0190  -11.6680   42.7130 N.am  210  LEU210     -0.1980
    164  CA       -17.0210  -11.0030   43.5350 C.3   210  LEU210      0.1596
    165  C        -18.1960  -10.5670   42.6700 C.2   210  LEU210      0.2287
    166  O        -19.3450  -10.5840   43.1090 O.2   210  LEU210     -0.2864
    167  CB       -16.4130   -9.7930   44.2420 C.3   210  LEU210      0.0297
    168  CG       -17.3080   -9.0300   45.2200 C.3   210  LEU210      0.0022
    169  CD1      -17.8750   -9.9650   46.2820 C.3   210  LEU210      0.0001
    170  CD2      -16.5310   -7.8890   45.8630 C.3   210  LEU210      0.0001
    171  N        -20.3940  -13.5580   41.9380 N.3   213  MET213     -0.1245
    172  CA       -21.1070  -13.7880   43.1920 C.3   213  MET213      0.1570
    173  C        -22.3370  -12.8950   43.2720 C.2   213  MET213      0.2261
    174  O        -23.4320  -13.3570   43.5860 O.2   213  MET213     -0.2867
    175  CB       -20.2050  -13.5130   44.3980 C.3   213  MET213      0.0387
    176  CG       -19.3450  -14.6850   44.8310 C.3   213  MET213      0.0595
    177  SD       -18.2530  -14.2490   46.2000 S.3   213  MET213     -0.1393
    178  CE       -19.4350  -13.6760   47.4200 C.3   213  MET213      0.0692
    179  N        -20.1630   -3.1680   50.6010 N.3   224  LEU224     -0.1245
    180  CA       -19.3740   -4.0720   49.7780 C.3   224  LEU224      0.1561
    181  C        -19.8280   -3.9970   48.3210 C.2   224  LEU224      0.2260
    182  O        -19.0130   -4.0750   47.4020 O.2   224  LEU224     -0.2867
    183  CB       -19.4730   -5.5030   50.3120 C.3   224  LEU224      0.0270
    184  CG       -18.5350   -6.5380   49.6890 C.3   224  LEU224      0.0019
    185  CD1      -17.0860   -6.0780   49.7780 C.3   224  LEU224      0.0001
    186  CD2      -18.7140   -7.8910   50.3600 C.3   224  LEU224      0.0001
@<TRIPOS>BOND
     1   153   154    1
     2   154   155    1
     3   154   157    1
     4   171   172    1
     5   149   150    1
     6   155   156    2
     7   155   163   am
     8   157   158    1
     9   160   158   ar
    10   160   162   ar
    11   165   166    2
    12   165   164    1
    13   163   164    1
    14   127   129    1
    15   127   126    1
    16   158   159   ar
    17   151   150    1
    18   151   152    2
    19   122   123    1
    20   114   115    1
    21   172   173    1
    22   172   175    1
    23   173   174    2
    24   162   161   ar
    25   164   167    1
    26   159   161   ar
    27   123   126    1
    28   123   124    1
    29   126   128    1
    30   167   168    1
    31   115   116    1
    32   115   118    1
    33   175   176    1
    34   116   117    2
    35   176   177    1
    36   124   125    2
    37   124   130   am
    38   168   170    1
    39   168   169    1
    40    67    65    1
    41   118   119    1
    42   130   131    1
    43    54    52   ar
    44    54    55   ar
    45   177   178    1
    46    83    82    1
    47    65    64    1
    48    65    66    1
    49    64    61    1
    50    82    81    1
    51   141   142    1
    52    57    55   ar
    53    57    59   ar
    54    52    51   ar
    55   132   131    1
    56   132   133    2
    57   119   120    1
    58    55    53   ar
    59   131   134    1
    60   134   135    1
    61   182   181    2
    62    59    58   ar
    63    61    60    1
    64    61    62    1
    65    46    47    1
    66    60    48   am
    67    62    63    2
    68   142   145    1
    69   142   143    1
    70    51    53   ar
    71    51    50    1
    72    53    56   ar
    73   146   148    1
    74   146   147    1
    75   146   145    1
    76    81    80    1
    77   181   180    1
    78   120   121    1
    79   135   136   ar
    80   135   137   ar
    81   143   144    2
    82    47    48    1
    83    47    50    1
    84    48    49    2
    85    80    77    1
    86    58    56   ar
    87     8     7    1
    88     6     7    1
    89     6     5    1
    90   136   138   ar
    91   137   139   ar
    92   184   185    1
    93   184   183    1
    94   184   186    1
    95   180   183    1
    96   180   179    1
    97     5     2    1
    98    77    76    1
    99    77    78    1
   100   138   140   ar
   101    76    70   am
   102    23    21    1
   103   139   140   ar
   104    78    79    2
   105    68    69    1
   106     2     1    1
   107     2     3    1
   108    72    69    1
   109    72    73    1
   110    74    73    1
   111    15    14    1
   112    70    69    1
   113    70    71    2
   114    73    75    1
   115    21    22    1
   116    21    18    1
   117    91    89    1
   118     3     4    2
   119   113   111   ar
   120   113   112   ar
   121   111   109   ar
   122    13    14    1
   123    13    10    1
   124    18    17    1
   125    18    19    1
   126    36    33    1
   127    14    16    1
   128    89    88    1
   129    89    90    1
   130    17    11   am
   131    88    85    1
   132   112   110   ar
   133    11    12    2
   134    11    10    1
   135   109   108   ar
   136    10     9    1
   137    19    20    2
   138    86    85    1
   139    86    87    2
   140    84    85    1
   141    33    34    1
   142    33    32    1
   143    34    35    2
   144   110   108   ar
   145   108   107    1
   146    32    26   am
   147    44    43   ar
   148   107   104    1
   149    26    27    2
   150    26    25    1
   151    39    40    2
   152    39    38    1
   153    41    38    1
   154    41    42    1
   155   102   100    1
   156    24    25    1
   157   104   103    1
   158   104   105    1
   159    43    42    1
   160    43    45   ar
   161    28    25    1
   162    28    29    1
   163    92    93    1
   164    38    37    1
   165    31    29    1
   166   100   101    1
   167   100    99    2
   168    29    30    1
   169    94    93    1
   170    94    95    2
   171   105   106    2
   172    93    96    1
   173    99    98    1
   174    96    97    1
   175    97    98    1
