@<TRIPOS>MOLECULE
tmp/4mgaA01.pdb
 176 164 0 0 0
SMALL
GASTEIGER

@<TRIPOS>ATOM
      1  N        -11.2930   -1.6190   15.2440 N.3    39  MET39      -0.1245
      2  CA       -10.7930   -2.6570   16.1370 C.3    39  MET39       0.1570
      3  C        -10.1210   -3.7690   15.3340 C.2    39  MET39       0.2261
      4  O         -9.1810   -4.4100   15.8050 O.2    39  MET39      -0.2867
      5  CB       -11.9300   -3.2240   16.9920 C.3    39  MET39       0.0387
      6  CG       -11.4720   -3.9650   18.2400 C.3    39  MET39       0.0595
      7  SD       -10.4350   -2.9360   19.2990 S.3    39  MET39      -0.1393
      8  CE       -11.3320   -1.3900   19.2340 C.3    39  MET39       0.0692
      9  N         -6.5120   -3.0290   14.7020 N.3    42  LEU42      -0.1231
     10  CA        -5.7130   -3.1660   15.9120 C.3    42  LEU42       0.1693
     11  C         -5.4340   -4.6220   16.2690 C.2    42  LEU42       0.2592
     12  O         -4.3320   -4.9580   16.7060 O.2    42  LEU42      -0.2718
     13  CB        -6.3800   -2.4360   17.0820 C.3    42  LEU42       0.0284
     14  CG        -6.5780   -0.9320   16.8800 C.3    42  LEU42       0.0019
     15  CD1       -7.2660   -0.3080   18.0790 C.3    42  LEU42       0.0001
     16  CD2       -5.2500   -0.2410   16.6030 C.3    42  LEU42       0.0001
     17  N         -6.4260   -5.4880   16.0850 N.am   43  THR43      -0.1953
     18  CA        -6.2410   -6.9080   16.3590 C.3    43  THR43       0.1897
     19  C         -5.3230   -7.5440   15.3170 C.2    43  THR43       0.2313
     20  O         -4.5340   -8.4320   15.6340 O.2    43  THR43      -0.2863
     21  CB        -7.5810   -7.6680   16.4180 C.3    43  THR43       0.1794
     22  OG1       -8.2920   -7.4890   15.1880 O.3    43  THR43      -0.2208
     23  CG2       -8.4320   -7.1550   17.5700 C.3    43  THR43       0.0378
     24  N         -2.8700   -5.9230   13.7990 N.3    45  LEU45      -0.1231
     25  CA        -1.5560   -5.4490   14.2250 C.3    45  LEU45       0.1693
     26  C         -1.0310   -6.2380   15.4300 C.2    45  LEU45       0.2591
     27  O          0.1080   -6.7040   15.4390 O.2    45  LEU45      -0.2718
     28  CB        -1.6300   -3.9540   14.5540 C.3    45  LEU45       0.0284
     29  CG        -0.4040   -3.2450   15.1340 C.3    45  LEU45       0.0019
     30  CD1        0.7380   -3.2180   14.1310 C.3    45  LEU45       0.0001
     31  CD2       -0.7740   -1.8280   15.5490 C.3    45  LEU45       0.0001
     32  N         -1.8690   -6.4060   16.4450 N.am   46  ALA46      -0.1980
     33  CA        -1.4500   -7.1410   17.6310 C.3    46  ALA46       0.1597
     34  C         -0.9580   -8.5430   17.2750 C.2    46  ALA46       0.2287
     35  O          0.0450   -9.0180   17.8120 O.2    46  ALA46      -0.2864
     36  CB        -2.5900   -7.2170   18.6350 C.3    46  ALA46       0.0319
     37  N          2.4310   -8.2930   15.7880 N.3    49  GLU49      -0.1245
     38  CA         3.3660   -7.9300   16.8540 C.3    49  GLU49       0.1567
     39  C          3.7050   -9.1080   17.7550 C.2    49  GLU49       0.2260
     40  O          4.8360   -9.2270   18.2330 O.2    49  GLU49      -0.2867
     41  CB         2.8090   -6.8030   17.7140 C.3    49  GLU49       0.0388
     42  CG         2.7570   -5.4480   17.0590 C.3    49  GLU49       0.1160
     43  CD         2.3010   -4.3920   18.0480 C.2    49  GLU49       0.3649
     44  OE1        1.0820   -4.3010   18.2960 O.co2  49  GLU49      -0.2457
     45  OE2        3.1580   -3.6780   18.6050 O.co2  49  GLU49      -0.2457
     46  N          1.6950  -11.2920   27.7270 N.3    78  TRP78      -0.1227
     47  CA         1.6660  -10.7730   26.3580 C.3    78  TRP78       0.1737
     48  C          0.9670   -9.4170   26.1930 C.2    78  TRP78       0.2595
     49  O          1.4790   -8.5370   25.5060 O.2    78  TRP78      -0.2718
     50  CB         1.1000  -11.8030   25.3750 C.3    78  TRP78       0.0564
     51  CG        -0.3690  -12.0300   25.4940 C.ar   78  TRP78       0.0003
     52  CD1       -0.9930  -12.9200   26.3110 C.ar   78  TRP78       0.0946
     53  CD2       -1.4040  -11.3690   24.7560 C.ar   78  TRP78       0.0152
     54  NE1       -2.3520  -12.8500   26.1390 N.ar   78  TRP78      -0.2442
     55  CE2       -2.6320  -11.9050   25.1900 C.ar   78  TRP78       0.0810
     56  CE3       -1.4120  -10.3730   23.7770 C.ar   78  TRP78       0.0012
     57  CZ2       -3.8550  -11.4780   24.6780 C.ar   78  TRP78       0.0191
     58  CZ3       -2.6270   -9.9530   23.2680 C.ar   78  TRP78       0.0001
     59  CH2       -3.8310  -10.5050   23.7190 C.ar   78  TRP78       0.0015
     60  N         -0.1980   -9.2410   26.8070 N.am   79  LEU79      -0.1980
     61  CA        -0.9270   -7.9820   26.6310 C.3    79  LEU79       0.1596
     62  C         -0.2550   -6.8230   27.3720 C.2    79  LEU79       0.2287
     63  O         -0.2130   -5.7040   26.8610 O.2    79  LEU79      -0.2864
     64  CB        -2.3940   -8.1160   27.0510 C.3    79  LEU79       0.0297
     65  CG        -3.2940   -6.9190   26.7240 C.3    79  LEU79       0.0022
     66  CD1       -3.1420   -6.4960   25.2610 C.3    79  LEU79       0.0001
     67  CD2       -4.7450   -7.2520   27.0430 C.3    79  LEU79       0.0001
     68  N          2.5440   -5.7940   25.0070 N.3    82  LEU82      -0.1231
     69  CA         2.0280   -4.9810   23.9070 C.3    82  LEU82       0.1693
     70  C          1.6650   -3.5680   24.3780 C.2    82  LEU82       0.2591
     71  O          1.9570   -2.5800   23.6960 O.2    82  LEU82      -0.2718
     72  CB         0.8060   -5.6380   23.2650 C.3    82  LEU82       0.0284
     73  CG         1.0180   -6.8650   22.3770 C.3    82  LEU82       0.0019
     74  CD1       -0.3260   -7.3390   21.8530 C.3    82  LEU82       0.0001
     75  CD2        1.9580   -6.5410   21.2270 C.3    82  LEU82       0.0001
     76  N          1.0230   -3.4820   25.5380 N.am   83  MET83      -0.1979
     77  CA         0.5880   -2.1970   26.0840 C.3    83  MET83       0.1605
     78  C          1.7310   -1.2690   26.4800 C.2    83  MET83       0.2287
     79  O          1.7000   -0.0850   26.1650 O.2    83  MET83      -0.2864
     80  CB        -0.3630   -2.4020   27.2670 C.3    83  MET83       0.0413
     81  CG        -1.7380   -2.8930   26.8530 C.3    83  MET83       0.0598
     82  SD        -2.8370   -3.0770   28.2750 S.3    83  MET83      -0.1393
     83  CE        -4.4130   -3.2340   27.4420 C.3    83  MET83       0.0692
     84  N          3.2070    0.0730   23.3480 N.3    86  LEU86      -0.1245
     85  CA         2.3280    1.1020   22.8090 C.3    86  LEU86       0.1561
     86  C          2.4780    2.4170   23.5690 C.2    86  LEU86       0.2260
     87  O          2.5750    3.4840   22.9650 O.2    86  LEU86      -0.2867
     88  CB         0.8720    0.6350   22.8540 C.3    86  LEU86       0.0270
     89  CG        -0.1710    1.6920   22.4820 C.3    86  LEU86       0.0019
     90  CD1        0.0620    2.2170   21.0640 C.3    86  LEU86       0.0001
     91  CD2       -1.5830    1.1370   22.6400 C.3    86  LEU86       0.0001
     92  N          5.7800    4.0500   22.5640 N.3    89  ARG89      -0.1245
     93  CA         5.7190    4.6740   21.2300 C.3    89  ARG89       0.1563
     94  C          4.9840    6.0050   21.2590 C.2    89  ARG89       0.2260
     95  O          5.2260    6.8740   20.4210 O.2    89  ARG89      -0.2867
     96  CB         4.9680    3.7850   20.2260 C.3    89  ARG89       0.0307
     97  CG         5.6030    2.4640   19.9250 C.3    89  ARG89       0.0489
     98  CD         5.0820    1.8710   18.6180 C.3    89  ARG89       0.2205
     99  NE         3.7060    1.3680   18.6700 N.pl3  89  ARG89      -0.0865
    100  CZ         3.3540    0.2120   19.2230 C.cat  89  ARG89       0.5346
    101  NH1        4.2660   -0.5490   19.8180 N.pl3  89  ARG89       0.1354
    102  NH2        2.0880   -0.1790   19.1950 N.pl3  89  ARG89       0.1354
    103  N         -0.4320    3.6880   17.6390 N.3    99  PHE99      -0.1241
    104  CA        -0.5310    2.2530   17.4150 C.3    99  PHE99       0.1605
    105  C          0.4470    1.8110   16.3420 C.2    99  PHE99       0.2264
    106  O          1.0180    0.7250   16.4100 O.2    99  PHE99      -0.2867
    107  CB        -1.9540    1.8730   17.0260 C.3    99  PHE99       0.0534
    108  CG        -2.9170    1.9330   18.1710 C.ar   99  PHE99      -0.0203
    109  CD1       -3.0660    0.8480   19.0170 C.ar   99  PHE99      -0.0042
    110  CD2       -3.6570    3.0770   18.4140 C.ar   99  PHE99      -0.0042
    111  CE1       -3.9460    0.9000   20.0820 C.ar   99  PHE99      -0.0003
    112  CE2       -4.5410    3.1330   19.4800 C.ar   99  PHE99      -0.0003
    113  CZ        -4.6810    2.0410   20.3110 C.ar   99  PHE99      -0.0000
    114  N        -13.6170   -0.0010   25.4740 N.3   114  MET114     -0.1245
    115  CA       -12.3360    0.3890   24.8990 C.3   114  MET114      0.1570
    116  C        -11.9820    1.8280   25.2680 C.2   114  MET114      0.2261
    117  O        -10.8110    2.2000   25.3150 O.2   114  MET114     -0.2867
    118  CB       -12.3620    0.2230   23.3830 C.3   114  MET114      0.0387
    119  CG       -10.9980    0.3410   22.7370 C.3   114  MET114      0.0595
    120  SD        -9.7890   -0.8120   23.4250 S.3   114  MET114     -0.1393
    121  CE       -10.4610   -2.3860   22.9060 C.3   114  MET114      0.0692
    122  N        -10.0300    1.9450   28.5500 N.3   117  ILE117     -0.1231
    123  CA        -8.7010    1.3860   28.3280 C.3   117  ILE117      0.1692
    124  C         -7.8130    2.3890   27.5970 C.2   117  ILE117      0.2592
    125  O         -6.6670    2.6090   27.9860 O.2   117  ILE117     -0.2718
    126  CB        -8.7740    0.0470   27.5870 C.3   117  ILE117      0.0266
    127  CG1       -9.4180   -1.0040   28.4970 C.3   117  ILE117      0.0019
    128  CG2       -7.3810   -0.4020   27.1520 C.3   117  ILE117      0.0020
    129  CD1      -10.1180   -2.1140   27.7590 C.3   117  ILE117      0.0001
    130  N         -8.3550    3.0140   26.5570 N.am  118  PHE118     -0.1976
    131  CA        -7.6520    4.0950   25.8700 C.3   118  PHE118      0.1639
    132  C         -7.2220    5.1730   26.8620 C.2   118  PHE118      0.2290
    133  O         -6.0780    5.6200   26.8480 O.2   118  PHE118     -0.2864
    134  CB        -8.5330    4.7050   24.7800 C.3   118  PHE118      0.0560
    135  CG        -8.3260    4.1020   23.4230 C.ar  118  PHE118     -0.0200
    136  CD1       -7.9740    4.8980   22.3450 C.ar  118  PHE118     -0.0042
    137  CD2       -8.4730    2.7390   23.2230 C.ar  118  PHE118     -0.0042
    138  CE1       -7.7800    4.3470   21.0910 C.ar  118  PHE118     -0.0003
    139  CE2       -8.2790    2.1800   21.9710 C.ar  118  PHE118     -0.0003
    140  CZ        -7.9330    2.9840   20.9040 C.ar  118  PHE118     -0.0000
    141  N         -4.2860    4.0480   29.0040 N.3   121  LEU121     -0.1245
    142  CA        -3.0440    4.0350   28.2380 C.3   121  LEU121      0.1561
    143  C         -2.4780    5.4460   28.0780 C.2   121  LEU121      0.2260
    144  O         -1.2710    5.6510   28.1970 O.2   121  LEU121     -0.2867
    145  CB        -3.2560    3.3730   26.8760 C.3   121  LEU121      0.0270
    146  CG        -3.6140    1.8860   26.9390 C.3   121  LEU121      0.0019
    147  CD1       -4.2330    1.4310   25.6250 C.3   121  LEU121      0.0001
    148  CD2       -2.3830    1.0490   27.2920 C.3   121  LEU121      0.0001
    149  N         -8.2010   -5.1420   29.5120 N.3   212  GLY212     -0.1225
    150  CA        -8.1140   -5.4400   28.0970 C.3   212  GLY212      0.1811
    151  C         -8.4560   -6.8870   27.8000 C.2   212  GLY212      0.2280
    152  O         -9.0870   -7.1830   26.7910 O.2   212  GLY212     -0.2866
    153  N        -11.3220   -8.1660   25.2790 N.3   216  LEU216     -0.1245
    154  CA       -11.0410   -9.0790   24.1800 C.3   216  LEU216      0.1561
    155  C        -11.9980  -10.2660   24.2270 C.2   216  LEU216      0.2260
    156  O        -12.4910  -10.7140   23.1980 O.2   216  LEU216     -0.2867
    157  CB        -9.5870   -9.5540   24.2340 C.3   216  LEU216      0.0270
    158  CG        -8.9120  -10.0920   22.9890 C.3   216  LEU216      0.0019
    159  CD1       -8.8010   -9.0360   21.8970 C.3   216  LEU216      0.0001
    160  CD2       -7.5210  -10.6150   23.3570 C.3   216  LEU216      0.0001
    161  N        -15.2650   -9.3480   22.8530 N.3   219  MET219     -0.1245
    162  CA       -15.1730   -9.2220   21.4030 C.3   219  MET219      0.1570
    163  C        -15.2950  -10.5800   20.7320 C.2   219  MET219      0.2261
    164  O        -15.9210  -10.7060   19.6800 O.2   219  MET219     -0.2867
    165  CB       -13.8620   -8.5490   20.9940 C.3   219  MET219      0.0387
    166  CG       -13.8750   -7.0380   21.1390 C.3   219  MET219      0.0595
    167  SD       -12.2450   -6.3410   20.8340 S.3   219  MET219     -0.1393
    168  CE       -11.7390   -7.3190   19.4290 C.3   219  MET219      0.0692
    169  N         -4.2180  -15.0930   18.7630 N.3   230  LEU230     -0.1245
    170  CA        -4.8310  -14.1940   19.7330 C.3   230  LEU230      0.1561
    171  C         -5.8910  -14.9430   20.5290 C.2   230  LEU230      0.2260
    172  O         -6.0150  -14.7740   21.7430 O.2   230  LEU230     -0.2867
    173  CB        -5.4470  -12.9950   19.0130 C.3   230  LEU230      0.0270
    174  CG        -5.2440  -11.6150   19.6390 C.3   230  LEU230      0.0019
    175  CD1       -3.8200  -11.4560   20.1430 C.3   230  LEU230      0.0001
    176  CD2       -5.5940  -10.5190   18.6380 C.3   230  LEU230      0.0001
@<TRIPOS>BOND
     1    24    25    1
     2    30    29    1
     3    25    28    1
     4    25    26    1
     5    28    29    1
     6     9    10    1
     7    29    31    1
     8    22    21    1
     9     1     2    1
    10    19    20    2
    11    19    18    1
    12     3     4    2
    13     3     2    1
    14    26    27    2
    15    26    32   am
    16    37    38    1
    17    10    11    1
    18    10    13    1
    19    17    11   am
    20    17    18    1
    21     2     5    1
    22    11    12    2
    23   105   106    2
    24   105   104    1
    25    18    21    1
    26    21    23    1
    27    32    33    1
    28    16    14    1
    29    38    41    1
    30    38    39    1
    31    14    13    1
    32    14    15    1
    33     5     6    1
    34   107   104    1
    35   107   108    1
    36    42    41    1
    37    42    43    1
    38    34    33    1
    39    34    35    2
    40   104   103    1
    41    33    36    1
    42    39    40    2
    43    43    44   ar
    44    43    45   ar
    45   108   110   ar
    46   108   109   ar
    47     6     7    1
    48   110   112   ar
    49    98    99    1
    50    98    97    1
    51   176   174    1
    52    99   100    2
    53   169   170    1
    54   173   174    1
    55   173   170    1
    56   109   111   ar
    57   102   100    1
    58   100   101    1
    59     8     7    1
    60   168   167    1
    61   112   113   ar
    62   174   175    1
    63   164   163    2
    64   170   171    1
    65    97    96    1
    66   111   113   ar
    67    96    93    1
    68    95    94    2
    69   171   172    2
    70   163   162    1
    71   167   166    1
    72   140   138   ar
    73   140   139   ar
    74   165   166    1
    75   165   162    1
    76    90    89    1
    77   138   136   ar
    78    75    73    1
    79    93    94    1
    80    93    92    1
    81   162   161    1
    82    74    73    1
    83   159   158    1
    84   139   137   ar
    85   136   135   ar
    86    73    72    1
    87    89    91    1
    88    89    88    1
    89   119   118    1
    90   119   120    1
    91    85    88    1
    92    85    84    1
    93    85    86    1
    94   121   120    1
    95    87    86    2
    96   158   160    1
    97   158   157    1
    98   156   155    2
    99   137   135   ar
   100    72    69    1
   101    58    59   ar
   102    58    56   ar
   103   118   115    1
   104   135   134    1
   105    71    70    2
   106    59    57   ar
   107    56    53   ar
   108    69    70    1
   109    69    68    1
   110   154   155    1
   111   154   157    1
   112   154   153    1
   113    70    76   am
   114    57    55   ar
   115    53    55   ar
   116    53    51   ar
   117   134   131    1
   118   115   116    1
   119   115   114    1
   120    55    54   ar
   121    66    65    1
   122   116   117    2
   123    50    51    1
   124    50    47    1
   125    51    52   ar
   126    49    48    2
   127    76    77    1
   128   147   146    1
   129   131   130    1
   130   131   132    1
   131    77    78    1
   132    77    80    1
   133    54    52   ar
   134    79    78    2
   135    48    47    1
   136    48    60   am
   137    47    46    1
   138   130   124   am
   139    61    60    1
   140    61    64    1
   141    61    62    1
   142    65    67    1
   143    65    64    1
   144   152   151    2
   145   133   132    2
   146    81    80    1
   147    81    82    1
   148    63    62    2
   149   145   146    1
   150   145   142    1
   151   146   148    1
   152   128   126    1
   153    83    82    1
   154   126   123    1
   155   126   127    1
   156   124   125    2
   157   124   123    1
   158   129   127    1
   159   151   150    1
   160   143   144    2
   161   143   142    1
   162   150   149    1
   163   142   141    1
   164   123   122    1
