@<TRIPOS>MOLECULE
tmp/4mgbB00.pdb
 127 120 0 0 0
SMALL
GASTEIGER

@<TRIPOS>ATOM
      1  N        -14.9490   -1.2240   57.0100 N.3    52  VAL52      -0.1245
      2  CA       -15.1490   -0.0980   57.9010 C.3    52  VAL52       0.1561
      3  C        -13.8440    0.2510   58.6070 C.2    52  VAL52       0.2260
      4  O        -13.4840    1.4200   58.7160 O.2    52  VAL52      -0.2867
      5  CB       -16.2620   -0.3720   58.9250 C.3    52  VAL52       0.0252
      6  CG1      -16.3950    0.7990   59.8860 C.3    52  VAL52       0.0019
      7  CG2      -17.5740   -0.6290   58.2070 C.3    52  VAL52       0.0019
      8  N        -11.3420    1.8700   56.1120 N.3    55  ILE55      -0.1231
      9  CA       -11.6340    3.2650   55.8130 C.3    55  ILE55       0.1692
     10  C        -11.0630    4.1690   56.9030 C.2    55  ILE55       0.2592
     11  O        -10.4540    5.1990   56.6150 O.2    55  ILE55      -0.2718
     12  CB       -13.1490    3.4970   55.6300 C.3    55  ILE55       0.0266
     13  CG1      -13.6240    2.8470   54.3260 C.3    55  ILE55       0.0019
     14  CG2      -13.4700    4.9810   55.6400 C.3    55  ILE55       0.0020
     15  CD1      -15.1340    2.7030   54.2300 C.3    55  ILE55       0.0001
     16  N        -11.2310    3.7670   58.1580 N.am   56  ASN56      -0.1974
     17  CA       -10.6820    4.5440   59.2640 C.3    56  ASN56       0.1688
     18  C         -9.1620    4.4110   59.4120 C.2    56  ASN56       0.2292
     19  O         -8.4970    5.3130   59.9220 O.2    56  ASN56      -0.2864
     20  CB       -11.4310    4.2380   60.5570 C.3    56  ASN56       0.1181
     21  CG       -12.8650    4.7170   60.5020 C.2    56  ASN56       0.2629
     22  OD1      -13.1410    5.9000   60.7080 O.2    56  ASN56      -0.2716
     23  ND2      -13.7850    3.8100   60.1830 N.am   56  ASN56      -0.0877
     24  N         -7.6870    6.9940   56.7980 N.3    59  LYS59      -0.1245
     25  CA        -7.6920    8.3660   57.3020 C.3    59  LYS59       0.1561
     26  C         -6.4690    8.6530   58.1700 C.2    59  LYS59       0.2260
     27  O         -6.0860    9.8080   58.3630 O.2    59  LYS59      -0.2867
     28  CB        -8.9900    8.6580   58.0630 C.3    59  LYS59       0.0271
     29  CG       -10.1850    8.8340   57.1400 C.3    59  LYS59       0.0035
     30  CD       -11.4840    8.3470   57.7620 C.3    59  LYS59       0.0206
     31  CE       -11.9750    9.2690   58.8570 C.3    59  LYS59       0.1093
     32  NZ       -13.3770    8.9250   59.2360 N.3    59  LYS59      -0.1314
     33  N         -2.9820   11.2340   53.5000 N.3    64  PHE64      -0.1241
     34  CA        -4.2500   10.8310   52.9020 C.3    64  PHE64       0.1605
     35  C         -5.3450   11.8680   53.1440 C.2    64  PHE64       0.2264
     36  O         -6.0400   12.2650   52.2100 O.2    64  PHE64      -0.2867
     37  CB        -4.6880    9.4500   53.4110 C.3    64  PHE64       0.0534
     38  CG        -5.8540    8.8680   52.6580 C.ar   64  PHE64      -0.0203
     39  CD1       -7.1270    8.8780   53.2080 C.ar   64  PHE64      -0.0042
     40  CD2       -5.6780    8.3170   51.3980 C.ar   64  PHE64      -0.0042
     41  CE1       -8.2060    8.3440   52.5150 C.ar   64  PHE64      -0.0003
     42  CE2       -6.7510    7.7770   50.6980 C.ar   64  PHE64      -0.0003
     43  CZ        -8.0200    7.7900   51.2610 C.ar   64  PHE64      -0.0000
     44  N        -11.9930   14.9860   49.4050 N.3    69  LEU69      -0.1231
     45  CA       -12.8520   13.8440   49.6860 C.3    69  LEU69       0.1693
     46  C        -13.0100   12.9710   48.4430 C.2    69  LEU69       0.2592
     47  O        -12.9870   11.7460   48.5180 O.2    69  LEU69      -0.2718
     48  CB       -14.2240   14.3200   50.1610 C.3    69  LEU69       0.0284
     49  CG       -15.2370   13.2180   50.4590 C.3    69  LEU69       0.0019
     50  CD1      -14.7520   12.3620   51.6160 C.3    69  LEU69       0.0001
     51  CD2      -16.6070   13.8060   50.7560 C.3    69  LEU69       0.0001
     52  N        -13.1720   13.6140   47.2950 N.am   70  HIS70      -0.1976
     53  CA       -13.3470   12.8930   46.0430 C.3    70  HIS70       0.1656
     54  C        -12.1220   12.0420   45.7050 C.2    70  HIS70       0.2291
     55  O        -12.2530   10.9110   45.2380 O.2    70  HIS70      -0.2864
     56  CB       -13.6560   13.8740   44.9150 C.3    70  HIS70       0.0771
     57  CG       -15.0180   14.4890   45.0110 C.ar   70  HIS70       0.0820
     58  ND1      -15.3670   15.6380   44.3350 N.ar   70  HIS70      -0.2267
     59  CD2      -16.1210   14.1050   45.6960 C.ar   70  HIS70       0.1154
     60  CE1      -16.6250   15.9390   44.6040 C.ar   70  HIS70       0.1986
     61  NE2      -17.1050   15.0250   45.4280 N.ar   70  HIS70      -0.2212
     62  N         -9.8920   10.8790   47.9350 N.3    72  GLN72      -0.1231
     63  CA        -9.8430    9.7920   48.9090 C.3    72  GLN72       0.1698
     64  C        -10.7730    8.6580   48.4900 C.2    72  GLN72       0.2592
     65  O        -10.4160    7.4820   48.5740 O.2    72  GLN72      -0.2718
     66  CB       -10.2370   10.2940   50.3000 C.3    72  GLN72       0.0381
     67  CG        -9.3210   11.3700   50.8660 C.3    72  GLN72       0.0905
     68  CD        -9.8390   11.9140   52.1890 C.2    72  GLN72       0.2608
     69  OE1      -10.6650   11.2850   52.8460 O.2    72  GLN72      -0.2717
     70  NE2       -9.3630   13.0890   52.5770 N.am   72  GLN72      -0.0878
     71  N        -11.9700    9.0220   48.0450 N.am   73  VAL73      -0.1980
     72  CA       -12.9510    8.0490   47.5860 C.3    73  VAL73       0.1595
     73  C        -12.4050    7.2380   46.4200 C.2    73  VAL73       0.2287
     74  O        -12.5010    6.0110   46.4060 O.2    73  VAL73      -0.2864
     75  CB       -14.2690    8.7360   47.1710 C.3    73  VAL73       0.0276
     76  CG1      -15.1510    7.7760   46.3940 C.3    73  VAL73       0.0022
     77  CG2      -14.9910    9.2740   48.4020 C.3    73  VAL73       0.0022
     78  N         -9.5320    4.7150   47.5130 N.3    76  LEU76      -0.1231
     79  CA       -10.0690    3.5710   48.2440 C.3    76  LEU76       0.1693
     80  C        -10.9200    2.6770   47.3580 C.2    76  LEU76       0.2591
     81  O        -10.8710    1.4490   47.4730 O.2    76  LEU76      -0.2718
     82  CB       -10.8730    4.0350   49.4620 C.3    76  LEU76       0.0284
     83  CG       -10.0100    4.3070   50.6950 C.3    76  LEU76       0.0019
     84  CD1      -10.7870    5.1110   51.7170 C.3    76  LEU76       0.0001
     85  CD2       -9.4920    3.0010   51.2910 C.3    76  LEU76       0.0001
     86  N        -11.7040    3.2840   46.4720 N.am   77  GLU77      -0.1979
     87  CA       -12.4980    2.4890   45.5420 C.3    77  GLU77       0.1602
     88  C        -11.5940    1.6150   44.6730 C.2    77  GLU77       0.2287
     89  O        -11.9180    0.4670   44.3880 O.2    77  GLU77      -0.2864
     90  CB       -13.4150    3.3740   44.6860 C.3    77  GLU77       0.0415
     91  CG       -14.5870    3.9710   45.4760 C.3    77  GLU77       0.1163
     92  CD       -15.5730    4.7280   44.6000 C.2    77  GLU77       0.3649
     93  OE1      -16.7540    4.8250   44.9920 O.co2  77  GLU77      -0.2457
     94  OE2      -15.1740    5.2230   43.5280 O.co2  77  GLU77      -0.2457
     95  N        -24.7180   -3.1140   51.1290 N.3   222  ASP222     -0.1225
     96  CA       -24.7280   -1.9420   50.2750 C.3   222  ASP222      0.1805
     97  C        -23.3070   -1.4150   50.0990 C.2   222  ASP222      0.2597
     98  O        -22.9210   -1.0260   49.0010 O.2   222  ASP222     -0.2718
     99  CB       -25.6450   -0.8620   50.8500 C.3   222  ASP222      0.1424
    100  CG       -27.1040   -1.2800   50.8490 C.2   222  ASP222      0.3668
    101  OD1      -27.5220   -1.9810   49.9020 O.co2 222  ASP222     -0.2456
    102  OD2      -27.8280   -0.9140   51.7970 O.co2 222  ASP222     -0.2456
    103  N        -22.5300   -1.4160   51.1800 N.am  223  LEU223     -0.1979
    104  CA       -21.1460   -0.9550   51.1130 C.3   223  LEU223      0.1596
    105  C        -20.2890   -1.8210   50.1900 C.2   223  LEU223      0.2287
    106  O        -19.5560   -1.3050   49.3490 O.2   223  LEU223     -0.2864
    107  CB       -20.5080   -0.9060   52.5010 C.3   223  LEU223      0.0297
    108  CG       -19.0230   -0.5320   52.4640 C.3   223  LEU223      0.0022
    109  CD1      -18.8330    0.8380   51.8250 C.3   223  LEU223      0.0001
    110  CD2      -18.4140   -0.5730   53.8490 C.3   223  LEU223      0.0001
    111  N        -21.2220   -1.2350   46.5800 N.3   226  GLU226     -0.1231
    112  CA       -20.7610    0.0360   46.0370 C.3   226  GLU226      0.1699
    113  C        -19.2610    0.0260   45.7490 C.2   226  GLU226      0.2592
    114  O        -18.8140    0.6550   44.7980 O.2   226  GLU226     -0.2718
    115  CB       -21.1420    1.1970   46.9550 C.3   226  GLU226      0.0402
    116  CG       -22.6390    1.4820   46.9430 C.3   226  GLU226      0.1161
    117  CD       -23.0470    2.5680   47.9150 C.2   226  GLU226      0.3649
    118  OE1      -22.1580    3.2990   48.4090 O.co2 226  GLU226     -0.2457
    119  OE2      -24.2630    2.6840   48.1890 O.co2 226  GLU226     -0.2457
    120  N        -18.4950   -0.6900   46.5710 N.am  227  MET227     -0.1979
    121  CA       -17.0620   -0.8490   46.3270 C.3   227  MET227      0.1605
    122  C        -16.8290   -1.6890   45.0660 C.2   227  MET227      0.2287
    123  O        -15.9220   -1.4140   44.2780 O.2   227  MET227     -0.2864
    124  CB       -16.3580   -1.4830   47.5360 C.3   227  MET227      0.0413
    125  CG       -16.4860   -0.6920   48.8370 C.3   227  MET227      0.0598
    126  SD       -15.8800    1.0070   48.7310 S.3   227  MET227     -0.1393
    127  CE       -14.1080    0.7690   48.8560 C.3   227  MET227      0.0692
@<TRIPOS>BOND
     1    94    92   ar
     2   123   122    2
     3    58    60   ar
     4    58    57   ar
     5    89    88    2
     6    92    93   ar
     7    92    91    1
     8    60    61   ar
     9    88    87    1
    10    90    91    1
    11    90    87    1
    12   114   113    2
    13    56    57    1
    14    56    53    1
    15    57    59   ar
    16   122   121    1
    17    55    54    2
    18    61    59   ar
    19    87    86    1
    20    54    53    1
    21   113   112    1
    22   113   120   am
    23   112   111    1
    24   112   115    1
    25    53    52    1
    26   121   120    1
    27   121   124    1
    28    76    75    1
    29    74    73    2
    30    73    72    1
    31    86    80   am
    32   116   115    1
    33   116   117    1
    34    75    72    1
    35    75    77    1
    36    52    46   am
    37    80    81    2
    38    80    79    1
    39    78    79    1
    40   124   125    1
    41    72    71    1
    42   117   119   ar
    43   117   118   ar
    44    62    63    1
    45    71    64   am
    46    79    82    1
    47    46    47    2
    48    46    45    1
    49    64    65    2
    50    64    63    1
    51   126   125    1
    52   126   127    1
    53    63    66    1
    54    98    97    2
    55   106   105    2
    56    44    45    1
    57    82    83    1
    58    45    48    1
    59   101   100   ar
    60    97    96    1
    61    97   103   am
    62    48    49    1
    63   105   104    1
    64    96    99    1
    65    96    95    1
    66    66    67    1
    67    49    51    1
    68    49    50    1
    69    83    85    1
    70    83    84    1
    71    42    43   ar
    72    42    40   ar
    73   100    99    1
    74   100   102   ar
    75    67    68    1
    76   104   103    1
    77   104   107    1
    78    43    41   ar
    79    40    38   ar
    80   109   108    1
    81    68    70   am
    82    68    69    2
    83    36    35    2
    84   108   107    1
    85   108   110    1
    86    41    39   ar
    87    38    39   ar
    88    38    37    1
    89    34    35    1
    90    34    37    1
    91    34    33    1
    92    15    13    1
    93    13    12    1
    94    12    14    1
    95    12     9    1
    96     9     8    1
    97     9    10    1
    98    11    10    2
    99    24    25    1
   100    10    16   am
   101     1     2    1
   102    29    30    1
   103    29    28    1
   104    25    28    1
   105    25    26    1
   106    30    31    1
   107     2     3    1
   108     2     5    1
   109    16    17    1
   110    26    27    2
   111     7     5    1
   112     3     4    2
   113    31    32    1
   114     5     6    1
   115    17    18    1
   116    17    20    1
   117    18    19    2
   118    23    21   am
   119    21    20    1
   120    21    22    2
