@<TRIPOS>MOLECULE
tmp/4mgbB01.pdb
 186 175 0 0 0
SMALL
GASTEIGER

@<TRIPOS>ATOM
      1  N        -19.5070  -17.9820   51.5880 N.3    40  MET40      -0.1245
      2  CA       -19.5980  -16.5920   51.1580 C.3    40  MET40       0.1570
      3  C        -20.3530  -15.7240   52.1570 C.2    40  MET40       0.2261
      4  O        -20.1700  -14.5110   52.1930 O.2    40  MET40      -0.2867
      5  CB       -20.2170  -16.4820   49.7640 C.3    40  MET40       0.0387
      6  CG       -19.3380  -17.0480   48.6510 C.3    40  MET40       0.0595
      7  SD       -17.5980  -16.5530   48.7550 S.3    40  MET40      -0.1393
      8  CE       -17.7180  -14.7870   49.0550 C.3    40  MET40       0.0692
      9  N        -17.4360  -14.9120   54.7030 N.3    43  LEU43      -0.1231
     10  CA       -16.4100  -14.0680   54.1030 C.3    43  LEU43       0.1693
     11  C        -16.9200  -12.6690   53.7870 C.2    43  LEU43       0.2592
     12  O        -16.2090  -11.6910   53.9970 O.2    43  LEU43      -0.2718
     13  CB       -15.8300  -14.7200   52.8420 C.3    43  LEU43       0.0284
     14  CG       -15.0520  -16.0160   53.0800 C.3    43  LEU43       0.0019
     15  CD1      -14.5250  -16.5920   51.7690 C.3    43  LEU43       0.0001
     16  CD2      -13.9220  -15.7820   54.0620 C.3    43  LEU43       0.0001
     17  N        -18.1450  -12.5660   53.2840 N.am   44  THR44      -0.1953
     18  CA       -18.6940  -11.2520   52.9650 C.3    44  THR44       0.1897
     19  C        -19.0020  -10.4500   54.2350 C.2    44  THR44       0.2313
     20  O        -18.7790   -9.2390   54.2770 O.2    44  THR44      -0.2863
     21  CB       -19.9410  -11.3390   52.0590 C.3    44  THR44       0.1794
     22  OG1      -20.9320  -12.1670   52.6730 O.3    44  THR44      -0.2208
     23  CG2      -19.5780  -11.9240   50.7070 C.3    44  THR44       0.0378
     24  N        -17.4030  -10.7350   57.0490 N.3    46  LEU46      -0.1231
     25  CA       -16.0840  -10.3380   57.5170 C.3    46  LEU46       0.1693
     26  C        -15.5180   -9.1850   56.6870 C.2    46  LEU46       0.2591
     27  O        -15.0000   -8.2110   57.2370 O.2    46  LEU46      -0.2718
     28  CB       -15.1360  -11.5310   57.4740 C.3    46  LEU46       0.0284
     29  CG       -13.7630  -11.3250   58.1090 C.3    46  LEU46       0.0019
     30  CD1      -13.8930  -10.7420   59.5100 C.3    46  LEU46       0.0001
     31  CD2      -13.0150  -12.6460   58.1340 C.3    46  LEU46       0.0001
     32  N        -15.6220   -9.2950   55.3680 N.am   47  ALA47      -0.1980
     33  CA       -15.1490   -8.2340   54.4860 C.3    47  ALA47       0.1597
     34  C        -15.8600   -6.9240   54.8070 C.2    47  ALA47       0.2287
     35  O        -15.2500   -5.8550   54.8370 O.2    47  ALA47      -0.2864
     36  CB       -15.3680   -8.6150   53.0260 C.3    47  ALA47       0.0319
     37  N        -14.3430   -5.5370   57.9040 N.3    50  GLU50      -0.1245
     38  CA       -12.9610   -5.1340   57.6090 C.3    50  GLU50       0.1567
     39  C        -12.8970   -3.8160   56.8380 C.2    50  GLU50       0.2260
     40  O        -11.9940   -3.0040   57.0470 O.2    50  GLU50      -0.2867
     41  CB       -12.2280   -6.2310   56.8290 C.3    50  GLU50       0.0388
     42  CG       -11.9120   -7.4750   57.6530 C.3    50  GLU50       0.1160
     43  CD       -11.1730   -8.5370   56.8560 C.2    50  GLU50       0.3649
     44  OE1      -11.4390   -8.6660   55.6450 O.co2  50  GLU50      -0.2457
     45  OE2      -10.3270   -9.2410   57.4440 O.co2  50  GLU50      -0.2457
     46  N         -9.3230   -1.0610   47.4340 N.3    79  TRP79      -0.1227
     47  CA        -9.8780   -1.7500   48.6020 C.3    79  TRP79       0.1737
     48  C         -9.5970   -3.2610   48.6350 C.2    79  TRP79       0.2595
     49  O         -9.2530   -3.8120   49.6830 O.2    79  TRP79      -0.2718
     50  CB       -11.3740   -1.4660   48.7630 C.3    79  TRP79       0.0564
     51  CG       -12.2520   -2.1390   47.7490 C.ar   79  TRP79       0.0003
     52  CD1      -12.6280   -1.6450   46.5340 C.ar   79  TRP79       0.0946
     53  CD2      -12.8740   -3.4270   47.8700 C.ar   79  TRP79       0.0152
     54  NE1      -13.4480   -2.5450   45.8910 N.ar   79  TRP79      -0.2442
     55  CE2      -13.6120   -3.6470   46.6910 C.ar   79  TRP79       0.0810
     56  CE3      -12.8760   -4.4130   48.8610 C.ar   79  TRP79       0.0012
     57  CZ2      -14.3470   -4.8120   46.4770 C.ar   79  TRP79       0.0191
     58  CZ3      -13.6050   -5.5710   48.6460 C.ar   79  TRP79       0.0001
     59  CH2      -14.3290   -5.7590   47.4630 C.ar   79  TRP79       0.0015
     60  N         -9.7360   -3.9350   47.4980 N.am   80  LEU80      -0.1980
     61  CA        -9.5460   -5.3820   47.5000 C.3    80  LEU80       0.1596
     62  C         -8.0620   -5.7460   47.5760 C.2    80  LEU80       0.2287
     63  O         -7.6830   -6.6850   48.2800 O.2    80  LEU80      -0.2864
     64  CB       -10.2270   -6.0420   46.2990 C.3    80  LEU80       0.0297
     65  CG       -10.2680   -7.5710   46.3590 C.3    80  LEU80       0.0022
     66  CD1      -10.8830   -8.0630   47.6800 C.3    80  LEU80       0.0001
     67  CD2      -11.0180   -8.1330   45.1570 C.3    80  LEU80       0.0001
     68  N         -7.3000   -5.4740   51.2680 N.3    83  LEU83      -0.1231
     69  CA        -7.7630   -6.6500   52.0190 C.3    83  LEU83       0.1693
     70  C         -6.8370   -7.8410   51.7530 C.2    83  LEU83       0.2591
     71  O         -6.4560   -8.5680   52.6670 O.2    83  LEU83      -0.2718
     72  CB        -9.2000   -7.0270   51.6490 C.3    83  LEU83       0.0284
     73  CG       -10.3460   -6.1510   52.1380 C.3    83  LEU83       0.0019
     74  CD1      -11.6690   -6.7580   51.6830 C.3    83  LEU83       0.0001
     75  CD2      -10.3100   -6.0020   53.6600 C.3    83  LEU83       0.0001
     76  N         -6.4650   -8.0280   50.4920 N.am   84  MET84      -0.1979
     77  CA        -5.6380   -9.1670   50.1070 C.3    84  MET84       0.1605
     78  C         -4.2300   -9.1300   50.6900 C.2    84  MET84       0.2287
     79  O         -3.7120  -10.1540   51.1520 O.2    84  MET84      -0.2864
     80  CB        -5.5930   -9.3010   48.5780 C.3    84  MET84       0.0413
     81  CG        -6.8940   -9.8580   48.0090 C.3    84  MET84       0.0598
     82  SD        -6.8720  -10.0010   46.2170 S.3    84  MET84      -0.1393
     83  CE        -8.2450  -11.1270   45.9480 C.3    84  MET84       0.0692
     84  N         -4.5330  -10.1400   54.2770 N.3    87  LEU87      -0.1245
     85  CA        -4.7740  -11.5740   54.3980 C.3    87  LEU87       0.1561
     86  C         -3.4800  -12.3640   54.2150 C.2    87  LEU87       0.2260
     87  O         -3.1420  -13.2350   55.0200 O.2    87  LEU87      -0.2867
     88  CB        -5.8030  -12.0180   53.3630 C.3    87  LEU87       0.0270
     89  CG        -6.0630  -13.5200   53.2270 C.3    87  LEU87       0.0019
     90  CD1       -6.5720  -14.1020   54.5510 C.3    87  LEU87       0.0001
     91  CD2       -7.0600  -13.7680   52.1200 C.3    87  LEU87       0.0001
     92  N         -1.2620  -11.8920   57.2810 N.3    90  ARG90      -0.1245
     93  CA        -1.7300  -12.6360   58.4480 C.3    90  ARG90       0.1563
     94  C         -1.4970  -14.1310   58.2810 C.2    90  ARG90       0.2260
     95  O         -1.4050  -14.8660   59.2640 O.2    90  ARG90      -0.2867
     96  CB        -3.2230  -12.4010   58.6830 C.3    90  ARG90       0.0307
     97  CG        -3.5830  -11.0270   59.1850 C.3    90  ARG90       0.0489
     98  CD        -5.0090  -11.0100   59.7090 C.3    90  ARG90       0.2205
     99  NE        -5.9630  -11.5970   58.7680 N.pl3  90  ARG90      -0.0865
    100  CZ        -6.5750  -10.9190   57.8020 C.cat  90  ARG90       0.5346
    101  NH1       -6.3200   -9.6300   57.6330 N.pl3  90  ARG90       0.1354
    102  NH2       -7.4340  -11.5290   56.9990 N.pl3  90  ARG90       0.1354
    103  N         -8.2410  -15.9490   57.3330 N.3   100  PHE100     -0.1241
    104  CA        -9.2280  -14.8900   57.1480 C.3   100  PHE100      0.1605
    105  C         -9.5660  -14.2680   58.4950 C.2   100  PHE100      0.2264
    106  O         -9.7730  -13.0560   58.5980 O.2   100  PHE100     -0.2867
    107  CB       -10.4900  -15.4260   56.4660 C.3   100  PHE100      0.0534
    108  CG       -10.3440  -15.6250   54.9850 C.ar  100  PHE100     -0.0203
    109  CD1      -10.5290  -14.5650   54.1060 C.ar  100  PHE100     -0.0042
    110  CD2      -10.0270  -16.8700   54.4670 C.ar  100  PHE100     -0.0042
    111  CE1      -10.3980  -14.7460   52.7390 C.ar  100  PHE100     -0.0003
    112  CE2       -9.8930  -17.0580   53.0970 C.ar  100  PHE100     -0.0003
    113  CZ       -10.0800  -15.9940   52.2330 C.ar  100  PHE100     -0.0000
    114  N        -13.4270  -20.0160   43.1810 N.3   117  MET117     -0.1245
    115  CA       -12.6930  -19.4570   44.3120 C.3   117  MET117      0.1570
    116  C        -11.3320  -20.1060   44.5560 C.2   117  MET117      0.2261
    117  O        -10.4370  -19.4790   45.1220 O.2   117  MET117     -0.2867
    118  CB       -13.5300  -19.5070   45.5950 C.3   117  MET117      0.0387
    119  CG       -12.9360  -18.6760   46.7270 C.3   117  MET117      0.0595
    120  SD       -14.0150  -18.5070   48.1580 S.3   117  MET117     -0.1393
    121  CE       -14.0000  -20.1830   48.7800 C.3   117  MET117      0.0692
    122  N         -8.3480  -18.1850   43.0410 N.3   120  ILE120     -0.1231
    123  CA        -7.9380  -17.0210   43.8170 C.3   120  ILE120      0.1692
    124  C         -7.2080  -17.4440   45.0880 C.2   120  ILE120      0.2592
    125  O         -6.1890  -16.8590   45.4460 O.2   120  ILE120     -0.2718
    126  CB        -9.1480  -16.1210   44.1270 C.3   120  ILE120      0.0266
    127  CG1       -9.6510  -15.4870   42.8250 C.3   120  ILE120      0.0019
    128  CG2       -8.7950  -15.0530   45.1710 C.3   120  ILE120      0.0020
    129  CD1      -11.0470  -14.9380   42.9090 C.3   120  ILE120      0.0001
    130  N         -7.7200  -18.4780   45.7540 N.am  121  PHE121     -0.1976
    131  CA        -7.0680  -19.0220   46.9380 C.3   121  PHE121      0.1639
    132  C         -5.6220  -19.4050   46.6390 C.2   121  PHE121      0.2290
    133  O         -4.7210  -19.1240   47.4290 O.2   121  PHE121     -0.2864
    134  CB        -7.8310  -20.2490   47.4590 C.3   121  PHE121      0.0560
    135  CG        -8.8290  -19.9340   48.5350 C.ar  121  PHE121     -0.0200
    136  CD1       -8.9380  -20.7450   49.6550 C.ar  121  PHE121     -0.0042
    137  CD2       -9.6500  -18.8210   48.4370 C.ar  121  PHE121     -0.0042
    138  CE1       -9.8540  -20.4580   50.6540 C.ar  121  PHE121     -0.0003
    139  CE2      -10.5720  -18.5280   49.4370 C.ar  121  PHE121     -0.0003
    140  CZ       -10.6740  -19.3480   50.5430 C.ar  121  PHE121     -0.0000
    141  N         -3.3760  -16.3880   46.3390 N.3   124  LEU124     -0.1245
    142  CA        -3.1420  -15.8180   47.6550 C.3   124  LEU124      0.1561
    143  C         -2.0960  -16.6280   48.4130 C.2   124  LEU124      0.2260
    144  O         -1.1570  -16.0700   48.9790 O.2   124  LEU124     -0.2867
    145  CB        -4.4560  -15.7270   48.4390 C.3   124  LEU124      0.0270
    146  CG        -5.4770  -14.7490   47.8470 C.3   124  LEU124      0.0019
    147  CD1       -6.8800  -14.9770   48.4160 C.3   124  LEU124      0.0001
    148  CD2       -5.0240  -13.3040   48.0680 C.3   124  LEU124      0.0001
    149  N        -10.0630  -11.3080   41.4730 N.3   206  GLY206     -0.1225
    150  CA       -11.0180  -11.4120   42.5590 C.3   206  GLY206      0.1811
    151  C        -12.2500  -10.5640   42.3100 C.2   206  GLY206      0.2280
    152  O        -13.3640  -10.9580   42.6490 O.2   206  GLY206     -0.2866
    153  N        -14.4600  -12.3800   40.0220 N.3   209  HIS209     -0.1226
    154  CA       -15.1100  -13.4730   40.7280 C.3   209  HIS209      0.1752
    155  C        -16.2410  -12.9590   41.6130 C.2   209  HIS209      0.2595
    156  O        -17.3050  -13.5720   41.6910 O.2   209  HIS209     -0.2718
    157  CB       -14.0900  -14.2340   41.5720 C.3   209  HIS209      0.0759
    158  CG       -14.6720  -15.3880   42.3280 C.ar  209  HIS209      0.0818
    159  ND1      -14.3060  -15.6900   43.6220 N.ar  209  HIS209     -0.2268
    160  CD2      -15.5870  -16.3180   41.9690 C.ar  209  HIS209      0.1154
    161  CE1      -14.9760  -16.7530   44.0300 C.ar  209  HIS209      0.1986
    162  NE2      -15.7570  -17.1560   43.0440 N.ar  209  HIS209     -0.2212
    163  N        -16.0020  -11.8350   42.2820 N.am  210  LEU210     -0.1980
    164  CA       -17.0000  -11.2420   43.1630 C.3   210  LEU210      0.1596
    165  C        -18.2190  -10.8000   42.3690 C.2   210  LEU210      0.2287
    166  O        -19.3570  -10.9060   42.8340 O.2   210  LEU210     -0.2864
    167  CB       -16.4060  -10.0480   43.9100 C.3   210  LEU210      0.0297
    168  CG       -17.2680   -9.4600   45.0240 C.3   210  LEU210      0.0022
    169  CD1      -17.6800  -10.5530   46.0000 C.3   210  LEU210      0.0001
    170  CD2      -16.5260   -8.3380   45.7360 C.3   210  LEU210      0.0001
    171  N        -20.2780  -13.8390   41.4230 N.3   213  MET213     -0.1245
    172  CA       -21.0150  -14.2940   42.5910 C.3   213  MET213      0.1570
    173  C        -22.2140  -13.3950   42.8590 C.2   213  MET213      0.2261
    174  O        -23.2560  -13.8580   43.3180 O.2   213  MET213     -0.2867
    175  CB       -20.1070  -14.3360   43.8150 C.3   213  MET213      0.0387
    176  CG       -19.0100  -15.3790   43.7380 C.3   213  MET213      0.0595
    177  SD       -18.1770  -15.4560   45.3270 S.3   213  MET213     -0.1393
    178  CE       -19.5100  -14.8430   46.3590 C.3   213  MET213      0.0692
    179  N        -20.3640   -3.1370   50.3550 N.3   224  LEU224     -0.1245
    180  CA       -19.5730   -4.0280   49.5160 C.3   224  LEU224      0.1561
    181  C        -19.9970   -3.8990   48.0520 C.2   224  LEU224      0.2260
    182  O        -19.1620   -3.9200   47.1480 O.2   224  LEU224     -0.2867
    183  CB       -19.6840   -5.4750   50.0040 C.3   224  LEU224      0.0270
    184  CG       -18.8190   -6.5180   49.2920 C.3   224  LEU224      0.0019
    185  CD1      -17.3550   -6.1000   49.2820 C.3   224  LEU224      0.0001
    186  CD2      -18.9800   -7.8810   49.9560 C.3   224  LEU224      0.0001
@<TRIPOS>BOND
     1   153   154    1
     2   154   157    1
     3   154   155    1
     4   171   172    1
     5   149   150    1
     6   157   158    1
     7   155   156    2
     8   155   163   am
     9   160   158   ar
    10   160   162   ar
    11   163   164    1
    12   151   150    1
    13   151   152    2
    14   158   159   ar
    15   165   166    2
    16   165   164    1
    17   172   173    1
    18   172   175    1
    19   127   129    1
    20   127   126    1
    21   173   174    2
    22   122   123    1
    23   162   161   ar
    24   164   167    1
    25   114   115    1
    26   159   161   ar
    27   176   175    1
    28   176   177    1
    29   123   126    1
    30   123   124    1
    31   167   168    1
    32   126   128    1
    33   115   116    1
    34   115   118    1
    35   116   117    2
    36   168   170    1
    37   168   169    1
    38   124   125    2
    39   124   130   am
    40    67    65    1
    41   177   178    1
    42   118   119    1
    43   130   131    1
    44    54    52   ar
    45    54    55   ar
    46    83    82    1
    47    82    81    1
    48    64    65    1
    49    64    61    1
    50   141   142    1
    51    65    66    1
    52    57    55   ar
    53    57    59   ar
    54    52    51   ar
    55   132   131    1
    56   132   133    2
    57    55    53   ar
    58   119   120    1
    59   131   134    1
    60   182   181    2
    61    46    47    1
    62   134   135    1
    63    59    58   ar
    64    60    61    1
    65    60    48   am
    66    61    62    1
    67    62    63    2
    68   142   143    1
    69   142   145    1
    70    51    53   ar
    71    51    50    1
    72   146   148    1
    73   146   147    1
    74   146   145    1
    75    53    56   ar
    76    81    80    1
    77   181   180    1
    78   120   121    1
    79   143   144    2
    80   137   135   ar
    81   137   139   ar
    82   135   136   ar
    83    80    77    1
    84    47    48    1
    85    47    50    1
    86    48    49    2
    87    58    56   ar
    88     6     7    1
    89     6     5    1
    90     7     8    1
    91   185   184    1
    92   184   186    1
    93   184   183    1
    94   139   140   ar
    95   180   183    1
    96   180   179    1
    97   136   138   ar
    98     5     2    1
    99    77    76    1
   100    77    78    1
   101    76    70   am
   102   140   138   ar
   103    78    79    2
   104    23    21    1
   105     2     1    1
   106     2     3    1
   107    68    69    1
   108    72    69    1
   109    72    73    1
   110    74    73    1
   111    70    69    1
   112    70    71    2
   113    15    14    1
   114    21    22    1
   115    21    18    1
   116    91    89    1
   117    73    75    1
   118     3     4    2
   119   113   111   ar
   120   113   112   ar
   121   111   109   ar
   122    13    14    1
   123    13    10    1
   124    18    17    1
   125    18    19    1
   126    36    33    1
   127    14    16    1
   128   112   110   ar
   129    89    88    1
   130    89    90    1
   131    17    11   am
   132    88    85    1
   133    11    12    2
   134    11    10    1
   135    10     9    1
   136   109   108   ar
   137    86    85    1
   138    86    87    2
   139    19    20    2
   140    84    85    1
   141   110   108   ar
   142    33    34    1
   143    33    32    1
   144    34    35    2
   145   108   107    1
   146    32    26   am
   147    44    43   ar
   148   107   104    1
   149    26    27    2
   150    26    25    1
   151    41    38    1
   152    41    42    1
   153    39    40    2
   154    39    38    1
   155    43    45   ar
   156    43    42    1
   157   102   100    1
   158    24    25    1
   159   104   103    1
   160   104   105    1
   161    92    93    1
   162    28    25    1
   163    28    29    1
   164    38    37    1
   165   101   100    1
   166   100    99    2
   167    29    31    1
   168    29    30    1
   169    94    93    1
   170    94    95    2
   171    93    96    1
   172   105   106    2
   173    96    97    1
   174    99    98    1
   175    97    98    1
