@<TRIPOS>MOLECULE
tmp/4mgcB01.pdb
 170 161 0 0 0
SMALL
GASTEIGER

@<TRIPOS>ATOM
      1  N        -22.8690  -17.8960   49.3050 N.3    39  MET39      -0.1245
      2  CA       -22.4370  -16.6010   48.7900 C.3    39  MET39       0.1570
      3  C        -22.7210  -15.4740   49.7920 C.2    39  MET39       0.2261
      4  O        -21.9690  -14.5000   49.8790 O.2    39  MET39      -0.2867
      5  CB       -23.0850  -16.3240   47.4310 C.3    39  MET39       0.0387
      6  CG       -22.4000  -15.2420   46.5960 C.3    39  MET39       0.0595
      7  SD       -20.6590  -15.5710   46.2170 S.3    39  MET39      -0.1393
      8  CE       -20.6010  -17.3490   46.2340 C.3    39  MET39       0.0692
      9  N        -20.0180  -15.3100   52.3380 N.3    42  LEU42      -0.1231
     10  CA       -18.8200  -14.7110   51.7720 C.3    42  LEU42       0.1693
     11  C        -18.9470  -13.1950   51.6490 C.2    42  LEU42       0.2592
     12  O        -18.0100  -12.4630   51.9620 O.2    42  LEU42      -0.2718
     13  CB       -18.4920  -15.3380   50.4150 C.3    42  LEU42       0.0284
     14  CG       -18.1910  -16.8390   50.4430 C.3    42  LEU42       0.0019
     15  CD1      -17.6090  -17.2940   49.1110 C.3    42  LEU42       0.0001
     16  CD2      -17.2390  -17.1690   51.5790 C.3    42  LEU42       0.0001
     17  N        -20.1070  -12.7250   51.1970 N.am   43  THR43      -0.1953
     18  CA       -20.3200  -11.2910   51.0330 C.3    43  THR43       0.1897
     19  C        -20.4140  -10.5930   52.3820 C.2    43  THR43       0.2313
     20  O        -19.9300   -9.4740   52.5380 O.2    43  THR43      -0.2863
     21  CB       -21.5590  -10.9680   50.1670 C.3    43  THR43       0.1794
     22  OG1      -22.7320  -11.5390   50.7580 O.3    43  THR43      -0.2208
     23  CG2      -21.3810  -11.5190   48.7550 C.3    43  THR43       0.0378
     24  N        -18.8960  -11.7100   55.0890 N.3    45  LEU45      -0.1231
     25  CA       -17.5290  -11.7720   55.5820 C.3    45  LEU45       0.1693
     26  C        -16.6660  -10.6790   54.9510 C.2    45  LEU45       0.2591
     27  O        -15.9220   -9.9940   55.6440 O.2    45  LEU45      -0.2718
     28  CB       -16.9270  -13.1540   55.3160 C.3    45  LEU45       0.0284
     29  CG       -15.6050  -13.4440   56.0290 C.3    45  LEU45       0.0019
     30  CD1      -15.7700  -13.2630   57.5220 C.3    45  LEU45       0.0001
     31  CD2      -15.0980  -14.8500   55.7090 C.3    45  LEU45       0.0001
     32  N        -16.7820  -10.5150   53.6380 N.am   46  ALA46      -0.1980
     33  CA       -15.9790   -9.5350   52.9080 C.3    46  ALA46       0.1597
     34  C        -16.2320   -8.1250   53.4200 C.2    46  ALA46       0.2287
     35  O        -15.3020   -7.3210   53.5430 O.2    46  ALA46      -0.2864
     36  CB       -16.2610   -9.6150   51.4080 C.3    46  ALA46       0.0319
     37  N        -14.4730   -7.7190   56.8360 N.3    49  GLU49      -0.1245
     38  CA       -13.0230   -7.6070   56.6590 C.3    49  GLU49       0.1567
     39  C        -12.6470   -6.2530   56.0600 C.2    49  GLU49       0.2260
     40  O        -11.6330   -5.6650   56.4330 O.2    49  GLU49      -0.2867
     41  CB       -12.4690   -8.7390   55.7910 C.3    49  GLU49       0.0388
     42  CG       -12.5220  -10.1160   56.4440 C.3    49  GLU49       0.1160
     43  CD       -11.4760  -11.0720   55.8820 C.2    49  GLU49       0.3649
     44  OE1      -11.7020  -11.6550   54.7990 O.co2  49  GLU49      -0.2457
     45  OE2      -10.4200  -11.2370   56.5300 O.co2  49  GLU49      -0.2457
     46  N         -8.7330   -3.7280   46.9140 N.3    78  TRP78      -0.1227
     47  CA        -9.4380   -4.3670   48.0280 C.3    78  TRP78       0.1737
     48  C         -9.5930   -5.8920   47.9070 C.2    78  TRP78       0.2595
     49  O         -9.2800   -6.6140   48.8430 O.2    78  TRP78      -0.2718
     50  CB       -10.7880   -3.6910   48.3030 C.3    78  TRP78       0.0564
     51  CG       -11.8350   -3.9310   47.2610 C.ar   78  TRP78       0.0003
     52  CD1      -12.0560   -3.1940   46.1300 C.ar   78  TRP78       0.0946
     53  CD2      -12.8170   -4.9730   47.2590 C.ar   78  TRP78       0.0152
     54  NE1      -13.1090   -3.7180   45.4230 N.ar   78  TRP78      -0.2442
     55  CE2      -13.5950   -4.8110   46.0930 C.ar   78  TRP78       0.0810
     56  CE3      -13.1110   -6.0310   48.1240 C.ar   78  TRP78       0.0012
     57  CZ2      -14.6530   -5.6650   45.7730 C.ar   78  TRP78       0.0191
     58  CZ3      -14.1700   -6.8780   47.8060 C.ar   78  TRP78       0.0001
     59  CH2      -14.9250   -6.6870   46.6410 C.ar   78  TRP78       0.0015
     60  N        -10.0740   -6.3780   46.7690 N.am   79  LEU79      -0.1980
     61  CA       -10.2590   -7.8180   46.5940 C.3    79  LEU79       0.1596
     62  C         -8.9240   -8.5800   46.5830 C.2    79  LEU79       0.2287
     63  O         -8.8190   -9.6720   47.1420 O.2    79  LEU79      -0.2864
     64  CB       -11.0710   -8.1210   45.3300 C.3    79  LEU79       0.0297
     65  CG       -11.5630   -9.5690   45.1960 C.3    79  LEU79       0.0022
     66  CD1      -12.1840  -10.0710   46.5030 C.3    79  LEU79       0.0001
     67  CD2      -12.5580   -9.7080   44.0510 C.3    79  LEU79       0.0001
     68  N         -7.9990   -8.9100   50.1380 N.3    82  LEU82      -0.1231
     69  CA        -8.8110   -9.9440   50.7830 C.3    82  LEU82       0.1693
     70  C         -8.2770  -11.3160   50.4030 C.2    82  LEU82       0.2591
     71  O         -8.1180  -12.1950   51.2500 O.2    82  LEU82      -0.2718
     72  CB       -10.2880   -9.8420   50.3820 C.3    82  LEU82       0.0284
     73  CG       -11.0940   -8.6750   50.9570 C.3    82  LEU82       0.0019
     74  CD1      -12.5430   -8.7560   50.4940 C.3    82  LEU82       0.0001
     75  CD2      -11.0120   -8.6610   52.4750 C.3    82  LEU82       0.0001
     76  N         -7.9870  -11.4920   49.1210 N.am   83  MET83      -0.1979
     77  CA        -7.5720  -12.7970   48.6220 C.3    83  MET83       0.1605
     78  C         -6.2230  -13.2560   49.1640 C.2    83  MET83       0.2287
     79  O         -6.0660  -14.4250   49.5160 O.2    83  MET83      -0.2864
     80  CB        -7.5770  -12.8180   47.0940 C.3    83  MET83       0.0413
     81  CG        -8.9680  -12.9150   46.5120 C.3    83  MET83       0.0598
     82  SD        -8.9540  -12.9480   44.7140 S.3    83  MET83      -0.1393
     83  CE       -10.6860  -13.2850   44.3920 C.3    83  MET83       0.0692
     84  N         -6.6490  -14.4260   52.6140 N.3    86  LEU86      -0.1245
     85  CA        -7.2930  -15.7310   52.5720 C.3    86  LEU86       0.1561
     86  C         -6.2820  -16.8420   52.2750 C.2    86  LEU86       0.2260
     87  O         -6.2110  -17.8420   52.9890 O.2    86  LEU86      -0.2867
     88  CB        -8.4030  -15.7370   51.5160 C.3    86  LEU86       0.0270
     89  CG        -9.0940  -17.0750   51.2420 C.3    86  LEU86       0.0019
     90  CD1       -9.7090  -17.6280   52.5140 C.3    86  LEU86       0.0001
     91  CD2      -10.1520  -16.9250   50.1530 C.3    86  LEU86       0.0001
     92  N         -4.0580  -17.3530   55.2280 N.3    89  ARG89      -0.1245
     93  CA        -4.7660  -18.0740   56.2880 C.3    89  ARG89       0.1563
     94  C         -4.8640  -19.5570   55.9940 C.2    89  ARG89       0.2260
     95  O         -4.9480  -20.3740   56.9060 O.2    89  ARG89      -0.2867
     96  CB        -6.2010  -17.5480   56.4640 C.3    89  ARG89       0.0307
     97  CG        -6.3200  -16.2010   57.1190 C.3    89  ARG89       0.0489
     98  CD        -7.7190  -15.9920   57.6950 C.3    89  ARG89       0.2205
     99  NE        -8.7670  -15.8740   56.6820 N.pl3  89  ARG89      -0.0865
    100  CZ        -9.0600  -14.7480   56.0410 C.cat  89  ARG89       0.5346
    101  NH1       -8.3670  -13.6450   56.2820 N.pl3  89  ARG89       0.1354
    102  NH2      -10.0400  -14.7230   55.1510 N.pl3  89  ARG89       0.1354
    103  N        -11.7830  -19.3330   55.0430 N.3    99  PHE99      -0.1241
    104  CA       -12.4230  -18.0230   55.0170 C.3    99  PHE99       0.1605
    105  C        -12.5510  -17.4910   56.4340 C.2    99  PHE99       0.2264
    106  O        -12.3410  -16.3060   56.6860 O.2    99  PHE99      -0.2867
    107  CB       -13.7960  -18.0910   54.3360 C.3    99  PHE99       0.0534
    108  CG       -13.7200  -18.2380   52.8430 C.ar   99  PHE99      -0.0203
    109  CD1      -13.6810  -17.1200   52.0250 C.ar   99  PHE99      -0.0042
    110  CD2      -13.6650  -19.4940   52.2560 C.ar   99  PHE99      -0.0042
    111  CE1      -13.5990  -17.2490   50.6530 C.ar   99  PHE99      -0.0003
    112  CE2      -13.5820  -19.6300   50.8830 C.ar   99  PHE99      -0.0003
    113  CZ       -13.5500  -18.5060   50.0810 C.ar   99  PHE99      -0.0000
    114  N        -17.8290  -20.4640   40.9660 N.3   115  MET115     -0.1245
    115  CA       -16.9770  -20.2650   42.1320 C.3   115  MET115      0.1570
    116  C        -15.7900  -21.2290   42.1690 C.2   115  MET115      0.2261
    117  O        -14.6730  -20.8290   42.5000 O.2   115  MET115     -0.2867
    118  CB       -17.7880  -20.3610   43.4250 C.3   115  MET115      0.0387
    119  CG       -16.9330  -20.2230   44.6720 C.3   115  MET115      0.0595
    120  SD       -16.1030  -18.6190   44.7560 S.3   115  MET115     -0.1393
    121  CE       -17.4470  -17.5950   45.3560 C.3   115  MET115      0.0692
    122  N        -12.5310  -20.1620   40.8180 N.3   118  ILE118     -0.1231
    123  CA       -11.8160  -19.2180   41.6640 C.3   118  ILE118      0.1692
    124  C        -11.1610  -19.9260   42.8490 C.2   118  ILE118      0.2592
    125  O         -9.9990  -19.6630   43.1610 O.2   118  ILE118     -0.2718
    126  CB       -12.7420  -18.0760   42.1330 C.3   118  ILE118      0.0266
    127  CG1      -13.3180  -17.3480   40.9140 C.3   118  ILE118      0.0019
    128  CG2      -11.9890  -17.1100   43.0280 C.3   118  ILE118      0.0020
    129  CD1      -14.2780  -16.2400   41.2600 C.3   118  ILE118      0.0001
    130  N        -11.8950  -20.8280   43.4990 N.am  119  PHE119     -0.1976
    131  CA       -11.2980  -21.6510   44.5510 C.3   119  PHE119      0.1639
    132  C        -10.0190  -22.3410   44.0570 C.2   119  PHE119      0.2290
    133  O         -9.0010  -22.3380   44.7420 O.2   119  PHE119     -0.2864
    134  CB       -12.2820  -22.7060   45.0720 C.3   119  PHE119      0.0560
    135  CG       -13.2600  -22.1880   46.0990 C.ar  119  PHE119     -0.0200
    136  CD1      -13.8160  -23.0500   47.0320 C.ar  119  PHE119     -0.0042
    137  CD2      -13.6240  -20.8530   46.1280 C.ar  119  PHE119     -0.0042
    138  CE1      -14.7140  -22.5890   47.9760 C.ar  119  PHE119     -0.0003
    139  CE2      -14.5240  -20.3820   47.0700 C.ar  119  PHE119     -0.0003
    140  CZ       -15.0750  -21.2530   47.9940 C.ar  119  PHE119     -0.0000
    141  N         -7.1910  -19.9960   43.9330 N.3   122  LEU122     -0.1245
    142  CA        -6.8160  -19.6400   45.3000 C.3   122  LEU122      0.1561
    143  C         -6.0320  -20.7690   45.9680 C.2   122  LEU122      0.2260
    144  O         -5.0240  -20.5280   46.6280 O.2   122  LEU122     -0.2867
    145  CB        -8.0530  -19.2740   46.1320 C.3   122  LEU122      0.0270
    146  CG        -8.7460  -17.9450   45.7980 C.3   122  LEU122      0.0019
    147  CD1      -10.1350  -17.8670   46.4370 C.3   122  LEU122      0.0001
    148  CD2       -7.8920  -16.7400   46.1990 C.3   122  LEU122      0.0001
    149  N        -12.4390  -12.6910   40.2780 N.3   207  GLY207     -0.1225
    150  CA       -13.2860  -12.5930   41.4460 C.3   207  GLY207      0.1811
    151  C        -14.2480  -11.4270   41.3350 C.2   207  GLY207      0.2280
    152  O        -15.3970  -11.5210   41.7770 O.2   207  GLY207     -0.2866
    153  N        -16.9450  -12.3130   39.0310 N.3   210  HIS210     -0.1226
    154  CA       -17.8140  -13.2950   39.6690 C.3   210  HIS210      0.1752
    155  C        -18.8060  -12.6350   40.6180 C.2   210  HIS210      0.2595
    156  O        -19.9940  -12.9450   40.5930 O.2   210  HIS210     -0.2718
    157  CB       -17.0170  -14.3560   40.4220 C.3   210  HIS210      0.0759
    158  CG       -17.8810  -15.3870   41.0720 C.ar  210  HIS210      0.0818
    159  ND1      -18.2620  -15.3120   42.3950 N.ar  210  HIS210     -0.2268
    160  CD2      -18.4800  -16.4930   40.5690 C.ar  210  HIS210      0.1154
    161  CE1      -19.0410  -16.3390   42.6840 C.ar  210  HIS210      0.1986
    162  NE2      -19.1880  -17.0720   41.5940 N.ar  210  HIS210     -0.2212
    163  N        -18.3090  -11.7310   41.4560 N.am  211  LEU211     -0.1980
    164  CA       -19.1660  -10.9970   42.3790 C.3   211  LEU211      0.1596
    165  C        -20.2000  -10.1790   41.6080 C.2   211  LEU211      0.2287
    166  O        -21.3720  -10.1340   41.9750 O.2   211  LEU211     -0.2864
    167  CB       -18.3330  -10.0800   43.2750 C.3   211  LEU211      0.0297
    168  CG       -19.1250   -9.3160   44.3350 C.3   211  LEU211      0.0022
    169  CD1      -19.9380  -10.2850   45.1960 C.3   211  LEU211      0.0001
    170  CD2      -18.1940   -8.4710   45.1930 C.3   211  LEU211      0.0001
@<TRIPOS>BOND
     1   153   154    1
     2   154   157    1
     3   154   155    1
     4   149   150    1
     5   157   158    1
     6   160   158   ar
     7   160   162   ar
     8   156   155    2
     9   155   163   am
    10   122   123    1
    11   127   129    1
    12   127   126    1
    13   114   115    1
    14   158   159   ar
    15   151   150    1
    16   151   152    2
    17   163   164    1
    18   162   161   ar
    19   165   166    2
    20   165   164    1
    21   123   126    1
    22   123   124    1
    23   115   116    1
    24   115   118    1
    25   126   128    1
    26   116   117    2
    27   164   167    1
    28   159   161   ar
    29   124   125    2
    30   124   130   am
    31   167   168    1
    32   118   119    1
    33   130   131    1
    34   141   142    1
    35    67    65    1
    36   132   131    1
    37   132   133    2
    38   168   170    1
    39   168   169    1
    40    83    82    1
    41   131   134    1
    42   119   120    1
    43    82    81    1
    44   120   121    1
    45   134   135    1
    46    65    64    1
    47    65    66    1
    48   142   143    1
    49   142   145    1
    50    64    61    1
    51    54    55   ar
    52    54    52   ar
    53    57    55   ar
    54    57    59   ar
    55   146   145    1
    56   146   148    1
    57   146   147    1
    58   143   144    2
    59    55    53   ar
    60   135   137   ar
    61   135   136   ar
    62   137   139   ar
    63    52    51   ar
    64     7     8    1
    65     7     6    1
    66    81    80    1
    67    62    61    1
    68    62    63    2
    69    61    60    1
    70     6     5    1
    71    59    58   ar
    72    60    48   am
    73    46    47    1
    74   136   138   ar
    75   139   140   ar
    76    80    77    1
    77    53    51   ar
    78    53    56   ar
    79    51    50    1
    80     5     2    1
    81    58    56   ar
    82    48    47    1
    83    48    49    2
    84   138   140   ar
    85    47    50    1
    86    77    76    1
    87    77    78    1
    88    23    21    1
    89     2     1    1
    90     2     3    1
    91    15    14    1
    92    76    70   am
    93    78    79    2
    94     3     4    2
    95   113   111   ar
    96   113   112   ar
    97    68    69    1
    98    91    89    1
    99    21    22    1
   100    21    18    1
   101    72    69    1
   102    72    73    1
   103    70    69    1
   104    70    71    2
   105    13    14    1
   106    13    10    1
   107    14    16    1
   108    74    73    1
   109   111   109   ar
   110   112   110   ar
   111    73    75    1
   112    18    17    1
   113    18    19    1
   114    17    11   am
   115    89    88    1
   116    89    90    1
   117    36    33    1
   118    88    85    1
   119    11    10    1
   120    11    12    2
   121    10     9    1
   122   109   108   ar
   123   110   108   ar
   124    86    85    1
   125    86    87    2
   126    19    20    2
   127    85    84    1
   128   108   107    1
   129    33    34    1
   130    33    32    1
   131    34    35    2
   132    32    26   am
   133   107   104    1
   134    44    43   ar
   135    26    25    1
   136    26    27    2
   137   104   103    1
   138   104   105    1
   139    24    25    1
   140   102   100    1
   141    92    93    1
   142    28    25    1
   143    28    29    1
   144    31    29    1
   145    41    42    1
   146    41    38    1
   147    43    42    1
   148    43    45   ar
   149    94    93    1
   150    94    95    2
   151    29    30    1
   152   100   101    1
   153   100    99    2
   154    39    40    2
   155    39    38    1
   156    93    96    1
   157   105   106    2
   158    96    97    1
   159    38    37    1
   160    99    98    1
   161    97    98    1
