@<TRIPOS>MOLECULE
tmp/4mgcB00.pdb
 127 120 0 0 0
SMALL
GASTEIGER

@<TRIPOS>ATOM
      1  N        -13.9320   -3.3350   56.5470 N.3    51  VAL51      -0.1245
      2  CA       -13.8680   -2.3010   57.5700 C.3    51  VAL51       0.1561
      3  C        -12.5320   -2.3370   58.3090 C.2    51  VAL51       0.2260
      4  O        -11.9240   -1.2970   58.5650 O.2    51  VAL51      -0.2867
      5  CB       -15.0300   -2.4120   58.5720 C.3    51  VAL51       0.0252
      6  CG1      -14.8620   -1.3870   59.6820 C.3    51  VAL51       0.0019
      7  CG2      -16.3630   -2.2250   57.8540 C.3    51  VAL51       0.0019
      8  N         -9.7750   -1.0760   55.8420 N.3    54  ILE54      -0.1231
      9  CA        -9.7460    0.3750   55.7440 C.3    54  ILE54       0.1692
     10  C         -8.8940    0.9540   56.8600 C.2    54  ILE54       0.2592
     11  O         -8.0710    1.8500   56.6350 O.2    54  ILE54      -0.2718
     12  CB       -11.1610    0.9660   55.8200 C.3    54  ILE54       0.0266
     13  CG1      -11.9540    0.5800   54.5700 C.3    54  ILE54       0.0019
     14  CG2      -11.0910    2.4780   55.9630 C.3    54  ILE54       0.0020
     15  CD1      -13.4520    0.7970   54.6880 C.3    54  ILE54       0.0001
     16  N         -9.0730    0.4200   58.0630 N.am   55  ASN55      -0.1974
     17  CA        -8.3020    0.8890   59.2060 C.3    55  ASN55       0.1688
     18  C         -6.8670    0.3660   59.2300 C.2    55  ASN55       0.2292
     19  O         -5.9700    1.0500   59.7110 O.2    55  ASN55      -0.2864
     20  CB        -9.0450    0.6110   60.5140 C.3    55  ASN55       0.1181
     21  CG       -10.2890    1.4670   60.6560 C.2    55  ASN55       0.2629
     22  OD1      -10.2190    2.6070   61.1150 O.2    55  ASN55      -0.2716
     23  ND2      -11.4330    0.9320   60.2340 N.am   55  ASN55      -0.0877
     24  N         -4.6470    2.6340   56.9230 N.3    58  LYS58      -0.1245
     25  CA        -4.2230    3.8870   57.5410 C.3    58  LYS58       0.1561
     26  C         -2.9340    3.7240   58.3400 C.2    58  LYS58       0.2260
     27  O         -2.2280    4.6970   58.5910 O.2    58  LYS58      -0.2867
     28  CB        -5.3210    4.4360   58.4510 C.3    58  LYS58       0.0271
     29  CG        -6.5860    4.8540   57.6870 C.3    58  LYS58       0.0035
     30  CD        -7.6780    5.3290   58.6700 C.3    58  LYS58       0.0206
     31  CE        -8.9490    5.1270   57.8850 C.3    58  LYS58       0.1093
     32  NZ       -10.1710    5.5620   58.5800 N.3    58  LYS58      -0.1314
     33  N          0.7760    5.8150   53.7220 N.3    63  PHE63      -0.1241
     34  CA        -0.5750    5.8370   53.1720 C.3    63  PHE63       0.1605
     35  C         -1.3700    7.0900   53.5570 C.2    63  PHE63       0.2264
     36  O         -2.0510    7.6760   52.7160 O.2    63  PHE63      -0.2867
     37  CB        -1.3490    4.5730   53.5620 C.3    63  PHE63       0.0534
     38  CG        -2.7140    4.4800   52.9350 C.ar   63  PHE63      -0.0203
     39  CD1       -3.8430    4.8770   53.6330 C.ar   63  PHE63      -0.0042
     40  CD2       -2.8660    3.9960   51.6450 C.ar   63  PHE63      -0.0042
     41  CE1       -5.1010    4.7860   53.0590 C.ar   63  PHE63      -0.0003
     42  CE2       -4.1120    3.9090   51.0650 C.ar   63  PHE63      -0.0003
     43  CZ        -5.2350    4.3040   51.7720 C.ar   63  PHE63      -0.0000
     44  N         -7.2560   12.1070   50.5210 N.3    68  LEU68      -0.1231
     45  CA        -8.3850   11.1900   50.6540 C.3    68  LEU68       0.1693
     46  C         -8.7780   10.5720   49.3200 C.2    68  LEU68       0.2592
     47  O         -9.1870    9.4120   49.2690 O.2    68  LEU68      -0.2718
     48  CB        -9.5960   11.8880   51.2780 C.3    68  LEU68       0.0284
     49  CG        -9.5520   12.1070   52.7840 C.3    68  LEU68       0.0019
     50  CD1      -10.8240   12.7880   53.2560 C.3    68  LEU68       0.0001
     51  CD2       -9.3570   10.7790   53.5010 C.3    68  LEU68       0.0001
     52  N         -8.6620   11.3440   48.2440 N.am   69  HIS69      -0.1976
     53  CA        -9.0300   10.8450   46.9250 C.3    69  HIS69       0.1656
     54  C         -8.0570    9.7760   46.4400 C.2    69  HIS69       0.2291
     55  O         -8.4530    8.8370   45.7540 O.2    69  HIS69      -0.2864
     56  CB        -9.1390   11.9880   45.9170 C.3    69  HIS69       0.0771
     57  CG       -10.4380   12.7290   45.9920 C.ar   69  HIS69       0.0820
     58  ND1      -10.5510   14.0680   45.6880 N.ar   69  HIS69      -0.2267
     59  CD2      -11.6800   12.3150   46.3390 C.ar   69  HIS69       0.1154
     60  CE1      -11.8070   14.4480   45.8420 C.ar   69  HIS69       0.1986
     61  NE2      -12.5130   13.4030   46.2370 N.ar   69  HIS69      -0.2212
     62  N         -6.1900    7.8640   48.5920 N.3    71  GLN71      -0.1231
     63  CA        -6.4350    6.7390   49.4810 C.3    71  GLN71       0.1698
     64  C         -7.6370    5.9390   48.9910 C.2    71  GLN71       0.2592
     65  O         -7.5940    4.7120   48.9180 O.2    71  GLN71      -0.2718
     66  CB        -6.6590    7.2260   50.9110 C.3    71  GLN71       0.0381
     67  CG        -5.4410    7.8970   51.5300 C.3    71  GLN71       0.0905
     68  CD        -5.7160    8.3960   52.9300 C.2    71  GLN71       0.2608
     69  OE1       -6.7050    8.0110   53.5500 O.2    71  GLN71      -0.2717
     70  NE2       -4.8450    9.2610   53.4350 N.am   71  GLN71      -0.0878
     71  N         -8.7040    6.6470   48.6400 N.am   72  VAL72      -0.1980
     72  CA        -9.9120    6.0080   48.1390 C.3    72  VAL72       0.1595
     73  C         -9.5910    5.1710   46.9070 C.2    72  VAL72       0.2287
     74  O        -10.0020    4.0170   46.7970 O.2    72  VAL72      -0.2864
     75  CB       -10.9870    7.0490   47.7750 C.3    72  VAL72       0.0276
     76  CG1      -12.0420    6.4370   46.8710 C.3    72  VAL72       0.0022
     77  CG2      -11.6180    7.6320   49.0390 C.3    72  VAL72       0.0022
     78  N         -7.4250    1.9070   47.5990 N.3    75  LEU75      -0.1231
     79  CA        -8.2360    0.8740   48.2410 C.3    75  LEU75       0.1693
     80  C         -9.3150    0.3310   47.3010 C.2    75  LEU75       0.2591
     81  O         -9.5960   -0.8700   47.2920 O.2    75  LEU75      -0.2718
     82  CB        -8.8520    1.3960   49.5450 C.3    75  LEU75       0.0284
     83  CG        -7.9670    1.3480   50.7980 C.3    75  LEU75       0.0019
     84  CD1       -8.5360    2.2040   51.9270 C.3    75  LEU75       0.0001
     85  CD2       -7.7670   -0.0910   51.2620 C.3    75  LEU75       0.0001
     86  N         -9.9110    1.2130   46.5040 N.am   76  GLU76      -0.1979
     87  CA       -10.8590    0.7750   45.4890 C.3    76  GLU76       0.1602
     88  C        -10.2280   -0.2190   44.5160 C.2    76  GLU76       0.2287
     89  O        -10.8530   -1.2090   44.1370 O.2    76  GLU76      -0.2864
     90  CB       -11.4500    1.9680   44.7200 C.3    76  GLU76       0.0415
     91  CG       -12.4650    2.7780   45.5250 C.3    76  GLU76       0.1163
     92  CD       -13.1590    3.8590   44.7070 C.2    76  GLU76       0.3649
     93  OE1      -14.2840    4.2560   45.0810 O.co2  76  GLU76      -0.2457
     94  OE2      -12.5860    4.3150   43.6970 O.co2  76  GLU76      -0.2457
     95  N        -24.0010   -1.6160   51.1230 N.3   223  ASP223     -0.1225
     96  CA       -23.7460   -0.3990   50.3660 C.3   223  ASP223      0.1805
     97  C        -22.2480   -0.2310   50.0900 C.2   223  ASP223      0.2597
     98  O        -21.8510    0.1560   48.9940 O.2   223  ASP223     -0.2718
     99  CB       -24.3040    0.8240   51.1000 C.3   223  ASP223      0.1424
    100  CG       -25.8260    0.8320   51.1550 C.2   223  ASP223      0.3668
    101  OD1      -26.4640    0.2610   50.2440 O.co2 223  ASP223     -0.2456
    102  OD2      -26.3840    1.4110   52.1120 O.co2 223  ASP223     -0.2456
    103  N        -21.4250   -0.5340   51.0890 N.am  224  LEU224     -0.1979
    104  CA       -19.9770   -0.4230   50.9490 C.3   224  LEU224      0.1596
    105  C        -19.4530   -1.3520   49.8590 C.2   224  LEU224      0.2287
    106  O        -18.7110   -0.9280   48.9700 O.2   224  LEU224     -0.2864
    107  CB       -19.2830   -0.7350   52.2750 C.3   224  LEU224      0.0297
    108  CG       -17.7540   -0.7140   52.2400 C.3   224  LEU224      0.0022
    109  CD1      -17.2480    0.6440   51.7770 C.3   224  LEU224      0.0001
    110  CD2      -17.1830   -1.0700   53.6060 C.3   224  LEU224      0.0001
    111  N        -20.2170   -0.1530   46.4380 N.3   227  GLU227     -0.1231
    112  CA       -19.3880    0.9520   45.9620 C.3   227  GLU227      0.1699
    113  C        -17.9820    0.4930   45.5700 C.2   227  GLU227      0.2592
    114  O        -17.4140    0.9880   44.5950 O.2   227  GLU227     -0.2718
    115  CB       -19.3340    2.0920   46.9880 C.3   227  GLU227      0.0402
    116  CG       -20.6940    2.7670   47.2090 C.3   227  GLU227      0.1161
    117  CD       -20.6320    3.9940   48.1120 C.2   227  GLU227      0.3649
    118  OE1      -19.7820    4.0390   49.0290 O.co2 227  GLU227     -0.2457
    119  OE2      -21.4460    4.9180   47.9010 O.co2 227  GLU227     -0.2457
    120  N        -17.4290   -0.4560   46.3230 N.am  228  MET228     -0.1979
    121  CA       -16.1250   -1.0240   45.9880 C.3   228  MET228      0.1605
    122  C        -16.2040   -1.7650   44.6570 C.2   228  MET228      0.2287
    123  O        -15.2630   -1.7390   43.8630 O.2   228  MET228     -0.2864
    124  CB       -15.6340   -1.9670   47.0920 C.3   228  MET228      0.0413
    125  CG       -15.5810   -1.3330   48.4710 C.3   228  MET228      0.0598
    126  SD       -14.4380    0.0630   48.5790 S.3   228  MET228     -0.1393
    127  CE       -12.8580   -0.7770   48.4930 C.3   228  MET228      0.0692
@<TRIPOS>BOND
     1    94    92   ar
     2   123   122    2
     3    89    88    2
     4    88    87    1
     5   114   113    2
     6   122   121    1
     7    92    93   ar
     8    92    91    1
     9    90    87    1
    10    90    91    1
    11    87    86    1
    12   113   112    1
    13   113   120   am
    14    58    60   ar
    15    58    57   ar
    16    55    54    2
    17    60    61   ar
    18    56    57    1
    19    56    53    1
    20   112   111    1
    21   112   115    1
    22   121   120    1
    23   121   124    1
    24    57    59   ar
    25    61    59   ar
    26    54    53    1
    27    86    80   am
    28    74    73    2
    29    76    75    1
    30    73    72    1
    31    53    52    1
    32   115   116    1
    33   124   125    1
    34   116   117    1
    35    81    80    2
    36    80    79    1
    37    78    79    1
    38    75    72    1
    39    75    77    1
    40   119   117   ar
    41   117   118   ar
    42    72    71    1
    43    79    82    1
    44    52    46   am
    45   125   126    1
    46   127   126    1
    47    62    63    1
    48    71    64   am
    49    65    64    2
    50   106   105    2
    51    64    63    1
    52    98    97    2
    53    47    46    2
    54    46    45    1
    55    63    66    1
    56    82    83    1
    57   105   104    1
    58    97    96    1
    59    97   103   am
    60   101   100   ar
    61    96    99    1
    62    96    95    1
    63    44    45    1
    64    45    48    1
    65    83    85    1
    66    83    84    1
    67    66    67    1
    68   104   103    1
    69   104   107    1
    70    42    40   ar
    71    42    43   ar
    72    99   100    1
    73   100   102   ar
    74    48    49    1
    75    67    68    1
    76    40    38   ar
    77    43    41   ar
    78   109   108    1
    79   108   107    1
    80   108   110    1
    81    36    35    2
    82    49    50    1
    83    49    51    1
    84    68    70   am
    85    68    69    2
    86    38    37    1
    87    38    39   ar
    88    41    39   ar
    89    34    35    1
    90    34    37    1
    91    34    33    1
    92    13    15    1
    93    13    12    1
    94     9    12    1
    95     9     8    1
    96     9    10    1
    97    12    14    1
    98     1     2    1
    99    11    10    2
   100    10    16   am
   101    24    25    1
   102    25    26    1
   103    25    28    1
   104     2     3    1
   105     2     5    1
   106    29    28    1
   107    29    30    1
   108     7     5    1
   109    31    32    1
   110    31    30    1
   111    16    17    1
   112     3     4    2
   113    26    27    2
   114     5     6    1
   115    17    18    1
   116    17    20    1
   117    18    19    2
   118    23    21   am
   119    20    21    1
   120    21    22    2
