@<TRIPOS>MOLECULE
tmp/4mgiA00.pdb
 188 180 0 0 0
SMALL
GASTEIGER

@<TRIPOS>ATOM
      1  N          2.2370  -19.7550  -70.8590 N.3    58  PHE58      -0.1241
      2  CA         3.3450  -20.7040  -70.7890 C.3    58  PHE58       0.1605
      3  C          3.0490  -21.8400  -69.8120 C.2    58  PHE58       0.2264
      4  O          2.1350  -21.7470  -68.9880 O.2    58  PHE58      -0.2867
      5  CB         4.6810  -20.0170  -70.4580 C.3    58  PHE58       0.0534
      6  CG         4.6740  -19.2250  -69.1760 C.ar   58  PHE58      -0.0203
      7  CD1        4.7520  -19.8640  -67.9390 C.ar   58  PHE58      -0.0042
      8  CD2        4.6270  -17.8360  -69.2080 C.ar   58  PHE58      -0.0042
      9  CE1        4.7570  -19.1350  -66.7580 C.ar   58  PHE58      -0.0003
     10  CE2        4.6360  -17.0950  -68.0310 C.ar   58  PHE58      -0.0003
     11  CZ         4.7060  -17.7470  -66.8050 C.ar   58  PHE58      -0.0000
     12  N         -2.7770  -19.2830  -61.9990 N.3    77  VAL77      -0.1245
     13  CA        -1.4630  -19.8670  -61.7530 C.3    77  VAL77       0.1561
     14  C         -1.6790  -21.3490  -61.4280 C.2    77  VAL77       0.2260
     15  O         -2.2210  -21.6890  -60.3760 O.2    77  VAL77      -0.2867
     16  CB        -0.7290  -19.1420  -60.6010 C.3    77  VAL77       0.0252
     17  CG1        0.7100  -19.6020  -60.5070 C.3    77  VAL77       0.0019
     18  CG2       -0.7850  -17.6280  -60.7980 C.3    77  VAL77       0.0019
     19  N         -0.3220  -25.2930  -60.9550 N.3    79  ILE79      -0.1245
     20  CA         0.8070  -26.1590  -60.6070 C.3    79  ILE79       0.1561
     21  C          0.3640  -27.6240  -60.6050 C.2    79  ILE79       0.2260
     22  O         -0.6920  -27.9530  -60.0550 O.2    79  ILE79      -0.2867
     23  CB         1.4220  -25.7700  -59.2320 C.3    79  ILE79       0.0252
     24  CG1        1.9710  -24.3430  -59.2810 C.3    79  ILE79       0.0019
     25  CG2        2.5230  -26.7450  -58.8270 C.3    79  ILE79       0.0019
     26  CD1        2.3150  -23.7450  -57.9350 C.3    79  ILE79       0.0001
     27  N         -3.5140  -22.6180  -58.1040 N.3    85  VAL85      -0.1231
     28  CA        -2.9060  -22.2760  -56.8300 C.3    85  VAL85       0.1692
     29  C         -3.2370  -20.8440  -56.3940 C.2    85  VAL85       0.2592
     30  O         -3.3780  -20.5700  -55.2010 O.2    85  VAL85      -0.2718
     31  CB        -1.3890  -22.5990  -56.8720 C.3    85  VAL85       0.0266
     32  CG1       -0.5150  -21.3740  -56.6280 C.3    85  VAL85       0.0020
     33  CG2       -1.0720  -23.7490  -55.9220 C.3    85  VAL85       0.0020
     34  N         -3.3660  -19.9440  -57.3680 N.am   86  CYS86      -0.1970
     35  CA        -3.8790  -18.5910  -57.1470 C.3    86  CYS86       0.1712
     36  C         -4.2220  -17.9350  -58.4800 C.2    86  CYS86       0.2296
     37  O         -3.8180  -18.4170  -59.5410 O.2    86  CYS86      -0.2864
     38  CB        -2.8870  -17.7230  -56.3590 C.3    86  CYS86       0.0983
     39  SG        -1.4900  -17.0480  -57.3010 S.3    86  CYS86      -0.0798
     40  N         -4.2170  -14.1750  -60.6300 N.3    88  LEU88      -0.1245
     41  CA        -3.6870  -12.8160  -60.6890 C.3    88  LEU88       0.1561
     42  C         -4.6080  -11.9380  -61.5300 C.2    88  LEU88       0.2260
     43  O         -5.1990  -12.4070  -62.5030 O.2    88  LEU88      -0.2867
     44  CB        -2.2630  -12.8140  -61.2480 C.3    88  LEU88       0.0270
     45  CG        -1.2120  -13.6400  -60.4930 C.3    88  LEU88       0.0019
     46  CD1        0.0220  -13.8570  -61.3510 C.3    88  LEU88       0.0001
     47  CD2       -0.8290  -13.0130  -59.1550 C.3    88  LEU88       0.0001
     48  N          1.8690   -8.5150  -61.9230 N.3    93  ASP93      -0.1225
     49  CA         2.9250   -8.9750  -62.8170 C.3    93  ASP93       0.1805
     50  C          3.3690  -10.3990  -62.4730 C.2    93  ASP93       0.2598
     51  O          3.3250  -10.8110  -61.3110 O.2    93  ASP93      -0.2718
     52  CB         4.1220   -8.0180  -62.7820 C.3    93  ASP93       0.1424
     53  CG         4.8710   -8.0640  -61.4640 C.2    93  ASP93       0.3668
     54  OD1        5.9830   -8.6310  -61.4350 O.co2  93  ASP93      -0.2456
     55  OD2        4.3440   -7.5490  -60.4560 O.co2  93  ASP93      -0.2456
     56  N          3.7940  -11.1430  -63.4900 N.am   94  PHE94      -0.1962
     57  CA         4.2880  -12.5030  -63.2980 C.3    94  PHE94       0.1771
     58  C          5.3920  -12.8510  -64.2900 C.2    94  PHE94       0.2620
     59  O          5.5400  -12.1950  -65.3220 O.2    94  PHE94      -0.2715
     60  CB         3.1420  -13.5220  -63.3920 C.3    94  PHE94       0.0574
     61  CG         2.3750  -13.4760  -64.6920 C.ar   94  PHE94      -0.0200
     62  CD1        2.7640  -14.2560  -65.7770 C.ar   94  PHE94      -0.0042
     63  CD2        1.2490  -12.6680  -64.8240 C.ar   94  PHE94      -0.0042
     64  CE1        2.0490  -14.2210  -66.9750 C.ar   94  PHE94      -0.0003
     65  CE2        0.5310  -12.6290  -66.0180 C.ar   94  PHE94      -0.0003
     66  CZ         0.9320  -13.4060  -67.0910 C.ar   94  PHE94      -0.0000
     67  N          6.1610  -13.8860  -63.9670 N.am   95  GLY95      -0.1940
     68  CA         7.1780  -14.4100  -64.8740 C.3    95  GLY95       0.2014
     69  C          8.5780  -13.9050  -64.5980 C.2    95  GLY95       0.2639
     70  O          9.5130  -14.2070  -65.3380 O.2    95  GLY95      -0.2714
     71  N          8.7210  -13.1430  -63.5220 N.am   96  LYS96      -0.1963
     72  CA         9.9940  -12.5470  -63.1620 C.3    96  LYS96       0.1728
     73  C         11.0070  -13.5790  -62.6710 C.2    96  LYS96       0.2616
     74  O         12.1590  -13.5650  -63.0980 O.2    96  LYS96      -0.2715
     75  CB         9.7770  -11.4880  -62.0870 C.3    96  LYS96       0.0311
     76  CG        10.9170  -10.5110  -61.9220 C.3    96  LYS96       0.0038
     77  CD        11.0950  -10.2180  -60.4600 C.3    96  LYS96       0.0206
     78  CE        10.9740   -8.7470  -60.1730 C.3    96  LYS96       0.1093
     79  NZ        10.8820   -8.5450  -58.7070 N.3    96  LYS96      -0.1314
     80  N         10.5730  -14.4700  -61.7810 N.am   97  LEU97      -0.1963
     81  CA        11.4820  -15.4000  -61.1030 C.3    97  LEU97       0.1728
     82  C         12.2790  -16.3050  -62.0500 C.2    97  LEU97       0.2616
     83  O         13.5020  -16.3920  -61.9340 O.2    97  LEU97      -0.2715
     84  CB        10.7380  -16.2310  -60.0500 C.3    97  LEU97       0.0311
     85  CG        11.5800  -17.2080  -59.2180 C.3    97  LEU97       0.0022
     86  CD1       12.5790  -16.4690  -58.3340 C.3    97  LEU97       0.0001
     87  CD2       10.6940  -18.1170  -58.3860 C.3    97  LEU97       0.0001
     88  N         11.5860  -16.9690  -62.9760 N.am   98  ALA98      -0.1977
     89  CA        12.2270  -17.8870  -63.9240 C.3    98  ALA98       0.1597
     90  C         13.2690  -17.1790  -64.7790 C.2    98  ALA98       0.2287
     91  O         14.3480  -17.7120  -65.0270 O.2    98  ALA98      -0.2864
     92  CB        11.1890  -18.5480  -64.8090 C.3    98  ALA98       0.0319
     93  N         13.5660  -23.1410  -64.5280 N.3   104  PRO104     -0.2102
     94  CA        12.3250  -23.5100  -65.2180 C.3   104  PRO104      0.1504
     95  C         11.1090  -22.8170  -64.6070 C.2   104  PRO104      0.2576
     96  O         11.1460  -22.4160  -63.4400 O.2   104  PRO104     -0.2718
     97  CB        12.2320  -25.0250  -64.9950 C.3   104  PRO104      0.0282
     98  CG        13.6120  -25.4540  -64.6250 C.3   104  PRO104      0.0208
     99  CD        14.1970  -24.3070  -63.8820 C.3   104  PRO104      0.0893
    100  N         10.0470  -22.6710  -65.3960 N.am  105  ARG105     -0.1966
    101  CA         8.7940  -22.1230  -64.8950 C.3   105  ARG105      0.1729
    102  C          8.2560  -23.0160  -63.7850 C.2   105  ARG105      0.2616
    103  O          8.0810  -24.2210  -63.9760 O.2   105  ARG105     -0.2715
    104  CB         7.7610  -21.9960  -66.0200 C.3   105  ARG105      0.0348
    105  CG         8.1140  -21.0090  -67.1310 C.3   105  ARG105      0.0492
    106  CD         8.1740  -19.5780  -66.6260 C.3   105  ARG105      0.2205
    107  NE         7.9550  -18.6110  -67.6980 N.pl3 105  ARG105     -0.0865
    108  CZ         8.1860  -17.3040  -67.5960 C.cat 105  ARG105      0.5346
    109  NH1        8.6610  -16.7910  -66.4700 N.pl3 105  ARG105      0.1354
    110  NH2        7.9490  -16.5090  -68.6290 N.pl3 105  ARG105      0.1354
    111  N          8.0120  -22.4210  -62.6220 N.am  106  ALA106     -0.1963
    112  CA         7.5200  -23.1560  -61.4600 C.3   106  ALA106      0.1728
    113  C          6.0200  -23.4470  -61.5570 C.2   106  ALA106      0.2616
    114  O          5.5000  -24.3020  -60.8360 O.2   106  ALA106     -0.2715
    115  CB         7.8400  -22.3980  -60.1830 C.3   106  ALA106      0.0334
    116  N          5.3380  -22.7360  -62.4520 N.am  107  ALA107     -0.1977
    117  CA         3.8980  -22.8880  -62.6470 C.3   107  ALA107      0.1597
    118  C          3.4930  -22.6080  -64.0940 C.2   107  ALA107      0.2287
    119  O          4.2960  -22.1200  -64.8930 O.2   107  ALA107     -0.2864
    120  CB         3.1450  -21.9680  -61.7060 C.3   107  ALA107      0.0319
    121  N          0.7050  -20.5400  -66.5970 N.3   109  ILE109     -0.1245
    122  CA        -0.2040  -19.3970  -66.6030 C.3   109  ILE109      0.1561
    123  C         -1.2680  -19.5830  -67.6870 C.2   109  ILE109      0.2260
    124  O         -0.9550  -19.6960  -68.8750 O.2   109  ILE109     -0.2867
    125  CB         0.5470  -18.0440  -66.7500 C.3   109  ILE109      0.0252
    126  CG1        1.5350  -17.8300  -65.5890 C.3   109  ILE109      0.0019
    127  CG2       -0.4370  -16.8810  -66.8500 C.3   109  ILE109      0.0019
    128  CD1        0.9150  -17.5640  -64.2190 C.3   109  ILE109      0.0001
    129  N          9.9230  -11.3880  -54.6690 N.3   138  VAL138     -0.1231
    130  CA         9.0540  -12.3800  -55.2910 C.3   138  VAL138      0.1692
    131  C          8.2830  -13.1040  -54.1910 C.2   138  VAL138      0.2592
    132  O          8.8780  -13.7560  -53.3300 O.2   138  VAL138     -0.2718
    133  CB         9.8400  -13.3860  -56.1640 C.3   138  VAL138      0.0266
    134  CG1        8.9000  -14.4020  -56.7840 C.3   138  VAL138      0.0020
    135  CG2       10.6070  -12.6610  -57.2560 C.3   138  VAL138      0.0020
    136  N          6.9600  -12.9600  -54.2150 N.am  139  ARG139     -0.1966
    137  CA         6.0880  -13.5720  -53.2150 C.3   139  ARG139      0.1729
    138  C          5.1320  -14.5600  -53.8660 C.2   139  ARG139      0.2616
    139  O          4.0850  -14.1730  -54.3880 O.2   139  ARG139     -0.2715
    140  CB         5.2950  -12.5100  -52.4490 C.3   139  ARG139      0.0348
    141  CG         6.1350  -11.6300  -51.5540 C.3   139  ARG139      0.0492
    142  CD         5.2630  -10.7370  -50.6840 C.3   139  ARG139      0.2205
    143  NE         6.0730   -9.8910  -49.8080 N.pl3 139  ARG139     -0.0865
    144  CZ         6.5120  -10.2450  -48.5990 C.cat 139  ARG139      0.5346
    145  NH1        6.2200  -11.4390  -48.0920 N.pl3 139  ARG139      0.1354
    146  NH2        7.2470   -9.3960  -47.8920 N.pl3 139  ARG139      0.1354
    147  N          5.5020  -15.8360  -53.8360 N.am  140  LEU140     -0.1963
    148  CA         4.6620  -16.8890  -54.3860 C.3   140  LEU140      0.1728
    149  C          3.5300  -17.1980  -53.4120 C.2   140  LEU140      0.2616
    150  O          3.7680  -17.4330  -52.2260 O.2   140  LEU140     -0.2715
    151  CB         5.4920  -18.1370  -54.7010 C.3   140  LEU140      0.0311
    152  CG         6.7100  -17.9760  -55.6210 C.3   140  LEU140      0.0022
    153  CD1        7.2950  -19.3300  -55.9670 C.3   140  LEU140      0.0001
    154  CD2        6.3730  -17.2110  -56.8930 C.3   140  LEU140      0.0001
    155  N          2.3000  -17.1770  -53.9160 N.am  141  LYS141     -0.1963
    156  CA         1.1160  -17.3150  -53.0690 C.3   141  LYS141      0.1728
    157  C          0.2510  -18.5150  -53.4300 C.2   141  LYS141      0.2616
    158  O          0.0680  -18.8340  -54.6030 O.2   141  LYS141     -0.2715
    159  CB         0.2780  -16.0290  -53.0950 C.3   141  LYS141      0.0311
    160  CG         0.9470  -14.8440  -52.4090 C.3   141  LYS141      0.0038
    161  CD         0.1470  -13.5560  -52.5560 C.3   141  LYS141      0.0206
    162  CE         0.9680  -12.3560  -52.0940 C.3   141  LYS141      0.1093
    163  NZ         0.1610  -11.1070  -51.9890 N.3   141  LYS141     -0.1314
    164  N         -0.2620  -19.1830  -52.4010 N.am  142  GLU142     -0.1977
    165  CA        -1.2330  -20.2610  -52.5620 C.3   142  GLU142      0.1602
    166  C         -2.3520  -20.0520  -51.5500 C.2   142  GLU142      0.2287
    167  O         -2.0920  -19.9070  -50.3500 O.2   142  GLU142     -0.2864
    168  CB        -0.5880  -21.6380  -52.3620 C.3   142  GLU142      0.0415
    169  CG         0.6570  -21.8880  -53.2100 C.3   142  GLU142      0.1163
    170  CD         1.1630  -23.3220  -53.1530 C.2   142  GLU142      0.3649
    171  OE1        0.7250  -24.0890  -52.2660 O.co2 142  GLU142     -0.2457
    172  OE2        2.0090  -23.6800  -54.0050 O.co2 142  GLU142     -0.2457
    173  N          3.7730  -18.3280  -49.4240 N.3   147  VAL147     -0.1245
    174  CA         4.1900  -19.7220  -49.4260 C.3   147  VAL147      0.1561
    175  C          5.6880  -19.8400  -49.7500 C.2   147  VAL147      0.2260
    176  O          6.3430  -20.8060  -49.3540 O.2   147  VAL147     -0.2867
    177  CB         3.2600  -20.5600  -50.3580 C.3   147  VAL147      0.0252
    178  CG1        3.8940  -21.8350  -50.7970 C.3   147  VAL147      0.0019
    179  CG2        1.9500  -20.8690  -49.6540 C.3   147  VAL147      0.0019
    180  N          6.8250  -25.9790  -49.9750 N.3   165  LYS165     -0.1245
    181  CA         7.2060  -25.1450  -51.1160 C.3   165  LYS165      0.1561
    182  C          8.7120  -25.0030  -51.2480 C.2   165  LYS165      0.2260
    183  O          9.2310  -24.9130  -52.3620 O.2   165  LYS165     -0.2867
    184  CB         6.5630  -23.7640  -51.0430 C.3   165  LYS165      0.0271
    185  CG         6.6990  -22.9490  -52.3290 C.3   165  LYS165      0.0035
    186  CD         5.8430  -23.5090  -53.4540 C.3   165  LYS165      0.0206
    187  CE         5.9430  -22.6560  -54.7020 C.3   165  LYS165      0.1093
    188  NZ         5.0580  -23.1670  -55.7840 N.3   165  LYS165     -0.1314
@<TRIPOS>BOND
     1     1     2    1
     2     2     5    1
     3     2     3    1
     4     5     6    1
     5     3     4    2
     6     8     6   ar
     7     8    10   ar
     8     6     7   ar
     9   124   123    2
    10   110   108    1
    11    10    11   ar
    12     7     9   ar
    13   107   108    2
    14   107   106    1
    15   123   122    1
    16   108   109    1
    17   105   106    1
    18   105   104    1
    19    66    64   ar
    20    66    65   ar
    21    64    62   ar
    22   127   125    1
    23    11     9   ar
    24   125   122    1
    25   125   126    1
    26   122   121    1
    27   104   101    1
    28    65    63   ar
    29    62    61   ar
    30   126   128    1
    31   100   101    1
    32   100    95   am
    33    70    69    2
    34    59    58    2
    35    94    97    1
    36    94    95    1
    37    94    93    1
    38    91    90    2
    39    97    98    1
    40   101   102    1
    41   119   118    2
    42    68    69    1
    43    68    67    1
    44    63    61   ar
    45    92    89    1
    46    90    89    1
    47    61    60    1
    48    98    99    1
    49    95    96    2
    50    69    71   am
    51    93    99    1
    52    58    67   am
    53    58    57    1
    54   118   117    1
    55   103   102    2
    56    89    88    1
    57   102   111   am
    58    71    72    1
    59    56    57    1
    60    56    50   am
    61    60    57    1
    62    72    73    1
    63    72    75    1
    64    74    73    2
    65    88    82   am
    66    49    52    1
    67    49    50    1
    68    49    48    1
    69    52    53    1
    70    73    80   am
    71   117   116    1
    72   117   120    1
    73   111   112    1
    74    43    42    2
    75    50    51    2
    76   116   113   am
    77    75    76    1
    78    82    83    2
    79    82    81    1
    80    12    13    1
    81    76    77    1
    82    80    81    1
    83    13    14    1
    84    13    16    1
    85   113   112    1
    86   113   114    2
    87    42    41    1
    88    53    54   ar
    89    53    55   ar
    90   112   115    1
    91    14    15    2
    92    46    45    1
    93    44    41    1
    94    44    45    1
    95    81    84    1
    96    19    20    1
    97    18    16    1
    98    41    40    1
    99    20    21    1
   100    20    23    1
   101    21    22    2
   102    16    17    1
   103    45    47    1
   104    77    78    1
   105    78    79    1
   106    84    85    1
   107    37    36    2
   108    24    23    1
   109    24    26    1
   110    23    25    1
   111    85    87    1
   112    85    86    1
   113    36    35    1
   114    27    28    1
   115    34    35    1
   116    34    29   am
   117    39    38    1
   118   135   133    1
   119    35    38    1
   120   154   152    1
   121    31    28    1
   122    31    32    1
   123    31    33    1
   124    28    29    1
   125   134   133    1
   126    29    30    2
   127   133   130    1
   128   153   152    1
   129   188   187    1
   130   152   151    1
   131   130   129    1
   132   130   131    1
   133   187   186    1
   134   151   148    1
   135   158   157    2
   136   139   138    2
   137   148   147    1
   138   148   149    1
   139   136   131   am
   140   136   137    1
   141   131   132    2
   142   172   170   ar
   143   155   149   am
   144   155   156    1
   145   138   147   am
   146   138   137    1
   147   186   185    1
   148   157   156    1
   149   157   164   am
   150   149   150    2
   151   137   140    1
   152   169   170    1
   153   169   168    1
   154   170   171   ar
   155   159   156    1
   156   159   160    1
   157   165   164    1
   158   165   168    1
   159   165   166    1
   160   161   160    1
   161   161   162    1
   162   140   141    1
   163   183   182    2
   164   185   184    1
   165   162   163    1
   166   141   142    1
   167   166   167    2
   168   182   181    1
   169   181   184    1
   170   181   180    1
   171   178   177    1
   172   142   143    1
   173   177   179    1
   174   177   174    1
   175   143   144    2
   176   175   174    1
   177   175   176    2
   178   174   173    1
   179   144   145    1
   180   144   146    1
