@<TRIPOS>MOLECULE
tmp/4mgiA01.pdb
 98 92 0 0 0
SMALL
GASTEIGER

@<TRIPOS>ATOM
      1  N         -8.8940  -19.7570  -71.1760 N.3    54  GLY54      -0.1225
      2  CA        -8.2390  -21.0610  -71.1740 C.3    54  GLY54       0.1811
      3  C         -7.0130  -21.1450  -72.0690 C.2    54  GLY54       0.2280
      4  O         -6.4330  -22.2180  -72.2270 O.2    54  GLY54      -0.2866
      5  N         -3.1560  -20.7150  -73.0030 N.3    56  VAL56      -0.1245
      6  CA        -1.9460  -20.9210  -72.2190 C.3    56  VAL56       0.1561
      7  C         -0.8360  -19.9650  -72.6480 C.2    56  VAL56       0.2260
      8  O         -0.3730  -20.0140  -73.7910 O.2    56  VAL56      -0.2867
      9  CB        -1.4460  -22.3850  -72.3330 C.3    56  VAL56       0.0252
     10  CG1       -0.1950  -22.6010  -71.4880 C.3    56  VAL56       0.0019
     11  CG2       -2.5440  -23.3610  -71.9340 C.3    56  VAL56       0.0019
     12  N          3.8310  -22.9080  -69.9190 N.3    59  ASN59      -0.1240
     13  CA         3.6660  -24.0810  -69.0750 C.3    59  ASN59       0.1653
     14  C          4.7940  -24.2470  -68.0700 C.2    59  ASN59       0.2266
     15  O          5.9070  -23.7510  -68.2690 O.2    59  ASN59      -0.2867
     16  CB         3.5510  -25.3440  -69.9350 C.3    59  ASN59       0.1155
     17  CG         2.3400  -25.3230  -70.8430 C.2    59  ASN59       0.2627
     18  OD1        1.1970  -25.2890  -70.3820 O.2    59  ASN59      -0.2716
     19  ND2        2.5840  -25.3530  -72.1460 N.am   59  ASN59      -0.0877
     20  N         -1.2720  -22.2230  -62.3470 N.3    78  VAL78      -0.1231
     21  CA        -1.5690  -23.6550  -62.2510 C.3    78  VAL78       0.1692
     22  C         -0.3010  -24.4800  -62.0080 C.2    78  VAL78       0.2592
     23  O          0.6680  -24.3800  -62.7620 O.2    78  VAL78      -0.2718
     24  CB        -2.2900  -24.1770  -63.5280 C.3    78  VAL78       0.0266
     25  CG1       -2.8850  -25.5610  -63.2920 C.3    78  VAL78       0.0020
     26  CG2       -3.3750  -23.2090  -63.9800 C.3    78  VAL78       0.0020
     27  N         -0.3220  -25.2930  -60.9550 N.am   79  ILE79      -0.1966
     28  CA         0.8070  -26.1590  -60.6070 C.3    79  ILE79       0.1727
     29  C          0.3640  -27.6240  -60.6050 C.2    79  ILE79       0.2616
     30  O         -0.6920  -27.9530  -60.0550 O.2    79  ILE79      -0.2715
     31  CB         1.4220  -25.7700  -59.2320 C.3    79  ILE79       0.0290
     32  CG1        1.9710  -24.3430  -59.2810 C.3    79  ILE79       0.0022
     33  CG2        2.5230  -26.7450  -58.8270 C.3    79  ILE79       0.0023
     34  CD1        2.3150  -23.7450  -57.9350 C.3    79  ILE79       0.0001
     35  N          1.1650  -28.4930  -61.2250 N.am   80  TYR80      -0.1960
     36  CA         0.8630  -29.9220  -61.2880 C.3    80  TYR80       0.1771
     37  C          0.6930  -30.4650  -59.8820 C.2    80  TYR80       0.2620
     38  O          1.5310  -30.2170  -59.0080 O.2    80  TYR80      -0.2715
     39  CB         1.9670  -30.7130  -62.0040 C.3    80  TYR80       0.0574
     40  CG         2.3160  -30.2510  -63.4070 C.ar   80  TYR80      -0.0198
     41  CD1        1.3580  -29.6750  -64.2410 C.ar   80  TYR80      -0.0009
     42  CD2        3.6050  -30.4180  -63.9070 C.ar   80  TYR80      -0.0009
     43  CE1        1.6830  -29.2550  -65.5230 C.ar   80  TYR80       0.0417
     44  CE2        3.9390  -30.0030  -65.1910 C.ar   80  TYR80       0.0417
     45  CZ         2.9740  -29.4230  -65.9930 C.ar   80  TYR80       0.1957
     46  OH         3.2970  -29.0100  -67.2680 O.3    80  TYR80      -0.2866
     47  N         -0.4030  -31.1860  -59.6650 N.am   81  GLY81      -0.1940
     48  CA        -0.6740  -31.8000  -58.3740 C.3    81  GLY81       0.2014
     49  C         -1.4120  -30.9190  -57.3830 C.2    81  GLY81       0.2639
     50  O         -1.6570  -31.3410  -56.2500 O.2    81  GLY81      -0.2714
     51  N         -1.7580  -29.6960  -57.7910 N.am   82  LYS82      -0.1963
     52  CA        -2.6000  -28.8210  -56.9600 C.3    82  LYS82       0.1728
     53  C         -3.5170  -27.8710  -57.7200 C.2    82  LYS82       0.2617
     54  O         -4.2120  -27.0580  -57.1050 O.2    82  LYS82      -0.2715
     55  CB        -1.7870  -28.0550  -55.9020 C.3    82  LYS82       0.0311
     56  CG        -0.3530  -27.7600  -56.2490 C.3    82  LYS82       0.0038
     57  CD         0.4190  -27.4610  -54.9750 C.3    82  LYS82       0.0206
     58  CE         1.8970  -27.7700  -55.1420 C.3    82  LYS82       0.1093
     59  NZ         2.1330  -29.2240  -55.4460 N.3    82  LYS82      -0.1314
     60  N         -3.5310  -27.9840  -59.0450 N.am   83  GLY83      -0.1940
     61  CA        -4.4150  -27.1790  -59.8850 C.3    83  GLY83       0.2014
     62  C         -4.1770  -25.6910  -59.7350 C.2    83  GLY83       0.2638
     63  O         -3.0340  -25.2510  -59.5900 O.2    83  GLY83      -0.2714
     64  N         -5.2590  -24.9170  -59.7640 N.am   84  VAL84      -0.1977
     65  CA        -5.1650  -23.4640  -59.6320 C.3    84  VAL84       0.1596
     66  C         -4.7500  -23.0830  -58.2140 C.2    84  VAL84       0.2287
     67  O         -5.5170  -23.2150  -57.2600 O.2    84  VAL84      -0.2864
     68  CB        -6.4670  -22.7430  -60.0450 C.3    84  VAL84       0.0276
     69  CG1       -6.3580  -21.2460  -59.7800 C.3    84  VAL84       0.0022
     70  CG2       -6.7670  -22.9960  -61.5120 C.3    84  VAL84       0.0022
     71  N          2.2450  -22.9330  -64.4220 N.3   108  SER108     -0.1217
     72  CA         1.6540  -22.5860  -65.7070 C.3   108  SER108      0.1889
     73  C          0.7950  -21.3420  -65.5410 C.2   108  SER108      0.2288
     74  O          0.2290  -21.1090  -64.4720 O.2   108  SER108     -0.2866
     75  CB         0.7890  -23.7340  -66.2340 C.3   108  SER108      0.2089
     76  OG         1.5620  -24.8820  -66.5360 O.3   108  SER108     -0.2183
     77  N         -2.5240  -19.6370  -67.2530 N.3   110  VAL110     -0.1245
     78  CA        -3.6560  -19.8900  -68.1390 C.3   110  VAL110      0.1561
     79  C         -4.6730  -18.7610  -67.9990 C.2   110  VAL110      0.2260
     80  O         -4.9820  -18.3330  -66.8850 O.2   110  VAL110     -0.2867
     81  CB        -4.3320  -21.2580  -67.8230 C.3   110  VAL110      0.0252
     82  CG1       -5.5260  -21.5070  -68.7320 C.3   110  VAL110      0.0019
     83  CG2       -3.3350  -22.4040  -67.9530 C.3   110  VAL110      0.0019
     84  N          0.0520  -32.4960  -65.8730 N.3   217  SER217     -0.1202
     85  CA        -1.3420  -32.4070  -66.2990 C.3   217  SER217      0.2020
     86  C         -1.4990  -31.6520  -67.6240 C.2   217  SER217      0.2618
     87  O         -2.5850  -31.1750  -67.9530 O.2   217  SER217     -0.2717
     88  CB        -2.1750  -31.7390  -65.2050 C.3   217  SER217      0.2103
     89  OG        -1.6710  -30.4550  -64.8900 O.3   217  SER217     -0.2182
     90  N         -0.4080  -31.5600  -68.3790 N.am  218  GLN218     -0.1979
     91  CA        -0.3690  -30.7900  -69.6180 C.3   218  GLN218      0.1601
     92  C          0.7100  -31.3410  -70.5420 C.2   218  GLN218      0.2287
     93  O          1.7500  -31.8100  -70.0780 O.2   218  GLN218     -0.2864
     94  CB        -0.0880  -29.3120  -69.3040 C.3   218  GLN218      0.0394
     95  CG        -0.3210  -28.3350  -70.4610 C.3   218  GLN218      0.0908
     96  CD         0.8210  -28.3120  -71.4790 C.2   218  GLN218      0.2608
     97  OE1        0.5900  -28.1240  -72.6780 O.2   218  GLN218     -0.2717
     98  NE2        2.0540  -28.5130  -71.0070 N.am  218  GLN218     -0.0878
@<TRIPOS>BOND
     1     8     7    2
     2     5     6    1
     3    97    96    2
     4     7     6    1
     5     9     6    1
     6     9    11    1
     7     9    10    1
     8     4     3    2
     9    19    17   am
    10     3     2    1
    11    96    98   am
    12    96    95    1
    13     1     2    1
    14    17    18    2
    15    17    16    1
    16    92    93    2
    17    92    91    1
    18    95    94    1
    19    16    13    1
    20    12    13    1
    21    91    94    1
    22    91    90    1
    23    13    14    1
    24    82    81    1
    25    90    86   am
    26    15    14    2
    27    78    79    1
    28    78    81    1
    29    78    77    1
    30    79    80    2
    31    87    86    2
    32    83    81    1
    33    86    85    1
    34    46    45    1
    35    76    75    1
    36    85    84    1
    37    85    88    1
    38    75    72    1
    39    45    43   ar
    40    45    44   ar
    41    72    73    1
    42    72    71    1
    43    73    74    2
    44    43    41   ar
    45    88    89    1
    46    44    42   ar
    47    41    40   ar
    48    26    24    1
    49    42    40   ar
    50    24    25    1
    51    24    21    1
    52    40    39    1
    53    23    22    2
    54    20    21    1
    55    21    22    1
    56    22    27   am
    57    39    36    1
    58    70    68    1
    59    36    35    1
    60    36    37    1
    61    35    29   am
    62    27    28    1
    63    28    29    1
    64    28    31    1
    65    29    30    2
    66    68    69    1
    67    68    65    1
    68    61    62    1
    69    61    60    1
    70    37    47   am
    71    37    38    2
    72    64    62   am
    73    64    65    1
    74    62    63    2
    75    47    48    1
    76    65    66    1
    77    32    31    1
    78    32    34    1
    79    31    33    1
    80    60    53   am
    81    48    49    1
    82    66    67    2
    83    51    49   am
    84    51    52    1
    85    53    54    2
    86    53    52    1
    87    49    50    2
    88    52    55    1
    89    56    55    1
    90    56    57    1
    91    59    58    1
    92    58    57    1
