@<TRIPOS>MOLECULE
tmp/4mgvA00.pdb
 117 115 0 0 0
SMALL
GASTEIGER

@<TRIPOS>ATOM
      1  N         -0.9980   -2.4050   21.2660 N.3    39  TYR39      -0.1241
      2  CA        -0.8580   -1.1280   20.5880 C.3    39  TYR39       0.1605
      3  C         -0.1420   -0.1410   21.4790 C.2    39  TYR39       0.2264
      4  O         -0.1130   -0.2910   22.7020 O.2    39  TYR39      -0.2867
      5  CB        -2.2470   -0.5770   20.1870 C.3    39  TYR39       0.0534
      6  CG        -3.1230   -0.1710   21.3740 C.ar   39  TYR39      -0.0201
      7  CD1       -3.1350    1.1650   21.8260 C.ar   39  TYR39      -0.0009
      8  CD2       -3.9450   -1.1230   22.0480 C.ar   39  TYR39      -0.0009
      9  CE1       -3.9260    1.5390   22.9300 C.ar   39  TYR39       0.0417
     10  CE2       -4.7290   -0.7590   23.1510 C.ar   39  TYR39       0.0417
     11  CZ        -4.7330    0.5630   23.5650 C.ar   39  TYR39       0.1957
     12  OH        -5.4960    0.9080   24.6450 O.3    39  TYR39      -0.2866
     13  N         -0.2970    8.5370   24.5980 N.3    50  PHE50      -0.1227
     14  CA        -1.5260    8.7870   25.3510 C.3    50  PHE50       0.1736
     15  C         -2.1590    7.4900   25.8920 C.2    50  PHE50       0.2595
     16  O         -3.0160    7.5440   26.8000 O.2    50  PHE50      -0.2718
     17  CB        -2.5370    9.5730   24.5170 C.3    50  PHE50       0.0547
     18  CG        -2.8240    8.9630   23.1860 C.ar   50  PHE50      -0.0202
     19  CD1       -3.7190    7.8950   23.0640 C.ar   50  PHE50      -0.0042
     20  CD2       -2.2190    9.4540   22.0290 C.ar   50  PHE50      -0.0042
     21  CE1       -4.0170    7.3270   21.8110 C.ar   50  PHE50      -0.0003
     22  CE2       -2.5130    8.8780   20.7840 C.ar   50  PHE50      -0.0003
     23  CZ        -3.4080    7.8040   20.6850 C.ar   50  PHE50      -0.0000
     24  N         -1.7570    6.3450   25.3280 N.am   51  ASP51      -0.1974
     25  CA        -2.3720    5.0590   25.7050 C.3    51  ASP51       0.1709
     26  C         -1.5710    3.9100   25.1130 C.2    51  ASP51       0.2293
     27  O         -1.1380    3.9830   23.9640 O.2    51  ASP51      -0.2864
     28  CB        -3.8310    5.0230   25.2120 C.3    51  ASP51       0.1436
     29  CG        -4.6310    3.8120   25.7440 C.2    51  ASP51       0.3671
     30  OD1       -4.3040    3.2560   26.8070 O.co2  51  ASP51      -0.2456
     31  OD2       -5.6150    3.4590   25.0630 O.co2  51  ASP51      -0.2456
     32  N         -5.2070   -6.1770   24.1450 N.3    60  PHE60      -0.1241
     33  CA        -6.4970   -5.5030   24.0380 C.3    60  PHE60       0.1605
     34  C         -7.3670   -6.2590   23.0500 C.2    60  PHE60       0.2264
     35  O         -6.8820   -6.6500   21.9860 O.2    60  PHE60      -0.2867
     36  CB        -6.2750   -4.0840   23.5330 C.3    60  PHE60       0.0534
     37  CG        -7.5520   -3.2980   23.4270 C.ar   60  PHE60      -0.0203
     38  CD1       -8.1890   -2.8740   24.5710 C.ar   60  PHE60      -0.0042
     39  CD2       -8.1200   -3.0320   22.1820 C.ar   60  PHE60      -0.0042
     40  CE1       -9.3900   -2.1310   24.4930 C.ar   60  PHE60      -0.0003
     41  CE2       -9.3760   -2.3350   22.0740 C.ar   60  PHE60      -0.0003
     42  CZ        -9.9760   -1.8700   23.2280 C.ar   60  PHE60      -0.0000
     43  N        -16.7060   -0.3660   17.7650 N.3    68  GLU68      -0.1231
     44  CA       -16.3250   -0.4310   19.1790 C.3    68  GLU68       0.1699
     45  C        -15.0820    0.4260   19.4060 C.2    68  GLU68       0.2592
     46  O        -14.6930    0.7080   20.5480 O.2    68  GLU68      -0.2718
     47  CB       -15.9960   -1.8540   19.5840 C.3    68  GLU68       0.0402
     48  CG       -17.1530   -2.6450   20.0110 C.3    68  GLU68       0.1161
     49  CD       -16.7750   -4.0230   20.5230 C.2    68  GLU68       0.3649
     50  OE1      -15.5660   -4.3650   20.6620 O.co2  68  GLU68      -0.2457
     51  OE2      -17.7240   -4.7620   20.8110 O.co2  68  GLU68      -0.2457
     52  N        -14.4710    0.8520   18.3020 N.am   69  VAL69      -0.1966
     53  CA       -13.2160    1.6270   18.3510 C.3    69  VAL69       0.1727
     54  C        -13.2840    2.7620   17.3740 C.2    69  VAL69       0.2616
     55  O        -14.1860    2.8090   16.5390 O.2    69  VAL69      -0.2715
     56  CB       -11.9780    0.7230   17.9930 C.3    69  VAL69       0.0290
     57  CG1      -11.7760   -0.3060   19.0610 C.3    69  VAL69       0.0023
     58  CG2      -12.1620    0.0430   16.6480 C.3    69  VAL69       0.0023
     59  N        -12.3060    3.6700   17.4410 N.am   70  ILE70      -0.1977
     60  CA       -12.2530    4.7620   16.4630 C.3    70  ILE70       0.1596
     61  C        -12.2020    4.2100   15.0330 C.2    70  ILE70       0.2287
     62  O        -11.7050    3.1090   14.7830 O.2    70  ILE70      -0.2864
     63  CB       -11.0760    5.7360   16.7660 C.3    70  ILE70       0.0276
     64  CG1       -9.7400    4.9900   16.8380 C.3    70  ILE70       0.0022
     65  CG2      -11.3390    6.4650   18.0860 C.3    70  ILE70       0.0022
     66  CD1       -8.5380    5.9180   17.2270 C.3    70  ILE70       0.0001
     67  N         -9.0810    2.6880   13.4610 N.3    73  TRP73      -0.1241
     68  CA        -8.7680    1.3390   13.9410 C.3    73  TRP73       0.1605
     69  C         -9.5240    0.2310   13.2340 C.2    73  TRP73       0.2264
     70  O         -8.9260   -0.7680   12.8330 O.2    73  TRP73      -0.2867
     71  CB        -9.0780    1.2720   15.4240 C.3    73  TRP73       0.0550
     72  CG        -7.8870    1.5200   16.2600 C.ar   73  TRP73       0.0003
     73  CD1       -7.0220    2.6010   16.2220 C.ar   73  TRP73       0.0946
     74  CD2       -7.4080    0.6550   17.2670 C.ar   73  TRP73       0.0152
     75  NE1       -6.0380    2.4370   17.1780 N.ar   73  TRP73      -0.2442
     76  CE2       -6.2620    1.2550   17.8400 C.ar   73  TRP73       0.0810
     77  CE3       -7.8680   -0.5560   17.7920 C.ar   73  TRP73       0.0012
     78  CZ2       -5.5380    0.6460   18.9010 C.ar   73  TRP73       0.0191
     79  CZ3       -7.1570   -1.1570   18.8450 C.ar   73  TRP73       0.0001
     80  CH2       -6.0120   -0.5420   19.3870 C.ar   73  TRP73       0.0015
     81  N        -10.3560   11.1140   17.0950 N.3    96  TYR96      -0.1241
     82  CA       -11.3050   11.7690   18.0190 C.3    96  TYR96       0.1605
     83  C        -11.7580   13.1550   17.5500 C.2    96  TYR96       0.2264
     84  O        -12.3390   13.9500   18.3390 O.2    96  TYR96      -0.2867
     85  CB       -10.6910   11.8110   19.4350 C.3    96  TYR96       0.0534
     86  CG       -10.5600   10.4210   20.0410 C.ar   96  TYR96      -0.0201
     87  CD1      -11.6700    9.7560   20.5620 C.ar   96  TYR96      -0.0009
     88  CD2       -9.3410    9.7760   20.0600 C.ar   96  TYR96      -0.0009
     89  CE1      -11.5650    8.4750   21.1070 C.ar   96  TYR96       0.0417
     90  CE2       -9.2120    8.4850   20.6100 C.ar   96  TYR96       0.0417
     91  CZ       -10.3300    7.8580   21.1310 C.ar   96  TYR96       0.1957
     92  OH       -10.1860    6.5930   21.6440 O.3    96  TYR96      -0.2866
     93  N        -10.1630   13.8410   23.0440 N.3   101  CYS101     -0.1235
     94  CA       -10.6600   12.9530   24.0960 C.3   101  CYS101      0.1677
     95  C         -9.7670   13.0280   25.3160 C.2   101  CYS101      0.2270
     96  O         -8.6740   12.4760   25.3240 O.2   101  CYS101     -0.2867
     97  CB       -10.7350   11.4970   23.6120 C.3   101  CYS101      0.0956
     98  SG       -11.6930   10.4300   24.7100 S.3   101  CYS101     -0.0801
     99  N         -5.5090   13.8050   24.5110 N.3   105  ILE105     -0.1245
    100  CA        -5.7790   13.8880   23.0640 C.3   105  ILE105      0.1561
    101  C         -6.4900   15.1930   22.6700 C.2   105  ILE105      0.2260
    102  O         -7.7070   15.2610   22.7030 O.2   105  ILE105     -0.2867
    103  CB        -6.5810   12.6770   22.5280 C.3   105  ILE105      0.0252
    104  CG1       -5.8970   11.3610   22.9060 C.3   105  ILE105      0.0019
    105  CG2       -6.8030   12.8340   21.0130 C.3   105  ILE105      0.0019
    106  CD1       -6.7080   10.0980   22.5750 C.3   105  ILE105      0.0001
    107  N         -0.4400    5.0930   15.7550 N.3   113  PHE113     -0.1241
    108  CA        -0.5330    3.8880   16.5620 C.3   113  PHE113      0.1605
    109  C          0.3630    2.8110   15.9700 C.2   113  PHE113      0.2264
    110  O          0.3200    2.5330   14.7650 O.2   113  PHE113     -0.2867
    111  CB        -1.9540    3.3020   16.5460 C.3   113  PHE113      0.0534
    112  CG        -2.9440    4.0150   17.3850 C.ar  113  PHE113     -0.0203
    113  CD1       -3.1420    3.6350   18.7130 C.ar  113  PHE113     -0.0042
    114  CD2       -3.7530    5.0010   16.8240 C.ar  113  PHE113     -0.0042
    115  CE1       -4.0940    4.2570   19.5080 C.ar  113  PHE113     -0.0003
    116  CE2       -4.7410    5.6290   17.5840 C.ar  113  PHE113     -0.0003
    117  CZ        -4.9280    5.2680   18.9240 C.ar  113  PHE113     -0.0000
@<TRIPOS>BOND
     1    70    69    2
     2    69    68    1
     3    67    68    1
     4    68    71    1
     5   110   109    2
     6    62    61    2
     7    61    60    1
     8    71    72    1
     9   107   108    1
    10   109   108    1
    11    73    72   ar
    12    73    75   ar
    13    72    74   ar
    14    60    63    1
    15    60    59    1
    16    55    54    2
    17   111   108    1
    18   111   112    1
    19    58    56    1
    20    63    64    1
    21    63    65    1
    22   114   112   ar
    23   114   116   ar
    24    64    66    1
    25    81    82    1
    26    75    76   ar
    27    74    77   ar
    28    74    76   ar
    29    54    59   am
    30    54    53    1
    31   112   113   ar
    32    83    82    1
    33    83    84    2
    34   116   117   ar
    35    43    44    1
    36    77    79   ar
    37    76    78   ar
    38    56    53    1
    39    56    57    1
    40    82    85    1
    41    52    53    1
    42    52    45   am
    43   113   115   ar
    44    79    80   ar
    45    78    80   ar
    46   117   115   ar
    47    44    45    1
    48    44    47    1
    49    45    46    2
    50    85    86    1
    51    47    48    1
    52    48    49    1
    53    86    88   ar
    54    86    87   ar
    55    88    90   ar
    56     5     2    1
    57     5     6    1
    58    49    50   ar
    59    49    51   ar
    60    87    89   ar
    61     2     1    1
    62     2     3    1
    63    90    91   ar
    64    23    22   ar
    65    23    21   ar
    66    22    20   ar
    67   105   103    1
    68    89    91   ar
    69    91    92    1
    70     6     7   ar
    71     6     8   ar
    72     3     4    2
    73    21    19   ar
    74     7     9   ar
    75    35    34    2
    76    20    18   ar
    77     8    10   ar
    78    41    39   ar
    79    41    42   ar
    80    39    37   ar
    81   103   104    1
    82   103   100    1
    83   106   104    1
    84   101   102    2
    85   101   100    1
    86     9    11   ar
    87    93    94    1
    88    34    33    1
    89   100    99    1
    90    19    18   ar
    91    10    11   ar
    92    18    17    1
    93    42    40   ar
    94    37    36    1
    95    37    38   ar
    96    36    33    1
    97    11    12    1
    98    97    94    1
    99    97    98    1
   100    27    26    2
   101    33    32    1
   102    94    95    1
   103    40    38   ar
   104    17    14    1
   105    13    14    1
   106    31    29   ar
   107    26    25    1
   108    28    25    1
   109    28    29    1
   110    95    96    2
   111    24    25    1
   112    24    15   am
   113    14    15    1
   114    29    30   ar
   115    15    16    2
