@<TRIPOS>MOLECULE
tmp/4mgxA00.pdb
 123 121 0 0 0
SMALL
GASTEIGER

@<TRIPOS>ATOM
      1  N         43.8330   44.9340   -7.3000 N.3    28  THR28      -0.1203
      2  CA        43.1060   43.8670   -6.5930 C.3    28  THR28       0.1994
      3  C         42.2850   44.4570   -5.4480 C.2    28  THR28       0.2618
      4  O         42.6760   45.4640   -4.8490 O.2    28  THR28      -0.2717
      5  CB        44.0750   42.8240   -6.0080 C.3    28  THR28       0.1784
      6  OG1       45.1140   43.5080   -5.3040 O.3    28  THR28      -0.2211
      7  CG2       44.7010   41.9350   -7.1020 C.3    28  THR28       0.0376
      8  N         41.1900   43.7740   -5.1150 N.am   29  LEU29      -0.1965
      9  CA        40.0640   44.3210   -4.3270 C.3    29  LEU29       0.1731
     10  C         39.9900   43.8650   -2.8810 C.2    29  LEU29       0.2656
     11  O         40.5280   42.8170   -2.5450 O.2    29  LEU29      -0.2711
     12  CB        38.7810   43.8340   -4.9830 C.3    29  LEU29       0.0311
     13  CG        37.4370   44.5440   -4.9140 C.3    29  LEU29       0.0022
     14  CD1       36.3720   43.4710   -4.8120 C.3    29  LEU29       0.0001
     15  CD2       37.3010   45.5270   -3.7650 C.3    29  LEU29       0.0001
     16  N         39.2810   44.6120   -2.0380 N.am   30  GLY30      -0.1716
     17  CA        39.0760   44.1850   -0.6530 C.2    30  GLY30       0.1480
     18  C         37.9400   44.7720    0.1800 C.2    30  GLY30       0.2820
     19  O         37.4890   45.8870   -0.0740 O.2    30  GLY30      -0.2669
     20  N         37.5010   44.0190    1.1980 N.am   31  PHE31      -0.1925
     21  CA        36.4040   44.4160    2.1090 C.3    31  PHE31       0.1774
     22  C         36.7430   44.1920    3.5790 C.2    31  PHE31       0.2620
     23  O         37.5270   43.2910    3.8980 O.2    31  PHE31      -0.2715
     24  CB        35.1650   43.5800    1.8340 C.3    31  PHE31       0.0574
     25  CG        34.9950   43.1950    0.4020 C.ar   31  PHE31      -0.0200
     26  CD1       35.5620   42.0290   -0.0860 C.ar   31  PHE31      -0.0042
     27  CD2       34.2580   43.9960   -0.4640 C.ar   31  PHE31      -0.0042
     28  CE1       35.3940   41.6630   -1.4160 C.ar   31  PHE31      -0.0003
     29  CE2       34.0860   43.6370   -1.7910 C.ar   31  PHE31      -0.0003
     30  CZ        34.6500   42.4670   -2.2670 C.ar   31  PHE31      -0.0000
     31  N         36.1320   44.9740    4.4740 N.am   32  SER32      -0.1936
     32  CA        36.2510   44.7330    5.9240 C.3    32  SER32       0.2055
     33  C         35.0620   45.2670    6.6630 C.2    32  SER32       0.2643
     34  O         34.4160   46.1930    6.1990 O.2    32  SER32      -0.2714
     35  CB        37.5170   45.3500    6.5120 C.3    32  SER32       0.2130
     36  OG        37.7050   46.6510    6.0080 O.3    32  SER32      -0.2179
     37  N         34.7950   44.6940    7.8300 N.am   33  ILE33      -0.1963
     38  CA        33.5170   44.8700    8.5240 C.3    33  ILE33       0.1727
     39  C         33.7200   45.0650   10.0130 C.2    33  ILE33       0.2616
     40  O         33.9070   44.0760   10.7640 O.2    33  ILE33      -0.2715
     41  CB        32.6200   43.6140    8.4110 C.3    33  ILE33       0.0290
     42  CG1       32.5910   43.0380    6.9790 C.3    33  ILE33       0.0022
     43  CG2       31.2450   43.8930    8.9950 C.3    33  ILE33       0.0023
     44  CD1       31.4110   43.4430    6.1230 C.3    33  ILE33       0.0001
     45  N         33.6700   46.3250   10.4410 N.am   34  GLU34      -0.1963
     46  CA        33.6790   46.6420   11.8630 C.3    34  GLU34       0.1733
     47  C         32.2650   46.5280   12.3490 C.2    34  GLU34       0.2617
     48  O         31.3580   47.0510   11.7120 O.2    34  GLU34      -0.2715
     49  CB        34.2300   48.0330   12.1250 C.3    34  GLU34       0.0429
     50  CG        35.7370   48.1030   11.9960 C.3    34  GLU34       0.1163
     51  CD        36.3490   49.0670   12.9830 C.2    34  GLU34       0.3649
     52  OE1       36.0900   50.2840   12.8710 O.co2  34  GLU34      -0.2457
     53  OE2       37.0910   48.6020   13.8750 O.co2  34  GLU34      -0.2457
     54  N         32.0840   45.8180   13.4560 N.am   35  GLY35      -0.1941
     55  CA        30.7640   45.5260   13.9780 C.3    35  GLY35       0.1998
     56  C         30.7530   44.8450   15.3320 C.2    35  GLY35       0.2481
     57  O         31.7950   44.4100   15.8320 O.2    35  GLY35      -0.2729
     58  N         29.5620   44.7550   15.9420 N.am   36  PRO36      -0.2715
     59  CA        29.3400   44.1390   17.2510 C.3    36  PRO36       0.1536
     60  C         29.4680   42.6100   17.2650 C.2    36  PRO36       0.2599
     61  O         29.3350   41.9910   18.3260 O.2    36  PRO36      -0.2715
     62  CB        27.8960   44.5340   17.5750 C.3    36  PRO36       0.0310
     63  CG        27.2470   44.7210   16.2460 C.3    36  PRO36       0.0237
     64  CD        28.3250   45.3600   15.4130 C.3    36  PRO36       0.0939
     65  N         29.7030   42.0050   16.1070 N.am   37  SER37      -0.1936
     66  CA        29.9360   40.5810   16.0600 C.3    37  SER37       0.2055
     67  C         31.0520   40.2890   15.0870 C.2    37  SER37       0.2643
     68  O         31.3390   41.0980   14.1920 O.2    37  SER37      -0.2714
     69  CB        28.6860   39.8620   15.5930 C.3    37  SER37       0.2130
     70  OG        28.7170   39.7450   14.1850 O.3    37  SER37      -0.2179
     71  N         31.6670   39.1230   15.2540 N.am   38  GLN38      -0.1963
     72  CA        32.5190   38.5990   14.2100 C.3    38  GLN38       0.1733
     73  C         31.6370   38.3170   13.0160 C.2    38  GLN38       0.2616
     74  O         30.8210   37.3860   13.0460 O.2    38  GLN38      -0.2715
     75  CB        33.1700   37.3120   14.6440 C.3    38  GLN38       0.0408
     76  CG        33.9240   37.4310   15.9300 C.3    38  GLN38       0.0908
     77  CD        34.5880   36.1340   16.2290 C.2    38  GLN38       0.2608
     78  OE1       34.3310   35.1480   15.5500 O.2    38  GLN38      -0.2717
     79  NE2       35.4500   36.1130   17.2330 N.am   38  GLN38      -0.0878
     80  N         31.7660   39.1510   11.9890 N.am   39  ALA39      -0.1977
     81  CA        31.1230   38.8760   10.7080 C.3    39  ALA39       0.1597
     82  C         32.0410   37.9510    9.9280 C.2    39  ALA39       0.2287
     83  O         33.2400   37.8980   10.2210 O.2    39  ALA39      -0.2864
     84  CB        30.8680   40.1620    9.9400 C.3    39  ALA39       0.0319
     85  N         32.8750   36.9030    5.8090 N.3    41  ILE41      -0.1231
     86  CA        32.5800   37.5610    4.5300 C.3    41  ILE41       0.1692
     87  C         33.0550   36.7310    3.3330 C.2    41  ILE41       0.2592
     88  O         33.9860   35.9250    3.4380 O.2    41  ILE41      -0.2718
     89  CB        33.0520   39.0580    4.4970 C.3    41  ILE41       0.0266
     90  CG1       34.2490   39.2630    3.5870 C.3    41  ILE41       0.0019
     91  CG2       33.3880   39.6080    5.8990 C.3    41  ILE41       0.0020
     92  CD1       35.2010   40.2980    4.1480 C.3    41  ILE41       0.0001
     93  N         32.3840   36.9050    2.2060 N.am   42  GLU42      -0.1966
     94  CA        32.7770   36.2210    0.9870 C.3    42  GLU42       0.1733
     95  C         32.3380   36.9780   -0.2580 C.2    42  GLU42       0.2616
     96  O         31.2230   37.5030   -0.3250 O.2    42  GLU42      -0.2715
     97  CB        32.2610   34.7750    0.9670 C.3    42  GLU42       0.0429
     98  CG        30.8030   34.5900    1.3500 C.3    42  GLU42       0.1163
     99  CD        30.1560   33.4640    0.5660 C.2    42  GLU42       0.3649
    100  OE1       30.2940   32.2920    0.9730 O.co2  42  GLU42      -0.2457
    101  OE2       29.5160   33.7530   -0.4760 O.co2  42  GLU42      -0.2457
    102  N         33.2410   37.0630   -1.2270 N.am   43  CYS43      -0.1968
    103  CA        32.8680   37.5740   -2.5300 C.3    43  CYS43       0.1712
    104  C         32.9010   36.4470   -3.5500 C.2    43  CYS43       0.2296
    105  O         33.9640   35.9490   -3.9210 O.2    43  CYS43      -0.2864
    106  CB        33.7230   38.7790   -2.9420 C.3    43  CYS43       0.0983
    107  SG        34.0790   38.8970   -4.7190 S.3    43  CYS43      -0.0798
    108  N         32.7790   35.3570   -6.9940 N.3    45  ASP45      -0.1239
    109  CA        32.9790   35.9050   -8.3420 C.3    45  ASP45       0.1674
    110  C         32.0250   35.2900   -9.3370 C.2    45  ASP45       0.2266
    111  O         31.9960   34.0700   -9.5280 O.2    45  ASP45      -0.2867
    112  CB        34.4080   35.7580   -8.8540 C.3    45  ASP45       0.1410
    113  CG        34.5430   36.1990  -10.3130 C.2    45  ASP45       0.3668
    114  OD1       33.9820   37.2640  -10.6620 O.co2  45  ASP45      -0.2456
    115  OD2       35.1890   35.4800  -11.1150 O.co2  45  ASP45      -0.2456
    116  N         37.0930   48.5280   -0.2380 N.3    68  ILE68      -0.1245
    117  CA        38.3910   49.1380   -0.4700 C.3    68  ILE68       0.1561
    118  C         38.9460   48.7170   -1.8150 C.2    68  ILE68       0.2260
    119  O         39.1240   47.5280   -2.0830 O.2    68  ILE68      -0.2867
    120  CB        39.3740   48.7700    0.6540 C.3    68  ILE68       0.0252
    121  CG1       38.8530   49.3140    1.9940 C.3    68  ILE68       0.0019
    122  CG2       40.7570   49.3330    0.3480 C.3    68  ILE68       0.0019
    123  CD1       39.2250   48.5040    3.2150 C.3    68  ILE68       0.0001
@<TRIPOS>BOND
     1   115   113   ar
     2   114   113   ar
     3   113   112    1
     4   111   110    2
     5   110   109    1
     6   112   109    1
     7   109   108    1
     8     1     2    1
     9     7     5    1
    10     2     5    1
    11     2     3    1
    12     5     6    1
    13     3     8   am
    14     3     4    2
    15     8     9    1
    16    12    13    1
    17    12     9    1
    18    13    14    1
    19    13    15    1
    20   107   106    1
    21     9    10    1
    22   105   104    2
    23   104   103    1
    24   106   103    1
    25    10    11    2
    26    10    16    1
    27   103   102    1
    28    30    29   ar
    29    30    28   ar
    30   119   118    2
    31    16    17    2
    32   118   117    1
    33    29    27   ar
    34    28    26   ar
    35   102    95   am
    36    17    18    1
    37   101    99   ar
    38   117   116    1
    39   117   120    1
    40    27    25   ar
    41    96    95    2
    42    95    94    1
    43    26    25   ar
    44    19    18    2
    45    18    20   am
    46   122   120    1
    47    25    24    1
    48    99   100   ar
    49    99    98    1
    50   120   121    1
    51    97    94    1
    52    97    98    1
    53    94    93    1
    54    20    21    1
    55    24    21    1
    56   121   123    1
    57    21    22    1
    58    93    87   am
    59    87    88    2
    60    87    86    1
    61    22    23    2
    62    22    31   am
    63    90    92    1
    64    90    89    1
    65    31    32    1
    66    89    86    1
    67    89    91    1
    68    86    85    1
    69    32    35    1
    70    32    33    1
    71    36    35    1
    72    44    42    1
    73    34    33    2
    74    33    37   am
    75    42    41    1
    76    37    38    1
    77    41    38    1
    78    41    43    1
    79    38    39    1
    80    82    83    2
    81    82    81    1
    82    84    81    1
    83    39    45   am
    84    39    40    2
    85    45    46    1
    86    81    80    1
    87    48    47    2
    88    46    49    1
    89    46    47    1
    90    80    73   am
    91    50    49    1
    92    50    51    1
    93    47    54   am
    94    52    51   ar
    95    51    53   ar
    96    73    74    2
    97    73    72    1
    98    54    55    1
    99    55    56    1
   100    70    69    1
   101    68    67    2
   102    72    75    1
   103    72    71    1
   104    75    76    1
   105    67    71   am
   106    67    66    1
   107    56    57    2
   108    56    58   am
   109    64    58    1
   110    64    63    1
   111    78    77    2
   112    69    66    1
   113    76    77    1
   114    58    59    1
   115    66    65    1
   116    65    60   am
   117    77    79   am
   118    63    62    1
   119    59    60    1
   120    59    62    1
   121    60    61    2
