@<TRIPOS>MOLECULE
tmp/4mgyA00.pdb
 197 189 0 0 0
SMALL
GASTEIGER

@<TRIPOS>ATOM
      1  N          2.6670  -20.9500  -71.4550 N.3    58  PHE58      -0.1241
      2  CA         3.8760  -21.7660  -71.3000 C.3    58  PHE58       0.1605
      3  C          3.7170  -22.8030  -70.1850 C.2    58  PHE58       0.2264
      4  O          2.8650  -22.6550  -69.3070 O.2    58  PHE58      -0.2867
      5  CB         5.1310  -20.9020  -71.0790 C.3    58  PHE58       0.0534
      6  CG         5.0410  -19.9600  -69.9060 C.ar   58  PHE58      -0.0203
      7  CD1        5.2310  -20.4180  -68.6030 C.ar   58  PHE58      -0.0042
      8  CD2        4.8000  -18.6050  -70.1080 C.ar   58  PHE58      -0.0042
      9  CE1        5.1590  -19.5460  -67.5200 C.ar   58  PHE58      -0.0003
     10  CE2        4.7300  -17.7220  -69.0290 C.ar   58  PHE58      -0.0003
     11  CZ         4.9140  -18.1960  -67.7350 C.ar   58  PHE58      -0.0000
     12  N         -2.4780  -19.3430  -62.5980 N.3    77  VAL77      -0.1245
     13  CA        -1.1760  -19.9030  -62.2760 C.3    77  VAL77       0.1561
     14  C         -1.4120  -21.3520  -61.8540 C.2    77  VAL77       0.2260
     15  O         -2.1000  -21.6120  -60.8640 O.2    77  VAL77      -0.2867
     16  CB        -0.4770  -19.1050  -61.1520 C.3    77  VAL77       0.0252
     17  CG1        0.9730  -19.5320  -61.0100 C.3    77  VAL77       0.0019
     18  CG2       -0.5530  -17.6060  -61.4300 C.3    77  VAL77       0.0019
     19  N          0.2100  -25.0870  -60.8740 N.3    79  ILE79      -0.1245
     20  CA         1.3330  -25.8960  -60.4120 C.3    79  ILE79       0.1561
     21  C          0.8770  -27.3460  -60.2790 C.2    79  ILE79       0.2260
     22  O         -0.2290  -27.6160  -59.8020 O.2    79  ILE79      -0.2867
     23  CB         1.9050  -25.3660  -59.0700 C.3    79  ILE79       0.0252
     24  CG1        2.5300  -23.9820  -59.2750 C.3    79  ILE79       0.0019
     25  CG2        2.9430  -26.3310  -58.4920 C.3    79  ILE79       0.0019
     26  CD1        2.7160  -23.1740  -58.0060 C.3    79  ILE79       0.0001
     27  N         -3.4840  -22.1330  -58.5420 N.3    85  VAL85      -0.1231
     28  CA        -2.9550  -21.6520  -57.2760 C.3    85  VAL85       0.1692
     29  C         -3.2120  -20.1540  -57.0740 C.2    85  VAL85       0.2592
     30  O         -3.2980  -19.6740  -55.9400 O.2    85  VAL85      -0.2718
     31  CB        -1.4490  -22.0370  -57.1630 C.3    85  VAL85       0.0266
     32  CG1       -0.5560  -20.8390  -56.8620 C.3    85  VAL85       0.0020
     33  CG2       -1.2620  -23.1680  -56.1600 C.3    85  VAL85       0.0020
     34  N         -3.3670  -19.4380  -58.1840 N.am   86  CYS86      -0.1970
     35  CA        -3.4920  -17.9860  -58.1880 C.3    86  CYS86       0.1712
     36  C         -4.0720  -17.5270  -59.5270 C.2    86  CYS86       0.2296
     37  O         -3.8700  -18.1770  -60.5550 O.2    86  CYS86      -0.2864
     38  CB        -2.1140  -17.3480  -57.9590 C.3    86  CYS86       0.0983
     39  SG        -2.0780  -15.5440  -57.9290 S.3    86  CYS86      -0.0798
     40  N         -4.3590  -14.0690  -62.1090 N.3    88  LEU88      -0.1245
     41  CA        -3.8560  -12.7290  -62.4110 C.3    88  LEU88       0.1561
     42  C         -4.8170  -11.9690  -63.3190 C.2    88  LEU88       0.2260
     43  O         -5.4210  -12.5530  -64.2170 O.2    88  LEU88      -0.2867
     44  CB        -2.4690  -12.8060  -63.0500 C.3    88  LEU88       0.0270
     45  CG        -1.3420  -13.4060  -62.2050 C.3    88  LEU88       0.0019
     46  CD1       -0.1420  -13.7290  -63.0740 C.3    88  LEU88       0.0001
     47  CD2       -0.9470  -12.4830  -61.0590 C.3    88  LEU88       0.0001
     48  N          1.5170   -8.4700  -64.0140 N.3    93  ASP93      -0.1225
     49  CA         2.5920   -9.0040  -64.8530 C.3    93  ASP93       0.1805
     50  C          3.1130  -10.3380  -64.3040 C.2    93  ASP93       0.2598
     51  O          2.8560  -10.6720  -63.1480 O.2    93  ASP93      -0.2718
     52  CB         3.7310   -7.9810  -64.9820 C.3    93  ASP93       0.1424
     53  CG         4.5080   -7.7930  -63.6860 C.2    93  ASP93       0.3668
     54  OD1        5.7260   -8.0620  -63.6870 O.co2  93  ASP93      -0.2456
     55  OD2        3.9110   -7.3800  -62.6700 O.co2  93  ASP93      -0.2456
     56  N          3.8350  -11.0960  -65.1320 N.am   94  PHE94      -0.1962
     57  CA         4.3760  -12.4020  -64.7260 C.3    94  PHE94       0.1771
     58  C          5.5060  -12.8990  -65.6290 C.2    94  PHE94       0.2620
     59  O          5.7250  -12.3640  -66.7160 O.2    94  PHE94      -0.2715
     60  CB         3.2620  -13.4570  -64.6670 C.3    94  PHE94       0.0574
     61  CG         2.5550  -13.6790  -65.9800 C.ar   94  PHE94      -0.0200
     62  CD1        3.0040  -14.6470  -66.8740 C.ar   94  PHE94      -0.0042
     63  CD2        1.4320  -12.9270  -66.3170 C.ar   94  PHE94      -0.0042
     64  CE1        2.3530  -14.8580  -68.0850 C.ar   94  PHE94      -0.0003
     65  CE2        0.7750  -13.1300  -67.5250 C.ar   94  PHE94      -0.0003
     66  CZ         1.2350  -14.1000  -68.4090 C.ar   94  PHE94      -0.0000
     67  N          6.2120  -13.9300  -65.1670 N.am   95  GLY95      -0.1940
     68  CA         7.2200  -14.6210  -65.9730 C.3    95  GLY95       0.2014
     69  C          8.6200  -14.0510  -65.8610 C.2    95  GLY95       0.2639
     70  O          9.4690  -14.2960  -66.7210 O.2    95  GLY95      -0.2714
     71  N          8.8570  -13.3040  -64.7880 N.am   96  GLN96      -0.1963
     72  CA        10.1130  -12.5900  -64.5610 C.3    96  GLN96       0.1733
     73  C         11.1240  -13.4870  -63.8640 C.2    96  GLN96       0.2616
     74  O         12.3330  -13.3260  -64.0370 O.2    96  GLN96      -0.2715
     75  CB         9.8460  -11.3730  -63.6800 C.3    96  GLN96       0.0408
     76  CG         8.3890  -10.9450  -63.7020 C.3    96  GLN96       0.0908
     77  CD         7.9460  -10.2330  -62.4530 C.2    96  GLN96       0.2608
     78  OE1        8.7610   -9.7300  -61.6820 O.2    96  GLN96      -0.2717
     79  NE2        6.6400  -10.1820  -62.2450 N.am   96  GLN96      -0.0878
     80  N         10.6090  -14.4290  -63.0770 N.am   97  LEU97      -0.1963
     81  CA        11.4200  -15.2910  -62.2230 C.3    97  LEU97       0.1728
     82  C         12.3980  -16.1680  -63.0100 C.2    97  LEU97       0.2616
     83  O         13.5730  -16.2630  -62.6520 O.2    97  LEU97      -0.2715
     84  CB        10.5070  -16.1480  -61.3350 C.3    97  LEU97       0.0311
     85  CG        11.0890  -16.7720  -60.0630 C.3    97  LEU97       0.0022
     86  CD1       11.4340  -15.7040  -59.0280 C.3    97  LEU97       0.0001
     87  CD2       10.1120  -17.7840  -59.4810 C.3    97  LEU97       0.0001
     88  N         11.9120  -16.7970  -64.0780 N.am   98  ALA98      -0.1977
     89  CA        12.7460  -17.6540  -64.9220 C.3    98  ALA98       0.1597
     90  C         13.8500  -16.8640  -65.6240 C.2    98  ALA98       0.2287
     91  O         14.9840  -17.3300  -65.7260 O.2    98  ALA98      -0.2864
     92  CB        11.8910  -18.3940  -65.9400 C.3    98  ALA98       0.0319
     93  N         14.0390  -22.9370  -64.6600 N.3   104  PRO104     -0.2102
     94  CA        12.8140  -23.3340  -65.3620 C.3   104  PRO104      0.1504
     95  C         11.5800  -22.6280  -64.7950 C.2   104  PRO104      0.2576
     96  O         11.6060  -22.1520  -63.6560 O.2   104  PRO104     -0.2718
     97  CB        12.7290  -24.8430  -65.1010 C.3   104  PRO104      0.0282
     98  CG        14.1180  -25.2550  -64.7680 C.3   104  PRO104      0.0208
     99  CD        14.7090  -24.0940  -64.0380 C.3   104  PRO104      0.0893
    100  N         10.5180  -22.5570  -65.5940 N.am  105  ARG105     -0.1966
    101  CA         9.2670  -21.9380  -65.1650 C.3   105  ARG105      0.1729
    102  C          8.7380  -22.6230  -63.9120 C.2   105  ARG105      0.2616
    103  O          8.5640  -23.8440  -63.8910 O.2   105  ARG105     -0.2715
    104  CB         8.2160  -22.0030  -66.2780 C.3   105  ARG105      0.0348
    105  CG         8.5810  -21.2750  -67.5650 C.3   105  ARG105      0.0492
    106  CD         8.6560  -19.7710  -67.3690 C.3   105  ARG105      0.2205
    107  NE         8.3730  -19.0520  -68.6070 N.pl3 105  ARG105     -0.0865
    108  CZ         8.4800  -17.7340  -68.7570 C.cat 105  ARG105      0.5346
    109  NH1        8.8750  -16.9710  -67.7460 N.pl3 105  ARG105      0.1354
    110  NH2        8.1940  -17.1780  -69.9280 N.pl3 105  ARG105      0.1354
    111  N          8.4920  -21.8310  -62.8730 N.am  106  ALA106     -0.1963
    112  CA         8.0070  -22.3490  -61.5950 C.3   106  ALA106      0.1728
    113  C          6.5350  -22.7610  -61.6510 C.2   106  ALA106      0.2616
    114  O          6.0310  -23.4010  -60.7250 O.2   106  ALA106     -0.2715
    115  CB         8.2370  -21.3290  -60.4890 C.3   106  ALA106      0.0334
    116  N          5.8570  -22.3980  -62.7400 N.am  107  ALA107     -0.1977
    117  CA         4.4360  -22.6980  -62.9240 C.3   107  ALA107      0.1597
    118  C          4.0040  -22.6090  -64.3880 C.2   107  ALA107      0.2287
    119  O          4.7430  -22.1060  -65.2380 O.2   107  ALA107     -0.2864
    120  CB         3.5830  -21.7640  -62.0700 C.3   107  ALA107      0.0319
    121  N          1.1540  -21.0460  -67.0810 N.3   109  ILE109     -0.1245
    122  CA         0.2090  -19.9430  -67.2380 C.3   109  ILE109      0.1561
    123  C         -0.8340  -20.3020  -68.2950 C.2   109  ILE109      0.2260
    124  O         -0.5090  -20.4990  -69.4690 O.2   109  ILE109     -0.2867
    125  CB         0.9160  -18.5980  -67.5640 C.3   109  ILE109      0.0252
    126  CG1        1.8330  -18.1650  -66.4060 C.3   109  ILE109      0.0019
    127  CG2       -0.1030  -17.5100  -67.9020 C.3   109  ILE109      0.0019
    128  CD1        1.1300  -17.8610  -65.0790 C.3   109  ILE109      0.0001
    129  N         14.3610   -3.8640  -62.3410 N.3   134  GLU134     -0.1245
    130  CA        12.9990   -4.3910  -62.2190 C.3   134  GLU134      0.1567
    131  C         12.3530   -4.1350  -60.8520 C.2   134  GLU134      0.2260
    132  O         11.4430   -3.3070  -60.7430 O.2   134  GLU134     -0.2867
    133  CB        12.9780   -5.8880  -62.5480 C.3   134  GLU134      0.0388
    134  CG        11.5820   -6.4880  -62.6160 C.3   134  GLU134      0.1160
    135  CD        11.5230   -7.8730  -62.0060 C.2   134  GLU134      0.3649
    136  OE1       10.9100   -8.0170  -60.9230 O.co2 134  GLU134     -0.2457
    137  OE2       12.1030   -8.8110  -62.5960 O.co2 134  GLU134     -0.2457
    138  N         11.8310   -7.2900  -54.7990 N.3   137  THR137     -0.1203
    139  CA        11.0300   -8.3280  -54.1480 C.3   137  THR137      0.1994
    140  C         10.0480   -9.0230  -55.0870 C.2   137  THR137      0.2618
    141  O          9.4220   -8.3870  -55.9370 O.2   137  THR137     -0.2717
    142  CB        10.2370   -7.7520  -52.9500 C.3   137  THR137      0.1784
    143  OG1       11.0530   -6.8180  -52.2390 O.3   137  THR137     -0.2211
    144  CG2        9.7970   -8.8580  -51.9940 C.3   137  THR137      0.0376
    145  N          9.9310  -10.3370  -54.9160 N.am  138  VAL138     -0.1965
    146  CA         8.8770  -11.1280  -55.5430 C.3   138  VAL138      0.1727
    147  C          8.1850  -11.9670  -54.4640 C.2   138  VAL138      0.2616
    148  O          8.8040  -12.8480  -53.8620 O.2   138  VAL138     -0.2715
    149  CB         9.4250  -12.0350  -56.6770 C.3   138  VAL138      0.0290
    150  CG1        8.3350  -12.9510  -57.2120 C.3   138  VAL138      0.0023
    151  CG2       10.0050  -11.1970  -57.8080 C.3   138  VAL138      0.0023
    152  N          6.9120  -11.6690  -54.2100 N.am  139  ARG139     -0.1963
    153  CA         6.1120  -12.4330  -53.2520 C.3   139  ARG139      0.1729
    154  C          5.1740  -13.3800  -53.9930 C.2   139  ARG139      0.2616
    155  O          4.3170  -12.9390  -54.7640 O.2   139  ARG139     -0.2715
    156  CB         5.2950  -11.5140  -52.3300 C.3   139  ARG139      0.0348
    157  CG         5.9930  -10.2310  -51.9020 C.3   139  ARG139      0.0492
    158  CD         5.2370   -9.5250  -50.7800 C.3   139  ARG139      0.2205
    159  NE         5.9230   -9.6370  -49.4920 N.pl3 139  ARG139     -0.0865
    160  CZ         5.7240  -10.6110  -48.6090 C.cat 139  ARG139      0.5346
    161  NH1        4.8550  -11.5800  -48.8630 N.pl3 139  ARG139      0.1354
    162  NH2        6.4000  -10.6190  -47.4690 N.pl3 139  ARG139      0.1354
    163  N          5.3410  -14.6790  -53.7600 N.am  140  LEU140     -0.1963
    164  CA         4.4740  -15.6840  -54.3710 C.3   140  LEU140      0.1728
    165  C          3.3420  -16.0740  -53.4270 C.2   140  LEU140      0.2616
    166  O          3.5790  -16.4450  -52.2770 O.2   140  LEU140     -0.2715
    167  CB         5.2780  -16.9150  -54.8050 C.3   140  LEU140      0.0311
    168  CG         6.4540  -16.7100  -55.7710 C.3   140  LEU140      0.0022
    169  CD1        7.1600  -18.0300  -56.0340 C.3   140  LEU140      0.0001
    170  CD2        6.0220  -16.0580  -57.0850 C.3   140  LEU140      0.0001
    171  N          2.1120  -15.9730  -53.9250 N.am  141  LYS141     -0.1963
    172  CA         0.9140  -16.2900  -53.1470 C.3   141  LYS141      0.1728
    173  C          0.2090  -17.5330  -53.6840 C.2   141  LYS141      0.2616
    174  O          0.1950  -17.7750  -54.8940 O.2   141  LYS141     -0.2715
    175  CB        -0.0630  -15.1090  -53.1580 C.3   141  LYS141      0.0311
    176  CG         0.2990  -13.9590  -52.2300 C.3   141  LYS141      0.0038
    177  CD        -0.7340  -12.8400  -52.3350 C.3   141  LYS141      0.0206
    178  CE        -0.6610  -11.8710  -51.1590 C.3   141  LYS141      0.1093
    179  NZ         0.5300  -10.9760  -51.2130 N.3   141  LYS141     -0.1314
    180  N         -0.3680  -18.3180  -52.7780 N.am  142  GLU142     -0.1977
    181  CA        -1.2020  -19.4620  -53.1530 C.3   142  GLU142      0.1602
    182  C         -2.4550  -19.4700  -52.2840 C.2   142  GLU142      0.2287
    183  O         -2.3650  -19.4750  -51.0530 O.2   142  GLU142     -0.2864
    184  CB        -0.4360  -20.7880  -53.0330 C.3   142  GLU142      0.0415
    185  CG         0.8970  -20.8010  -53.7740 C.3   142  GLU142      0.1163
    186  CD         1.4750  -22.1860  -53.9890 C.2   142  GLU142      0.3649
    187  OE1        1.0110  -23.1530  -53.3490 O.co2 142  GLU142     -0.2457
    188  OE2        2.4100  -22.3010  -54.8070 O.co2 142  GLU142     -0.2457
    189  N          6.7810  -25.0110  -49.9850 N.3   165  LYS165     -0.1245
    190  CA         7.1670  -24.1550  -51.1080 C.3   165  LYS165      0.1561
    191  C          8.6860  -24.0400  -51.2680 C.2   165  LYS165      0.2260
    192  O          9.1950  -24.0080  -52.3910 O.2   165  LYS165     -0.2867
    193  CB         6.5270  -22.7670  -50.9950 C.3   165  LYS165      0.0271
    194  CG         6.6770  -21.9080  -52.2470 C.3   165  LYS165      0.0035
    195  CD         5.9200  -22.4930  -53.4380 C.3   165  LYS165      0.0206
    196  CE         5.9580  -21.5600  -54.6370 C.3   165  LYS165      0.1093
    197  NZ         5.0640  -22.0350  -55.7230 N.3   165  LYS165     -0.1314
@<TRIPOS>BOND
     1     1     2    1
     2     2     5    1
     3     2     3    1
     4     5     6    1
     5     3     4    2
     6     8     6   ar
     7     8    10   ar
     8   110   108    1
     9     6     7   ar
    10   124   123    2
    11    10    11   ar
    12   108   107    2
    13   108   109    1
    14   107   106    1
    15     7     9   ar
    16    66    64   ar
    17    66    65   ar
    18   123   122    1
    19    64    62   ar
    20   127   125    1
    21    11     9   ar
    22   105   106    1
    23   105   104    1
    24   125   122    1
    25   125   126    1
    26    65    63   ar
    27   122   121    1
    28    62    61   ar
    29    70    69    2
    30    59    58    2
    31   126   128    1
    32    63    61   ar
    33   104   101    1
    34    61    60    1
    35    68    69    1
    36    68    67    1
    37    92    89    1
    38    69    71   am
    39    91    90    2
    40    58    67   am
    41    58    57    1
    42    90    89    1
    43   100   101    1
    44   100    95   am
    45    94    97    1
    46    94    95    1
    47    94    93    1
    48   119   118    2
    49   101   102    1
    50    56    57    1
    51    56    50   am
    52    97    98    1
    53    52    49    1
    54    52    53    1
    55    89    88    1
    56    49    50    1
    57    49    48    1
    58    95    96    2
    59    71    72    1
    60    98    99    1
    61    57    60    1
    62    93    99    1
    63    72    73    1
    64    72    75    1
    65   118   117    1
    66    50    51    2
    67    43    42    2
    68    88    82   am
    69    74    73    2
    70   102   103    2
    71   102   111   am
    72    73    80   am
    73    76    75    1
    74    76    77    1
    75    54    53   ar
    76    53    55   ar
    77    42    41    1
    78    80    81    1
    79    46    45    1
    80    44    41    1
    81    44    45    1
    82    82    83    2
    83    82    81    1
    84   117   116    1
    85   117   120    1
    86   111   112    1
    87   116   113   am
    88   134   133    1
    89   134   135    1
    90    12    13    1
    91   137   135   ar
    92   133   130    1
    93    77    79   am
    94    77    78    2
    95    41    40    1
    96   129   130    1
    97    13    14    1
    98    13    16    1
    99    81    84    1
   100   130   131    1
   101    45    47    1
   102   135   136   ar
   103    14    15    2
   104   113   112    1
   105   113   114    2
   106   112   115    1
   107    18    16    1
   108    84    85    1
   109    16    17    1
   110    19    20    1
   111   131   132    2
   112    37    36    2
   113    20    21    1
   114    20    23    1
   115    21    22    2
   116    85    87    1
   117    85    86    1
   118    36    35    1
   119    24    23    1
   120    24    26    1
   121    23    25    1
   122    27    28    1
   123    35    34    1
   124    35    38    1
   125    34    29   am
   126    38    39    1
   127   151   149    1
   128    28    31    1
   129    28    29    1
   130   150   149    1
   131    31    32    1
   132    31    33    1
   133   170   168    1
   134    29    30    2
   135   149   146    1
   136   169   168    1
   137   141   140    2
   138   168   167    1
   139   197   196    1
   140   146   145    1
   141   146   147    1
   142   140   145   am
   143   140   139    1
   144   174   173    2
   145   188   186   ar
   146   167   164    1
   147   138   139    1
   148   155   154    2
   149   196   195    1
   150   147   152   am
   151   147   148    2
   152   164   163    1
   153   164   165    1
   154   152   153    1
   155   139   142    1
   156   154   163   am
   157   154   153    1
   158   186   185    1
   159   186   187   ar
   160   171   165   am
   161   171   172    1
   162   185   184    1
   163   173   172    1
   164   173   180   am
   165   195   194    1
   166   165   166    2
   167   153   156    1
   168   175   172    1
   169   175   176    1
   170   181   184    1
   171   181   180    1
   172   181   182    1
   173   142   143    1
   174   142   144    1
   175   192   191    2
   176   177   176    1
   177   177   178    1
   178   156   157    1
   179   182   183    2
   180   194   193    1
   181   157   158    1
   182   191   190    1
   183   179   178    1
   184   190   193    1
   185   190   189    1
   186   158   159    1
   187   159   160    2
   188   161   160    1
   189   160   162    1
