@<TRIPOS>MOLECULE
tmp/4mgzA01.pdb
 98 92 0 0 0
SMALL
GASTEIGER

@<TRIPOS>ATOM
      1  N         -8.4860  -20.6740  -70.9550 N.3    55  GLY55      -0.1225
      2  CA        -7.8870  -22.0050  -70.9480 C.3    55  GLY55       0.1811
      3  C         -6.6550  -22.1100  -71.8310 C.2    55  GLY55       0.2280
      4  O         -5.9860  -23.1460  -71.8470 O.2    55  GLY55      -0.2866
      5  N         -2.9560  -21.7690  -72.7610 N.3    57  VAL57      -0.1245
      6  CA        -1.6920  -21.7940  -72.0330 C.3    57  VAL57       0.1561
      7  C         -0.7730  -20.6730  -72.5060 C.2    57  VAL57       0.2260
      8  O         -0.4870  -20.5600  -73.7010 O.2    57  VAL57      -0.2867
      9  CB        -0.9520  -23.1330  -72.2320 C.3    57  VAL57       0.0252
     10  CG1        0.2570  -23.2080  -71.3200 C.3    57  VAL57       0.0019
     11  CG2       -1.8880  -24.3110  -71.9960 C.3    57  VAL57       0.0019
     12  N          4.2470  -23.1340  -69.8570 N.3    60  ASN60      -0.1240
     13  CA         4.1610  -24.3360  -69.0350 C.3    60  ASN60       0.1653
     14  C          5.2440  -24.4170  -67.9750 C.2    60  ASN60       0.2266
     15  O          6.3640  -23.9450  -68.1720 O.2    60  ASN60      -0.2867
     16  CB         4.2280  -25.5910  -69.9100 C.3    60  ASN60       0.1155
     17  CG         3.1640  -25.6120  -70.9840 C.2    60  ASN60       0.2627
     18  OD1        1.9770  -25.4460  -70.7060 O.2    60  ASN60      -0.2716
     19  ND2        3.5840  -25.8310  -72.2240 N.am   60  ASN60      -0.0877
     20  N         -0.9510  -22.2830  -62.1980 N.3    79  VAL79      -0.1231
     21  CA        -1.2470  -23.7070  -62.0650 C.3    79  VAL79       0.1692
     22  C          0.0230  -24.5220  -61.8180 C.2    79  VAL79       0.2592
     23  O          0.9860  -24.4300  -62.5800 O.2    79  VAL79      -0.2718
     24  CB        -1.9840  -24.2460  -63.3230 C.3    79  VAL79       0.0266
     25  CG1       -2.3660  -25.7120  -63.1480 C.3    79  VAL79       0.0020
     26  CG2       -3.2220  -23.4120  -63.6280 C.3    79  VAL79       0.0020
     27  N          0.0130  -25.3190  -60.7520 N.am   80  ILE80      -0.1966
     28  CA         1.1480  -26.1810  -60.4020 C.3    80  ILE80       0.1727
     29  C          0.7140  -27.6490  -60.3650 C.2    80  ILE80       0.2616
     30  O         -0.3440  -27.9720  -59.8220 O.2    80  ILE80      -0.2715
     31  CB         1.7910  -25.7690  -59.0500 C.3    80  ILE80       0.0290
     32  CG1        2.1840  -24.2900  -59.0770 C.3    80  ILE80       0.0022
     33  CG2        3.0140  -26.6340  -58.7380 C.3    80  ILE80       0.0023
     34  CD1        2.4090  -23.6770  -57.7250 C.3    80  ILE80       0.0001
     35  N          1.5320  -28.5280  -60.9480 N.am   81  TYR81      -0.1960
     36  CA         1.2110  -29.9550  -61.0310 C.3    81  TYR81       0.1771
     37  C          1.0230  -30.5720  -59.6450 C.2    81  TYR81       0.2620
     38  O          1.8960  -30.4620  -58.7810 O.2    81  TYR81      -0.2715
     39  CB         2.2950  -30.7380  -61.7850 C.3    81  TYR81       0.0574
     40  CG         2.6700  -30.2270  -63.1630 C.ar   81  TYR81      -0.0198
     41  CD1        1.7280  -29.6330  -64.0050 C.ar   81  TYR81      -0.0009
     42  CD2        3.9740  -30.3780  -63.6380 C.ar   81  TYR81      -0.0009
     43  CE1        2.0840  -29.1770  -65.2750 C.ar   81  TYR81       0.0417
     44  CE2        4.3400  -29.9300  -64.9020 C.ar   81  TYR81       0.0417
     45  CZ         3.3930  -29.3330  -65.7160 C.ar   81  TYR81       0.1957
     46  OH         3.7650  -28.8930  -66.9670 O.3    81  TYR81      -0.2866
     47  N         -0.1200  -31.2180  -59.4420 N.am   82  GLY82      -0.1940
     48  CA        -0.4160  -31.8730  -58.1750 C.3    82  GLY82       0.2014
     49  C         -1.0310  -30.9470  -57.1450 C.2    82  GLY82       0.2639
     50  O         -1.2010  -31.3350  -55.9870 O.2    82  GLY82      -0.2714
     51  N         -1.3620  -29.7250  -57.5660 N.am   83  LYS83      -0.1963
     52  CA        -2.0090  -28.7390  -56.6940 C.3    83  LYS83       0.1728
     53  C         -3.0890  -27.9350  -57.4180 C.2    83  LYS83       0.2617
     54  O         -3.9380  -27.3100  -56.7760 O.2    83  LYS83      -0.2715
     55  CB        -0.9800  -27.7890  -56.0660 C.3    83  LYS83       0.0311
     56  CG        -0.0120  -28.4590  -55.0910 C.3    83  LYS83       0.0038
     57  CD         0.3230  -27.5720  -53.8900 C.3    83  LYS83       0.0206
     58  CE         1.2310  -26.4100  -54.2670 C.3    83  LYS83       0.1093
     59  NZ         2.5200  -26.8320  -54.8950 N.3    83  LYS83      -0.1314
     60  N         -3.0530  -27.9520  -58.7490 N.am   84  GLY84      -0.1940
     61  CA        -4.0000  -27.1910  -59.5650 C.3    84  GLY84       0.2014
     62  C         -3.8460  -25.6840  -59.4350 C.2    84  GLY84       0.2638
     63  O         -2.7860  -25.1940  -59.0300 O.2    84  GLY84      -0.2714
     64  N         -4.9080  -24.9540  -59.7780 N.am   85  VAL85      -0.1977
     65  CA        -4.9240  -23.4910  -59.6870 C.3    85  VAL85       0.1596
     66  C         -4.5810  -23.0440  -58.2670 C.2    85  VAL85       0.2287
     67  O         -5.3730  -23.1900  -57.3370 O.2    85  VAL85      -0.2864
     68  CB        -6.2730  -22.8910  -60.1460 C.3    85  VAL85       0.0276
     69  CG1       -6.2880  -21.3780  -59.9540 C.3    85  VAL85       0.0022
     70  CG2       -6.5390  -23.2440  -61.6010 C.3    85  VAL85       0.0022
     71  N          2.6120  -22.9650  -64.2490 N.3   109  SER109     -0.1217
     72  CA         2.0360  -22.6890  -65.5570 C.3   109  SER109      0.1889
     73  C          1.0880  -21.5090  -65.4510 C.2   109  SER109      0.2288
     74  O          0.4150  -21.3390  -64.4360 O.2   109  SER109     -0.2866
     75  CB         1.2830  -23.9100  -66.0840 C.3   109  SER109      0.2089
     76  OG         2.1570  -25.0100  -66.2590 O.3   109  SER109     -0.2183
     77  N         -2.2180  -19.9360  -67.1600 N.3   111  VAL111     -0.1245
     78  CA        -3.3510  -20.2860  -68.0090 C.3   111  VAL111      0.1561
     79  C         -4.3960  -19.1820  -67.9340 C.2   111  VAL111      0.2260
     80  O         -4.7490  -18.7350  -66.8420 O.2   111  VAL111     -0.2867
     81  CB        -3.9980  -21.6250  -67.5680 C.3   111  VAL111      0.0252
     82  CG1       -5.1650  -21.9880  -68.4740 C.3   111  VAL111      0.0019
     83  CG2       -2.9730  -22.7510  -67.5610 C.3   111  VAL111      0.0019
     84  N          0.2120  -32.1360  -65.8900 N.3   218  SER218     -0.1202
     85  CA        -1.2120  -32.0860  -66.2060 C.3   218  SER218      0.2020
     86  C         -1.5200  -31.3960  -67.5330 C.2   218  SER218      0.2618
     87  O         -2.6310  -30.9040  -67.7390 O.2   218  SER218     -0.2717
     88  CB        -1.9770  -31.4130  -65.0670 C.3   218  SER218      0.2103
     89  OG        -1.3680  -30.1980  -64.6800 O.3   218  SER218     -0.2182
     90  N         -0.5380  -31.3850  -68.4320 N.am  219  GLN219     -0.1979
     91  CA        -0.6460  -30.6870  -69.7150 C.3   219  GLN219      0.1601
     92  C          0.4860  -31.0770  -70.6770 C.2   219  GLN219      0.2287
     93  O          1.5810  -31.4460  -70.2450 O.2   219  GLN219     -0.2864
     94  CB        -0.6900  -29.1660  -69.4800 C.3   219  GLN219      0.0394
     95  CG        -0.0400  -28.2960  -70.5540 C.3   219  GLN219      0.0908
     96  CD         1.4830  -28.4020  -70.5580 C.2   219  GLN219      0.2608
     97  OE1        2.1030  -28.5370  -71.6170 O.2   219  GLN219     -0.2717
     98  NE2        2.0900  -28.3540  -69.3710 N.am  219  GLN219     -0.0878
@<TRIPOS>BOND
     1     8     7    2
     2     5     6    1
     3     7     6    1
     4     9     6    1
     5     9    11    1
     6     9    10    1
     7    19    17   am
     8     4     3    2
     9     3     2    1
    10    97    96    2
    11    17    18    2
    12    17    16    1
    13     1     2    1
    14    92    93    2
    15    92    91    1
    16    96    95    1
    17    96    98   am
    18    95    94    1
    19    16    13    1
    20    12    13    1
    21    91    94    1
    22    91    90    1
    23    13    14    1
    24    82    81    1
    25    90    86   am
    26    15    14    2
    27    78    79    1
    28    78    81    1
    29    78    77    1
    30    79    80    2
    31    87    86    2
    32    81    83    1
    33    86    85    1
    34    46    45    1
    35    76    75    1
    36    85    84    1
    37    85    88    1
    38    75    72    1
    39    45    43   ar
    40    45    44   ar
    41    72    73    1
    42    72    71    1
    43    73    74    2
    44    43    41   ar
    45    88    89    1
    46    44    42   ar
    47    41    40   ar
    48    42    40   ar
    49    26    24    1
    50    24    25    1
    51    24    21    1
    52    40    39    1
    53    23    22    2
    54    20    21    1
    55    21    22    1
    56    22    27   am
    57    39    36    1
    58    70    68    1
    59    36    35    1
    60    36    37    1
    61    35    29   am
    62    27    28    1
    63    28    29    1
    64    28    31    1
    65    29    30    2
    66    68    69    1
    67    68    65    1
    68    64    65    1
    69    64    62   am
    70    65    66    1
    71    37    47   am
    72    37    38    2
    73    61    62    1
    74    61    60    1
    75    47    48    1
    76    62    63    2
    77    32    31    1
    78    32    34    1
    79    31    33    1
    80    60    53   am
    81    66    67    2
    82    48    49    1
    83    51    49   am
    84    51    52    1
    85    53    54    2
    86    53    52    1
    87    49    50    2
    88    52    55    1
    89    55    56    1
    90    56    57    1
    91    59    58    1
    92    58    57    1
