@<TRIPOS>MOLECULE
tmp/4mgzA00.pdb
 203 196 0 0 0
SMALL
GASTEIGER

@<TRIPOS>ATOM
      1  N          2.3930  -20.0990  -70.7540 N.3    59  PHE59      -0.1241
      2  CA         3.5820  -20.9580  -70.7030 C.3    59  PHE59       0.1605
      3  C          3.4140  -22.1080  -69.7070 C.2    59  PHE59       0.2264
      4  O          2.5510  -22.0620  -68.8280 O.2    59  PHE59      -0.2867
      5  CB         4.8760  -20.1660  -70.4350 C.3    59  PHE59       0.0534
      6  CG         4.8680  -19.3650  -69.1570 C.ar   59  PHE59      -0.0203
      7  CD1        5.0620  -19.9820  -67.9230 C.ar   59  PHE59      -0.0042
      8  CD2        4.7070  -17.9840  -69.1940 C.ar   59  PHE59      -0.0042
      9  CE1        5.0660  -19.2400  -66.7460 C.ar   59  PHE59      -0.0003
     10  CE2        4.7170  -17.2330  -68.0210 C.ar   59  PHE59      -0.0003
     11  CZ         4.9020  -17.8630  -66.7970 C.ar   59  PHE59      -0.0000
     12  N         -2.4520  -19.2920  -61.9840 N.3    78  VAL78      -0.1245
     13  CA        -1.1630  -19.9060  -61.7030 C.3    78  VAL78       0.1561
     14  C         -1.4250  -21.3750  -61.3500 C.2    78  VAL78       0.2260
     15  O         -2.0550  -21.6740  -60.3360 O.2    78  VAL78      -0.2867
     16  CB        -0.4230  -19.1790  -60.5530 C.3    78  VAL78       0.0252
     17  CG1        0.9770  -19.7290  -60.3900 C.3    78  VAL78       0.0019
     18  CG2       -0.3690  -17.6810  -60.8100 C.3    78  VAL78       0.0019
     19  N          0.0130  -25.3190  -60.7520 N.3    80  ILE80      -0.1245
     20  CA         1.1480  -26.1810  -60.4020 C.3    80  ILE80       0.1561
     21  C          0.7140  -27.6490  -60.3650 C.2    80  ILE80       0.2260
     22  O         -0.3440  -27.9720  -59.8220 O.2    80  ILE80      -0.2867
     23  CB         1.7910  -25.7690  -59.0500 C.3    80  ILE80       0.0252
     24  CG1        2.1840  -24.2900  -59.0770 C.3    80  ILE80       0.0019
     25  CG2        3.0140  -26.6340  -58.7380 C.3    80  ILE80       0.0019
     26  CD1        2.4090  -23.6770  -57.7250 C.3    80  ILE80       0.0001
     27  N         -3.3800  -22.5030  -58.1220 N.3    86  VAL86      -0.1231
     28  CA        -2.8150  -22.2140  -56.8180 C.3    86  VAL86       0.1692
     29  C         -3.0610  -20.7600  -56.4050 C.2    86  VAL86       0.2592
     30  O         -3.1210  -20.4470  -55.2160 O.2    86  VAL86      -0.2718
     31  CB        -1.3210  -22.6160  -56.7870 C.3    86  VAL86       0.0266
     32  CG1       -0.3960  -21.4030  -56.9240 C.3    86  VAL86       0.0020
     33  CG2       -1.0260  -23.4070  -55.5390 C.3    86  VAL86       0.0020
     34  N         -3.2030  -19.8860  -57.4000 N.am   87  CYS87      -0.1956
     35  CA        -3.6520  -18.5040  -57.2060 C.3    87  CYS87       0.1843
     36  C         -4.0120  -17.8780  -58.5540 C.2    87  CYS87       0.2626
     37  O         -3.7400  -18.4550  -59.6070 O.2    87  CYS87      -0.2714
     38  CB        -2.6140  -17.6570  -56.4490 C.3    87  CYS87       0.0997
     39  SG        -1.3020  -16.9180  -57.4480 S.3    87  CYS87      -0.0797
     40  N         -4.6310  -16.7050  -58.5190 N.am   88  THR88      -0.1936
     41  CA        -5.1160  -16.0700  -59.7420 C.3    88  THR88       0.2028
     42  C         -4.7750  -14.5790  -59.8150 C.2    88  THR88       0.2642
     43  O         -5.1280  -13.7980  -58.9270 O.2    88  THR88      -0.2714
     44  CB        -6.6380  -16.3530  -59.9910 C.3    88  THR88       0.1808
     45  OG1       -7.2000  -15.3260  -60.8190 O.3    88  THR88      -0.2208
     46  CG2       -7.4200  -16.4270  -58.6830 C.3    88  THR88       0.0379
     47  N         -4.0760  -14.2070  -60.8860 N.am   89  LEU89      -0.1977
     48  CA        -3.6350  -12.8350  -61.1130 C.3    89  LEU89       0.1596
     49  C         -4.6620  -12.0640  -61.9380 C.2    89  LEU89       0.2287
     50  O         -5.3180  -12.6380  -62.8090 O.2    89  LEU89      -0.2864
     51  CB        -2.2790  -12.8330  -61.8200 C.3    89  LEU89       0.0297
     52  CG        -1.1190  -13.5300  -61.1020 C.3    89  LEU89       0.0022
     53  CD1       -0.1390  -14.1140  -62.1030 C.3    89  LEU89       0.0001
     54  CD2       -0.4090  -12.5940  -60.1260 C.3    89  LEU89       0.0001
     55  N         -1.6240   -6.7740  -62.4670 N.3    93  ASP93      -0.1225
     56  CA        -0.5740   -7.6710  -61.9720 C.3    93  ASP93       0.1805
     57  C          0.4490   -8.0370  -63.0520 C.2    93  ASP93       0.2598
     58  O          0.1900   -7.8880  -64.2520 O.2    93  ASP93      -0.2718
     59  CB        -1.1800   -8.9470  -61.3680 C.3    93  ASP93       0.1424
     60  CG        -2.0380   -8.6760  -60.1340 C.2    93  ASP93       0.3668
     61  OD1       -2.9280   -9.5060  -59.8450 O.co2  93  ASP93      -0.2456
     62  OD2       -1.8300   -7.6470  -59.4490 O.co2  93  ASP93      -0.2456
     63  N          1.6110   -8.5130  -62.6080 N.am   94  ASP94      -0.1960
     64  CA         2.6730   -8.9680  -63.5030 C.3    94  ASP94       0.1840
     65  C          3.1890  -10.3360  -63.0550 C.2    94  ASP94       0.2622
     66  O          3.0460  -10.7060  -61.8860 O.2    94  ASP94      -0.2715
     67  CB         3.8170   -7.9430  -63.5490 C.3    94  ASP94       0.1450
     68  CG         4.6930   -7.9780  -62.3030 C.2    94  ASP94       0.3671
     69  OD1        5.8820   -8.3360  -62.4230 O.co2  94  ASP94      -0.2456
     70  OD2        4.1950   -7.6630  -61.2020 O.co2  94  ASP94      -0.2456
     71  N          3.7890  -11.0830  -63.9790 N.am   95  PHE95      -0.1960
     72  CA         4.3010  -12.4150  -63.6620 C.3    95  PHE95       0.1771
     73  C          5.4390  -12.8640  -64.5740 C.2    95  PHE95       0.2620
     74  O          5.6770  -12.2760  -65.6290 O.2    95  PHE95      -0.2715
     75  CB         3.1650  -13.4510  -63.6830 C.3    95  PHE95       0.0574
     76  CG         2.4570  -13.5600  -65.0070 C.ar   95  PHE95      -0.0200
     77  CD1        2.9070  -14.4450  -65.9810 C.ar   95  PHE95      -0.0042
     78  CD2        1.3340  -12.7850  -65.2730 C.ar   95  PHE95      -0.0042
     79  CE1        2.2560  -14.5480  -67.1980 C.ar   95  PHE95      -0.0003
     80  CE2        0.6760  -12.8820  -66.4890 C.ar   95  PHE95      -0.0003
     81  CZ         1.1340  -13.7650  -67.4490 C.ar   95  PHE95      -0.0000
     82  N          6.1340  -13.9160  -64.1540 N.am   96  GLY96      -0.1940
     83  CA         7.1450  -14.5590  -64.9850 C.3    96  GLY96       0.2014
     84  C          8.5440  -14.0020  -64.8420 C.2    96  GLY96       0.2639
     85  O          9.4440  -14.3590  -65.6030 O.2    96  GLY96      -0.2714
     86  N          8.7290  -13.1300  -63.8590 N.am   97  LYS97      -0.1963
     87  CA        10.0110  -12.4800  -63.6270 C.3    97  LYS97       0.1728
     88  C         11.0480  -13.4370  -63.0310 C.2    97  LYS97       0.2616
     89  O         12.1930  -13.4660  -63.4820 O.2    97  LYS97      -0.2715
     90  CB         9.8010  -11.2600  -62.7350 C.3    97  LYS97       0.0311
     91  CG        11.0500  -10.5890  -62.2330 C.3    97  LYS97       0.0038
     92  CD        10.6600   -9.3910  -61.3950 C.3    97  LYS97       0.0206
     93  CE        11.6400   -9.1740  -60.2670 C.3    97  LYS97       0.1093
     94  NZ        11.1870   -8.0940  -59.3490 N.3    97  LYS97      -0.1314
     95  N         10.6350  -14.2270  -62.0400 N.am   98  LEU98      -0.1963
     96  CA        11.5410  -15.1120  -61.3010 C.3    98  LEU98       0.1728
     97  C         12.3940  -16.0380  -62.1840 C.2    98  LEU98       0.2616
     98  O         13.5930  -16.1930  -61.9410 O.2    98  LEU98      -0.2715
     99  CB        10.7640  -15.9200  -60.2520 C.3    98  LEU98       0.0311
    100  CG        11.5470  -16.8730  -59.3360 C.3    98  LEU98       0.0022
    101  CD1       12.5060  -16.1150  -58.4320 C.3    98  LEU98       0.0001
    102  CD2       10.6040  -17.7390  -58.5080 C.3    98  LEU98       0.0001
    103  N         11.7790  -16.6400  -63.2010 N.am   99  ALA99      -0.1977
    104  CA        12.4810  -17.5490  -64.1140 C.3    99  ALA99       0.1597
    105  C         13.5340  -16.8430  -64.9660 C.2    99  ALA99       0.2287
    106  O         14.6090  -17.3930  -65.2000 O.2    99  ALA99      -0.2864
    107  CB        11.4960  -18.2730  -65.0000 C.3    99  ALA99       0.0319
    108  N         13.9060  -22.8730  -64.4250 N.3   105  PRO105     -0.2102
    109  CA        12.6400  -23.2900  -65.0340 C.3   105  PRO105      0.1504
    110  C         11.4400  -22.5390  -64.4500 C.2   105  PRO105      0.2576
    111  O         11.5410  -21.9520  -63.3700 O.2   105  PRO105     -0.2718
    112  CB        12.5510  -24.7770  -64.6760 C.3   105  PRO105      0.0282
    113  CG        13.9490  -25.1900  -64.4000 C.3   105  PRO105      0.0208
    114  CD        14.6050  -24.0060  -63.7890 C.3   105  PRO105      0.0893
    115  N         10.3220  -22.5470  -65.1690 N.am  106  ARG106     -0.1966
    116  CA         9.0860  -21.9700  -64.6540 C.3   106  ARG106      0.1729
    117  C          8.5650  -22.8300  -63.5100 C.2   106  ARG106      0.2616
    118  O          8.3800  -24.0420  -63.6640 O.2   106  ARG106     -0.2715
    119  CB         8.0280  -21.8690  -65.7540 C.3   106  ARG106      0.0348
    120  CG         8.4050  -20.9960  -66.9370 C.3   106  ARG106      0.0492
    121  CD         8.4790  -19.5250  -66.5710 C.3   106  ARG106      0.2205
    122  NE         8.2130  -18.6800  -67.7310 N.pl3 106  ARG106     -0.0865
    123  CZ         8.3770  -17.3620  -67.7600 C.cat 106  ARG106      0.5346
    124  NH1        8.8250  -16.7210  -66.6940 N.pl3 106  ARG106      0.1354
    125  NH2        8.1020  -16.6840  -68.8650 N.pl3 106  ARG106      0.1354
    126  N          8.3400  -22.2000  -62.3600 N.am  107  ALA107     -0.1963
    127  CA         7.8490  -22.9080  -61.1830 C.3   107  ALA107      0.1728
    128  C          6.3780  -23.3000  -61.3290 C.2   107  ALA107      0.2616
    129  O          5.8950  -24.1860  -60.6200 O.2   107  ALA107     -0.2715
    130  CB         8.0690  -22.0750  -59.9230 C.3   107  ALA107      0.0334
    131  N          5.6790  -22.6450  -62.2520 N.am  108  ALA108     -0.1977
    132  CA         4.2660  -22.9140  -62.4890 C.3   108  ALA108      0.1597
    133  C          3.8770  -22.6850  -63.9430 C.2   108  ALA108      0.2287
    134  O          4.7000  -22.2740  -64.7600 O.2   108  ALA108     -0.2864
    135  CB         3.4040  -22.0560  -61.5770 C.3   108  ALA108      0.0319
    136  N          1.0460  -20.6890  -66.4950 N.3   110  ILE110     -0.1245
    137  CA         0.0950  -19.5850  -66.5520 C.3   110  ILE110      0.1561
    138  C         -0.9680  -19.8710  -67.6110 C.2   110  ILE110      0.2260
    139  O         -0.6580  -20.0450  -68.7930 O.2   110  ILE110     -0.2867
    140  CB         0.7910  -18.2220  -66.7960 C.3   110  ILE110      0.0252
    141  CG1        1.7220  -17.8660  -65.6250 C.3   110  ILE110      0.0019
    142  CG2       -0.2400  -17.1270  -67.0440 C.3   110  ILE110      0.0019
    143  CD1        1.0420  -17.3880  -64.3480 C.3   110  ILE110      0.0001
    144  N         10.0980  -10.9070  -54.9260 N.3   139  VAL139     -0.1231
    145  CA         9.2670  -11.9130  -55.5740 C.3   139  VAL139      0.1692
    146  C          8.5280  -12.7190  -54.5090 C.2   139  VAL139      0.2592
    147  O          9.1240  -13.5330  -53.8020 O.2   139  VAL139     -0.2718
    148  CB        10.0780  -12.8360  -56.5180 C.3   139  VAL139      0.0266
    149  CG1        9.1720  -13.8690  -57.1670 C.3   139  VAL139      0.0020
    150  CG2       10.7780  -12.0220  -57.5900 C.3   139  VAL139      0.0020
    151  N          7.2310  -12.4520  -54.3860 N.am  140  ARG140     -0.1966
    152  CA         6.3520  -13.2080  -53.5040 C.3   140  ARG140      0.1729
    153  C          5.5670  -14.2170  -54.3290 C.2   140  ARG140      0.2616
    154  O          4.8820  -13.8460  -55.2840 O.2   140  ARG140     -0.2715
    155  CB         5.3700  -12.2840  -52.7790 C.3   140  ARG140      0.0348
    156  CG         5.9970  -11.2570  -51.8550 C.3   140  ARG140      0.0492
    157  CD         4.9220  -10.5410  -51.0470 C.3   140  ARG140      0.2205
    158  NE         5.4480   -9.3910  -50.3130 N.pl3 140  ARG140     -0.0865
    159  CZ         6.0050   -9.4470  -49.1030 C.cat 140  ARG140      0.5346
    160  NH1        6.1240  -10.6050  -48.4610 N.pl3 140  ARG140      0.1354
    161  NH2        6.4490   -8.3350  -48.5300 N.pl3 140  ARG140      0.1354
    162  N          5.6800  -15.4910  -53.9710 N.am  141  LEU141     -0.1963
    163  CA         4.8610  -16.5230  -54.5850 C.3   141  LEU141      0.1728
    164  C          3.7010  -16.8240  -53.6510 C.2   141  LEU141      0.2616
    165  O          3.9030  -17.0310  -52.4560 O.2   141  LEU141     -0.2715
    166  CB         5.6800  -17.7830  -54.8660 C.3   141  LEU141      0.0311
    167  CG         6.9130  -17.6740  -55.7680 C.3   141  LEU141      0.0022
    168  CD1        7.4300  -19.0600  -56.1000 C.3   141  LEU141      0.0001
    169  CD2        6.6280  -16.8960  -57.0450 C.3   141  LEU141      0.0001
    170  N          2.4880  -16.8340  -54.1950 N.am  142  LYS142     -0.1963
    171  CA         1.2850  -16.9570  -53.3750 C.3   142  LYS142      0.1728
    172  C          0.4750  -18.2180  -53.6540 C.2   142  LYS142      0.2616
    173  O          0.3660  -18.6610  -54.7980 O.2   142  LYS142     -0.2715
    174  CB         0.4000  -15.7140  -53.5280 C.3   142  LYS142      0.0311
    175  CG         1.0270  -14.4300  -53.0000 C.3   142  LYS142      0.0038
    176  CD        -0.0070  -13.3250  -52.8380 C.3   142  LYS142      0.0206
    177  CE         0.6180  -12.0670  -52.2450 C.3   142  LYS142      0.1093
    178  NZ        -0.4060  -11.0430  -51.8820 N.3   142  LYS142     -0.1314
    179  N         -0.0720  -18.7940  -52.5840 N.am  143  GLU143     -0.1977
    180  CA        -1.0240  -19.9030  -52.6620 C.3   143  GLU143      0.1602
    181  C         -2.1270  -19.6720  -51.6330 C.2   143  GLU143      0.2287
    182  O         -1.8400  -19.4780  -50.4480 O.2   143  GLU143     -0.2864
    183  CB        -0.3430  -21.2500  -52.3990 C.3   143  GLU143      0.0415
    184  CG         0.8210  -21.5730  -53.3300 C.3   143  GLU143      0.1163
    185  CD         1.3390  -22.9990  -53.1870 C.2   143  GLU143      0.3649
    186  OE1        0.7830  -23.7680  -52.3690 O.co2 143  GLU143     -0.2457
    187  OE2        2.3020  -23.3510  -53.9080 O.co2 143  GLU143     -0.2457
    188  N          3.8900  -17.7340  -49.6950 N.3   148  VAL148     -0.1245
    189  CA         4.2830  -19.1270  -49.5640 C.3   148  VAL148      0.1561
    190  C          5.7760  -19.3050  -49.8750 C.2   148  VAL148      0.2260
    191  O          6.3820  -20.3110  -49.5010 O.2   148  VAL148     -0.2867
    192  CB         3.3560  -20.0380  -50.4180 C.3   148  VAL148      0.0252
    193  CG1        3.9210  -20.2690  -51.8080 C.3   148  VAL148      0.0019
    194  CG2        3.0980  -21.3480  -49.7160 C.3   148  VAL148      0.0019
    195  N          7.0040  -25.4200  -49.9390 N.3   166  LYS166     -0.1245
    196  CA         7.3900  -24.6150  -51.0940 C.3   166  LYS166      0.1561
    197  C          8.9020  -24.4790  -51.2160 C.2   166  LYS166      0.2260
    198  O          9.4280  -24.4000  -52.3240 O.2   166  LYS166     -0.2867
    199  CB         6.7280  -23.2360  -51.0440 C.3   166  LYS166      0.0271
    200  CG         6.7740  -22.4670  -52.3600 C.3   166  LYS166      0.0035
    201  CD         5.8420  -23.0710  -53.3890 C.3   166  LYS166      0.0206
    202  CE         6.0470  -22.4590  -54.7530 C.3   166  LYS166      0.1093
    203  NZ         5.0860  -23.0320  -55.7310 N.3   166  LYS166     -0.1314
@<TRIPOS>BOND
     1     1     2    1
     2     2     5    1
     3     2     3    1
     4     5     6    1
     5     3     4    2
     6     8     6   ar
     7     8    10   ar
     8     6     7   ar
     9   125   123    1
    10   139   138    2
    11    10    11   ar
    12     7     9   ar
    13   123   122    2
    14   123   124    1
    15   122   121    1
    16   138   137    1
    17    81    79   ar
    18    81    80   ar
    19    79    77   ar
    20   142   140    1
    21   120   121    1
    22   120   119    1
    23    11     9   ar
    24   140   137    1
    25   140   141    1
    26   137   136    1
    27    80    78   ar
    28    77    76   ar
    29   119   116    1
    30    74    73    2
    31   141   143    1
    32    85    84    2
    33    78    76   ar
    34   106   105    2
    35   115   116    1
    36   115   110   am
    37   109   112    1
    38   109   110    1
    39   109   108    1
    40    76    75    1
    41   107   104    1
    42    83    84    1
    43    83    82    1
    44   105   104    1
    45    84    86   am
    46   134   133    2
    47   112   113    1
    48   116   117    1
    49    73    82   am
    50    73    72    1
    51   110   111    2
    52   108   114    1
    53   113   114    1
    54    58    57    2
    55   104   103    1
    56    71    72    1
    57    71    65   am
    58   133   132    1
    59    86    87    1
    60    75    72    1
    61   118   117    2
    62    87    88    1
    63    87    90    1
    64    67    64    1
    65    67    68    1
    66   117   126   am
    67    64    65    1
    68    64    63    1
    69    89    88    2
    70   103    97   am
    71    65    66    2
    72    57    63   am
    73    57    56    1
    74    88    95   am
    75    50    49    2
    76    90    91    1
    77   132   131    1
    78   132   135    1
    79    55    56    1
    80    69    68   ar
    81   126   127    1
    82    68    70   ar
    83   131   128   am
    84    91    92    1
    85    97    98    2
    86    97    96    1
    87    53    52    1
    88    95    96    1
    89    12    13    1
    90    56    59    1
    91    49    48    1
    92    51    48    1
    93    51    52    1
    94    13    14    1
    95    13    16    1
    96    92    93    1
    97    59    60    1
    98    14    15    2
    99   128   127    1
   100   128   129    2
   101    96    99    1
   102   127   130    1
   103    48    47    1
   104    52    54    1
   105    47    42   am
   106    45    44    1
   107    18    16    1
   108    19    20    1
   109    16    17    1
   110    20    21    1
   111    20    23    1
   112    21    22    2
   113    93    94    1
   114    99   100    1
   115    60    61   ar
   116    60    62   ar
   117    44    41    1
   118    44    46    1
   119    42    41    1
   120    42    43    2
   121    41    40    1
   122    37    36    2
   123   100   102    1
   124   100   101    1
   125    24    23    1
   126    24    26    1
   127    23    25    1
   128    36    40   am
   129    36    35    1
   130    27    28    1
   131   150   148    1
   132    39    38    1
   133    34    35    1
   134    34    29   am
   135    35    38    1
   136   149   148    1
   137   169   167    1
   138    32    31    1
   139    28    31    1
   140    28    29    1
   141    31    33    1
   142   148   145    1
   143    29    30    2
   144   168   167    1
   145   167   166    1
   146   203   202    1
   147   145   144    1
   148   145   146    1
   149   154   153    2
   150   166   163    1
   151   173   172    2
   152   202   201    1
   153   163   162    1
   154   163   164    1
   155   146   151   am
   156   146   147    2
   157   151   152    1
   158   153   162   am
   159   153   152    1
   160   170   164   am
   161   170   171    1
   162   187   185   ar
   163   172   171    1
   164   172   179   am
   165   164   165    2
   166   174   171    1
   167   174   175    1
   168   152   155    1
   169   201   200    1
   170   184   185    1
   171   184   183    1
   172   185   186   ar
   173   175   176    1
   174   176   177    1
   175   155   156    1
   176   180   179    1
   177   180   183    1
   178   180   181    1
   179   200   199    1
   180   198   197    2
   181   177   178    1
   182   156   157    1
   183   193   192    1
   184   181   182    2
   185   197   196    1
   186   196   199    1
   187   196   195    1
   188   157   158    1
   189   192   194    1
   190   192   189    1
   191   158   159    2
   192   190   189    1
   193   190   191    2
   194   188   189    1
   195   159   161    1
   196   159   160    1
