@<TRIPOS>MOLECULE
tmp/4mh1B00.pdb
 186 180 0 0 0
SMALL
GASTEIGER

@<TRIPOS>ATOM
      1  N         46.1730  -27.7390  -89.7040 N.3    58  LYS58      -0.1245
      2  CA        47.3300  -28.3280  -89.0710 C.3    58  LYS58       0.1561
      3  C         47.9820  -27.4010  -88.0350 C.2    58  LYS58       0.2260
      4  O         48.1410  -26.2030  -88.2510 O.2    58  LYS58      -0.2867
      5  CB        48.3060  -28.9070  -90.1080 C.3    58  LYS58       0.0271
      6  CG        48.6270  -28.0380  -91.2850 C.3    58  LYS58       0.0035
      7  CD        49.7240  -28.7040  -92.1180 C.3    58  LYS58       0.0206
      8  CE        49.1980  -29.9070  -92.8990 C.3    58  LYS58       0.1093
      9  NZ        48.6010  -29.4720  -94.2030 N.3    58  LYS58      -0.1314
     10  N         51.1110  -26.3570  -85.8540 N.3    60  GLN60      -0.1245
     11  CA        52.5540  -26.4470  -85.7930 C.3    60  GLN60       0.1566
     12  C         53.0770  -25.3020  -84.9390 C.2    60  GLN60       0.2260
     13  O         54.2360  -24.9140  -85.0330 O.2    60  GLN60      -0.2867
     14  CB        53.1230  -26.3840  -87.2070 C.3    60  GLN60       0.0367
     15  CG        52.4160  -27.3440  -88.1510 C.3    60  GLN60       0.0905
     16  CD        53.2020  -27.6570  -89.4030 C.2    60  GLN60       0.2608
     17  OE1       54.1570  -26.9700  -89.7320 O.2    60  GLN60      -0.2717
     18  NE2       52.7970  -28.7020  -90.1100 N.am   60  GLN60      -0.0878
     19  N         51.3500  -24.5090  -98.0680 N.3   106  PHE106     -0.1241
     20  CA        52.3490  -24.6640  -97.0010 C.3   106  PHE106      0.1605
     21  C         52.2830  -23.5440  -95.9360 C.2   106  PHE106      0.2264
     22  O         52.9960  -23.5860  -94.9200 O.2   106  PHE106     -0.2867
     23  CB        53.7640  -24.7520  -97.6020 C.3   106  PHE106      0.0534
     24  CG        54.1120  -26.1090  -98.1860 C.ar  106  PHE106     -0.0203
     25  CD1       53.8220  -27.2830  -97.4960 C.ar  106  PHE106     -0.0042
     26  CD2       54.7440  -26.2070  -99.4220 C.ar  106  PHE106     -0.0042
     27  CE1       54.1520  -28.5320  -98.0310 C.ar  106  PHE106     -0.0003
     28  CE2       55.0730  -27.4480  -99.9630 C.ar  106  PHE106     -0.0003
     29  CZ        54.7740  -28.6130  -99.2650 C.ar  106  PHE106     -0.0000
     30  N         49.7430  -23.6230  -91.7410 N.3   109  PRO109     -0.2116
     31  CA        50.1380  -23.4880  -90.3470 C.3   109  PRO109      0.1372
     32  C         50.9350  -22.2130  -90.1520 C.2   109  PRO109      0.2244
     33  O         51.5680  -21.7000  -91.0780 O.2   109  PRO109     -0.2868
     34  CB        51.0310  -24.7040  -90.1310 C.3   109  PRO109      0.0268
     35  CG        51.6800  -24.9010  -91.4370 C.3   109  PRO109      0.0207
     36  CD        50.6430  -24.5460  -92.4650 C.3   109  PRO109      0.0892
     37  N         53.7710  -21.0680  -87.3400 N.3   111  ARG111     -0.1245
     38  CA        54.5600  -21.6360  -86.2590 C.3   111  ARG111      0.1563
     39  C         54.9170  -20.5730  -85.2380 C.2   111  ARG111      0.2260
     40  O         54.8830  -20.8230  -84.0320 O.2   111  ARG111     -0.2867
     41  CB        55.8270  -22.2900  -86.8090 C.3   111  ARG111      0.0307
     42  CG        55.5620  -23.2460  -87.9510 C.3   111  ARG111      0.0489
     43  CD        56.7930  -24.0540  -88.2880 C.3   111  ARG111      0.2205
     44  NE        56.4510  -25.0940  -89.2470 N.pl3 111  ARG111     -0.0865
     45  CZ        56.7340  -25.0350  -90.5400 C.cat 111  ARG111      0.5346
     46  NH1       57.3940  -23.9900  -91.0250 N.pl3 111  ARG111      0.1354
     47  NH2       56.3720  -26.0270  -91.3400 N.pl3 111  ARG111      0.1354
     48  N         55.7130  -19.3010  -93.1330 N.3   154  SER154     -0.1217
     49  CA        55.5250  -20.5410  -92.3920 C.3   154  SER154      0.1889
     50  C         55.9900  -20.4360  -90.9420 C.2   154  SER154      0.2288
     51  O         55.2290  -20.7270  -90.0110 O.2   154  SER154     -0.2866
     52  CB        56.2870  -21.6700  -93.0830 C.3   154  SER154      0.2089
     53  OG        55.6310  -22.9100  -92.9020 O.3   154  SER154     -0.2183
     54  N         57.6510  -18.8130  -98.1640 N.3   169  THR169     -0.1218
     55  CA        57.5420  -20.0470  -98.9160 C.3   169  THR169      0.1862
     56  C         56.6520  -19.8680 -100.1340 C.2   169  THR169      0.2287
     57  O         56.6370  -18.8160 -100.7570 O.2   169  THR169     -0.2866
     58  CB        56.9730  -21.1810  -98.0510 C.3   169  THR169      0.1770
     59  OG1       56.5860  -22.2680  -98.8900 O.3   169  THR169     -0.2211
     60  CG2       55.7830  -20.7020  -97.2710 C.3   169  THR169      0.0375
     61  N         67.8110  -25.2220 -101.0190 N.3   191  TRP191     -0.1241
     62  CA        66.6720  -24.4890 -101.5620 C.3   191  TRP191      0.1605
     63  C         67.0080  -23.0230 -101.8530 C.2   191  TRP191      0.2264
     64  O         67.7310  -22.3780 -101.0950 O.2   191  TRP191     -0.2867
     65  CB        65.4820  -24.5760 -100.6110 C.3   191  TRP191      0.0550
     66  CG        64.5110  -25.6270 -101.0980 C.ar  191  TRP191      0.0003
     67  CD1       64.6000  -26.9460 -100.8070 C.ar  191  TRP191      0.0946
     68  CD2       63.4460  -25.5260 -102.1070 C.ar  191  TRP191      0.0152
     69  NE1       63.6660  -27.6460 -101.5440 N.ar  191  TRP191     -0.2442
     70  CE2       62.9520  -26.8120 -102.3480 C.ar  191  TRP191      0.0810
     71  CE3       62.8280  -24.5330 -102.7870 C.ar  191  TRP191      0.0012
     72  CZ2       61.9120  -27.0560 -103.2710 C.ar  191  TRP191      0.0191
     73  CZ3       61.8260  -24.7570 -103.7050 C.ar  191  TRP191      0.0001
     74  CH2       61.3620  -26.0250 -103.9970 C.ar  191  TRP191      0.0015
     75  N         64.1860  -21.6570 -103.5220 N.3   193  THR193     -0.1218
     76  CA        62.7580  -21.4410 -103.6950 C.3   193  THR193      0.1862
     77  C         62.0790  -21.3930 -102.3270 C.2   193  THR193      0.2287
     78  O         60.8930  -21.7310 -102.1920 O.2   193  THR193     -0.2866
     79  CB        62.1490  -22.5400 -104.5610 C.3   193  THR193      0.1770
     80  OG1       62.9800  -22.7150 -105.6970 O.3   193  THR193     -0.2211
     81  CG2       60.7740  -22.0880 -105.0330 C.3   193  THR193      0.0375
     82  N         61.9420  -20.7930  -95.7240 N.3   196  TRP196     -0.1241
     83  CA        60.6790  -20.9240  -94.9980 C.3   196  TRP196      0.1605
     84  C         60.8450  -21.2220  -93.5110 C.2   196  TRP196      0.2264
     85  O         59.8970  -21.0850  -92.7320 O.2   196  TRP196     -0.2867
     86  CB        59.7760  -21.9850  -95.6470 C.3   196  TRP196      0.0550
     87  CG        60.3700  -23.3840  -95.7650 C.ar  196  TRP196      0.0003
     88  CD1       61.2040  -23.8470  -96.7520 C.ar  196  TRP196      0.0946
     89  CD2       60.1330  -24.5020  -94.8920 C.ar  196  TRP196      0.0152
     90  NE1       61.5090  -25.1710  -96.5380 N.ar  196  TRP196     -0.2442
     91  CE2       60.8660  -25.5990  -95.4060 C.ar  196  TRP196      0.0810
     92  CE3       59.3760  -24.6830  -93.7250 C.ar  196  TRP196      0.0012
     93  CZ2       60.8630  -26.8580  -94.7920 C.ar  196  TRP196      0.0191
     94  CZ3       59.3730  -25.9330  -93.1160 C.ar  196  TRP196      0.0001
     95  CH2       60.1130  -27.0030  -93.6500 C.ar  196  TRP196      0.0015
     96  N         64.9840  -32.6220 -101.9000 N.3   240  ASP240     -0.1239
     97  CA        64.2440  -31.6230 -101.1130 C.3   240  ASP240      0.1674
     98  C         64.6440  -31.6450  -99.6370 C.2   240  ASP240      0.2266
     99  O         63.7980  -31.5560  -98.7430 O.2   240  ASP240     -0.2867
    100  CB        62.7270  -31.8180 -101.2690 C.3   240  ASP240      0.1410
    101  CG        62.1800  -31.4290 -102.6330 C.2   240  ASP240      0.3668
    102  OD1       62.9210  -30.8130 -103.4340 O.co2 240  ASP240     -0.2456
    103  OD2       61.0250  -31.7420 -102.9140 O.co2 240  ASP240     -0.2456
    104  N         65.9920  -29.5860  -97.4290 N.3   242  GLU242     -0.1245
    105  CA        66.2950  -28.1940  -97.1680 C.3   242  GLU242      0.1567
    106  C         67.1550  -28.0180  -95.9190 C.2   242  GLU242      0.2260
    107  O         67.1250  -28.8600  -95.0560 O.2   242  GLU242     -0.2867
    108  CB        64.9850  -27.4240  -97.0310 C.3   242  GLU242      0.0388
    109  CG        64.3060  -27.0600  -98.3470 C.3   242  GLU242      0.1160
    110  CD        63.0050  -27.8020  -98.5690 C.2   242  GLU242      0.3649
    111  OE1       62.0490  -27.2210  -99.1130 O.co2 242  GLU242     -0.2457
    112  OE2       62.9390  -28.9790  -98.1920 O.co2 242  GLU242     -0.2457
    113  N         67.4190  -31.7820  -93.4550 N.3   284  LYS284     -0.1245
    114  CA        66.5580  -32.9300  -93.2300 C.3   284  LYS284      0.1561
    115  C         67.4070  -34.1810  -93.0670 C.2   284  LYS284      0.2260
    116  O         66.9640  -35.1800  -92.5020 O.2   284  LYS284     -0.2867
    117  CB        65.5840  -33.1220  -94.3870 C.3   284  LYS284      0.0271
    118  CG        64.5910  -32.0150  -94.5450 C.3   284  LYS284      0.0035
    119  CD        63.4050  -32.5180  -95.3090 C.3   284  LYS284      0.0206
    120  CE        62.4490  -31.4080  -95.6900 C.3   284  LYS284      0.1093
    121  NZ        61.4780  -31.8940  -96.7220 N.3   284  LYS284     -0.1314
    122  N         62.0570  -37.6270  -97.6210 N.3   340  PHE340     -0.1227
    123  CA        61.8110  -36.2270  -97.9300 C.3   340  PHE340      0.1736
    124  C         61.3170  -35.4970  -96.6930 C.2   340  PHE340      0.2595
    125  O         61.2220  -34.2670  -96.6780 O.2   340  PHE340     -0.2718
    126  CB        60.7910  -36.0960  -99.0670 C.3   340  PHE340      0.0547
    127  CG        61.2870  -36.6050 -100.4010 C.ar  340  PHE340     -0.0202
    128  CD1       62.6470  -36.7890 -100.6340 C.ar  340  PHE340     -0.0042
    129  CD2       60.3890  -36.8960 -101.4250 C.ar  340  PHE340     -0.0042
    130  CE1       63.0990  -37.2560 -101.8620 C.ar  340  PHE340     -0.0003
    131  CE2       60.8370  -37.3600 -102.6550 C.ar  340  PHE340     -0.0003
    132  CZ        62.1910  -37.5400 -102.8730 C.ar  340  PHE340     -0.0000
    133  N         60.9780  -36.2690  -95.6660 N.am  341  LEU341     -0.1980
    134  CA        60.6060  -35.7170  -94.3680 C.3   341  LEU341      0.1596
    135  C         61.7430  -36.0400  -93.4300 C.2   341  LEU341      0.2287
    136  O         61.6950  -35.7870  -92.2240 O.2   341  LEU341     -0.2864
    137  CB        59.3090  -36.3420  -93.8750 C.3   341  LEU341      0.0297
    138  CG        58.1230  -36.1510  -94.8210 C.3   341  LEU341      0.0022
    139  CD1       56.9930  -37.0260  -94.3430 C.3   341  LEU341      0.0001
    140  CD2       57.6930  -34.6900  -94.8900 C.3   341  LEU341      0.0001
    141  N         63.2090  -32.5970  -89.6190 N.3   345  ASP345     -0.1225
    142  CA        62.3680  -31.6820  -90.3950 C.3   345  ASP345      0.1805
    143  C         62.1540  -30.4420  -89.5430 C.2   345  ASP345      0.2597
    144  O         62.8720  -30.2600  -88.5840 O.2   345  ASP345     -0.2718
    145  CB        61.0250  -32.3350  -90.7480 C.3   345  ASP345      0.1424
    146  CG        60.3990  -31.7490  -92.0040 C.2   345  ASP345      0.3668
    147  OD1       60.2930  -30.5030  -92.1020 O.co2 345  ASP345     -0.2456
    148  OD2       60.0220  -32.5380  -92.8990 O.co2 345  ASP345     -0.2456
    149  N         61.1750  -29.6000  -89.8730 N.am  346  TRP346     -0.1976
    150  CA        60.8930  -28.4100  -89.0600 C.3   346  TRP346      0.1640
    151  C         60.7710  -28.6330  -87.5280 C.2   346  TRP346      0.2290
    152  O         61.2190  -27.7650  -86.7740 O.2   346  TRP346     -0.2864
    153  CB        59.6960  -27.5940  -89.5960 C.3   346  TRP346      0.0576
    154  CG        58.3920  -28.2520  -89.3350 C.ar  346  TRP346      0.0006
    155  CD1       57.7060  -29.0650  -90.1870 C.ar  346  TRP346      0.0946
    156  CD2       57.6290  -28.2070  -88.1210 C.ar  346  TRP346      0.0152
    157  NE1       56.5590  -29.5220  -89.5840 N.ar  346  TRP346     -0.2442
    158  CE2       56.4920  -29.0180  -88.3130 C.ar  346  TRP346      0.0810
    159  CE3       57.8020  -27.5680  -86.8900 C.ar  346  TRP346      0.0012
    160  CZ2       55.5230  -29.1980  -87.3240 C.ar  346  TRP346      0.0191
    161  CZ3       56.8490  -27.7510  -85.9070 C.ar  346  TRP346      0.0001
    162  CH2       55.7210  -28.5560  -86.1300 C.ar  346  TRP346      0.0015
    163  N         58.0330  -36.6130  -85.2220 N.3   421  TYR421     -0.1241
    164  CA        57.6500  -35.4500  -86.0120 C.3   421  TYR421      0.1605
    165  C         57.1080  -34.3410  -85.1270 C.2   421  TYR421      0.2264
    166  O         56.1930  -33.6010  -85.5000 O.2   421  TYR421     -0.2867
    167  CB        56.6460  -35.8280  -87.1100 C.3   421  TYR421      0.0534
    168  CG        56.7220  -34.9340  -88.3220 C.ar  421  TYR421     -0.0201
    169  CD1       55.7490  -33.9760  -88.5580 C.ar  421  TYR421     -0.0009
    170  CD2       57.7830  -35.0400  -89.2310 C.ar  421  TYR421     -0.0009
    171  CE1       55.8170  -33.1530  -89.6600 C.ar  421  TYR421      0.0417
    172  CE2       57.8550  -34.2150  -90.3500 C.ar  421  TYR421      0.0417
    173  CZ        56.8670  -33.2750  -90.5540 C.ar  421  TYR421      0.1957
    174  OH        56.9080  -32.4390  -91.6460 O.3   421  TYR421     -0.2866
    175  N         52.2270  -34.5260  -91.9990 N.3   485  TYR485     -0.1241
    176  CA        53.0300  -35.2860  -92.9590 C.3   485  TYR485      0.1605
    177  C         53.7220  -36.4670  -92.2690 C.2   485  TYR485      0.2264
    178  O         53.8180  -37.5640  -92.8380 O.2   485  TYR485     -0.2867
    179  CB        54.0340  -34.3910  -93.6850 C.3   485  TYR485      0.0534
    180  CG        53.3540  -33.3550  -94.5540 C.ar  485  TYR485     -0.0201
    181  CD1       52.7440  -33.7160  -95.7490 C.ar  485  TYR485     -0.0009
    182  CD2       53.3080  -32.0190  -94.1730 C.ar  485  TYR485     -0.0009
    183  CE1       52.1060  -32.7630  -96.5480 C.ar  485  TYR485      0.0417
    184  CE2       52.6750  -31.0600  -94.9580 C.ar  485  TYR485      0.0417
    185  CZ        52.0740  -31.4370  -96.1430 C.ar  485  TYR485      0.1957
    186  OH        51.4420  -30.4910  -96.9240 O.3   485  TYR485     -0.2866
@<TRIPOS>BOND
     1    80    79    1
     2    81    79    1
     3    79    76    1
     4    74    73   ar
     5    74    72   ar
     6    73    71   ar
     7    76    75    1
     8    76    77    1
     9   102   101   ar
    10    72    70   ar
    11   103   101   ar
    12   132   131   ar
    13   132   130   ar
    14    71    68   ar
    15   131   129   ar
    16   101   100    1
    17    70    68   ar
    18    70    69   ar
    19    77    78    2
    20    68    66   ar
    21    96    97    1
    22   130   128   ar
    23    63    62    1
    24    63    64    2
    25    62    61    1
    26    62    65    1
    27    69    67   ar
    28   129   127   ar
    29   100    97    1
    30    97    98    1
    31    66    67   ar
    32    66    65    1
    33    57    56    2
    34   128   127   ar
    35   127   126    1
    36    56    55    1
    37    28    26   ar
    38    28    29   ar
    39    98    99    2
    40    26    24   ar
    41    29    27   ar
    42   111   110   ar
    43   126   123    1
    44    55    54    1
    45    55    58    1
    46    59    58    1
    47   110   109    1
    48   110   112   ar
    49   109   108    1
    50    24    23    1
    51    24    25   ar
    52    19    20    1
    53    58    60    1
    54    27    25   ar
    55   123   122    1
    56   123   124    1
    57    23    20    1
    58   104   105    1
    59   105   108    1
    60   105   106    1
    61    20    21    1
    62   186   185    1
    63    88    90   ar
    64    88    87   ar
    65   121   120    1
    66   124   125    2
    67   124   133   am
    68   183   185   ar
    69   183   181   ar
    70    90    91   ar
    71   185   184   ar
    72    21    22    2
    73   106   107    2
    74    87    86    1
    75    87    89   ar
    76   181   180   ar
    77    82    83    1
    78   120   119    1
    79   133   134    1
    80    86    83    1
    81    91    89   ar
    82    91    93   ar
    83   119   118    1
    84    83    84    1
    85   184   182   ar
    86    89    92   ar
    87   140   138    1
    88   138   139    1
    89   138   137    1
    90    93    95   ar
    91   180   182   ar
    92   180   179    1
    93   118   117    1
    94   117   114    1
    95   134   137    1
    96   134   135    1
    97     9     8    1
    98    92    94   ar
    99   179   176    1
   100    95    94   ar
   101    84    85    2
   102   113   114    1
   103   135   136    2
   104   114   115    1
   105    48    49    1
   106    52    53    1
   107    52    49    1
   108   115   116    2
   109   176   177    1
   110   176   175    1
   111   148   146   ar
   112     8     7    1
   113   178   177    2
   114    36    30    1
   115    36    35    1
   116    49    50    1
   117     7     6    1
   118   147   146   ar
   119   146   145    1
   120    30    31    1
   121   174   173    1
   122    35    34    1
   123    47    45    1
   124     6     5    1
   125    33    32    2
   126    46    45    1
   127    50    51    2
   128   145   142    1
   129   173   172   ar
   130   173   171   ar
   131    45    44    2
   132   142   141    1
   133   142   143    1
   134   172   170   ar
   135    31    32    1
   136    31    34    1
   137   155   157   ar
   138   155   154   ar
   139    18    16   am
   140     5     2    1
   141   149   143   am
   142   149   150    1
   143    17    16    2
   144     1     2    1
   145   171   169   ar
   146   153   154    1
   147   153   150    1
   148   157   158   ar
   149   143   144    2
   150    16    15    1
   151   154   156   ar
   152    44    43    1
   153   170   168   ar
   154     2     3    1
   155   150   151    1
   156   169   168   ar
   157   168   167    1
   158   158   156   ar
   159   158   160   ar
   160    43    42    1
   161     4     3    2
   162    15    14    1
   163   156   159   ar
   164    42    41    1
   165   151   152    2
   166    37    38    1
   167   160   162   ar
   168    14    11    1
   169   167   164    1
   170   159   161   ar
   171    41    38    1
   172    38    39    1
   173   162   161   ar
   174   164   163    1
   175   164   165    1
   176    10    11    1
   177    11    12    1
   178   166   165    2
   179    39    40    2
   180    13    12    2
