@<TRIPOS>MOLECULE
tmp/4mh7A00.pdb
 180 173 0 0 0
SMALL
GASTEIGER

@<TRIPOS>ATOM
      1  N         11.1460   17.5710    9.0740 N.3    17  LEU17      -0.1231
      2  CA        12.3830   17.0120    9.6080 C.3    17  LEU17       0.1693
      3  C         12.1790   15.6380   10.2320 C.2    17  LEU17       0.2593
      4  O         13.1260   14.8650   10.3700 O.2    17  LEU17      -0.2718
      5  CB        12.9740   17.9540   10.6600 C.3    17  LEU17       0.0284
      6  CG        13.3680   19.3560   10.1950 C.3    17  LEU17       0.0019
      7  CD1       13.7770   20.2080   11.3850 C.3    17  LEU17       0.0001
      8  CD2       14.4930   19.2860    9.1750 C.3    17  LEU17       0.0001
      9  N         10.9400   15.3350   10.6020 N.am   18  GLY18      -0.1942
     10  CA        10.6400   14.0800   11.2620 C.3    18  GLY18       0.2014
     11  C          9.2280   14.0360   11.8090 C.2    18  GLY18       0.2639
     12  O          8.5770   15.0700   11.9620 O.2    18  GLY18      -0.2714
     13  N          8.7540   12.8290   12.0980 N.am   19  GLU19      -0.1963
     14  CA         7.4200   12.6270   12.6480 C.3    19  GLU19       0.1733
     15  C          7.5570   12.4660   14.1580 C.2    19  GLU19       0.2616
     16  O          8.5420   11.9040   14.6380 O.2    19  GLU19      -0.2715
     17  CB         6.7540   11.3950   12.0320 C.3    19  GLU19       0.0429
     18  CG         5.2490   11.3190   12.2500 C.3    19  GLU19       0.1163
     19  CD         4.4880   12.4040   11.5070 C.2    19  GLU19       0.3649
     20  OE1        3.3780   12.7610   11.9540 O.co2  19  GLU19      -0.2457
     21  OE2        4.9930   12.8920   10.4730 O.co2  19  GLU19      -0.2457
     22  N          6.5800   12.9700   14.9070 N.am   20  GLY20      -0.1955
     23  CA         6.6100   12.8520   16.3530 C.3    20  GLY20       0.1869
     24  C          5.2430   12.8650   17.0090 C.2    20  GLY20       0.2309
     25  O          4.5730   13.8950   17.0550 O.2    20  GLY20      -0.2863
     26  N          7.1050   17.1750   12.5940 N.3    25  VAL25      -0.1245
     27  CA         8.0230   18.2460   12.9690 C.3    25  VAL25       0.1561
     28  C          8.6710   18.8090   11.7110 C.2    25  VAL25       0.2260
     29  O          9.1100   18.0620   10.8380 O.2    25  VAL25      -0.2867
     30  CB         9.1110   17.7530   13.9430 C.3    25  VAL25       0.0252
     31  CG1       10.0120   18.9070   14.3710 C.3    25  VAL25       0.0019
     32  CG2        8.4760   17.0910   15.1570 C.3    25  VAL25       0.0019
     33  N         12.6860   24.6360   14.8930 N.3    41  ALA41      -0.1245
     34  CA        11.9100   23.4290   14.6290 C.3    41  ALA41       0.1562
     35  C         10.4940   23.6180   15.1600 C.2    41  ALA41       0.2260
     36  O         10.3030   24.1290   16.2650 O.2    41  ALA41      -0.2867
     37  CB        12.5650   22.2230   15.2670 C.3    41  ALA41       0.0290
     38  N          6.7930   21.8820   15.9710 N.3    43  LYS43      -0.1245
     39  CA         5.8940   20.7490   16.1720 C.3    43  LYS43       0.1561
     40  C          4.4690   21.1340   15.7880 C.2    43  LYS43       0.2260
     41  O          3.8850   22.0330   16.3870 O.2    43  LYS43      -0.2867
     42  CB         5.9120   20.2770   17.6290 C.3    43  LYS43       0.0271
     43  CG         7.2040   19.6300   18.0940 C.3    43  LYS43       0.0035
     44  CD         7.0980   19.2460   19.5640 C.3    43  LYS43       0.0206
     45  CE         8.3260   18.4950   20.0540 C.3    43  LYS43       0.1093
     46  NZ         8.4760   17.1730   19.3820 N.3    43  LYS43      -0.1314
     47  N         16.0470   21.9200   26.6800 N.3    57  ILE57      -0.1245
     48  CA        15.6690   22.6510   25.4790 C.3    57  ILE57       0.1561
     49  C         14.6680   23.7410   25.8450 C.2    57  ILE57       0.2260
     50  O         13.7160   23.5080   26.5900 O.2    57  ILE57      -0.2867
     51  CB        15.0890   21.7090   24.3980 C.3    57  ILE57       0.0252
     52  CG1       14.9410   22.4610   23.0720 C.3    57  ILE57       0.0019
     53  CG2       13.7480   21.1180   24.8370 C.3    57  ILE57       0.0019
     54  CD1       14.6740   21.5600   21.8840 C.3    57  ILE57       0.0001
     55  N         10.5550   25.4370   18.6500 N.3    78  LEU78      -0.1231
     56  CA        11.7260   24.9720   19.3890 C.3    78  LEU78       0.1678
     57  C         12.9930   25.2670   18.5870 C.2    78  LEU78       0.2434
     58  O         12.9320   25.4280   17.3690 O.2    78  LEU78      -0.2733
     59  CB        11.6130   23.4730   19.6840 C.3    78  LEU78       0.0284
     60  CG        10.3410   23.0230   20.4090 C.3    78  LEU78       0.0019
     61  CD1       10.2300   21.5080   20.3930 C.3    78  LEU78       0.0001
     62  CD2       10.3100   23.5460   21.8380 C.3    78  LEU78       0.0001
     63  N         14.1490   25.3440   19.2650 N.am   79  PRO79      -0.2718
     64  CA        15.4120   25.6180   18.5660 C.3    79  PRO79       0.1535
     65  C         15.8290   24.5130   17.5940 C.2    79  PRO79       0.2599
     66  O         15.4980   23.3450   17.8010 O.2    79  PRO79      -0.2715
     67  CB        16.4270   25.7420   19.7090 C.3    79  PRO79       0.0310
     68  CG        15.8080   25.0280   20.8570 C.3    79  PRO79       0.0237
     69  CD        14.3390   25.2410   20.7220 C.3    79  PRO79       0.0939
     70  N         16.5410   24.8970   16.5380 N.am   80  PHE80      -0.1960
     71  CA        17.0160   23.9560   15.5290 C.3    80  PHE80       0.1771
     72  C         18.4050   23.4320   15.8840 C.2    80  PHE80       0.2619
     73  O         19.3750   24.1890   15.9170 O.2    80  PHE80      -0.2715
     74  CB        17.0370   24.6220   14.1510 C.3    80  PHE80       0.0574
     75  CG        17.4890   23.7140   13.0410 C.ar   80  PHE80      -0.0200
     76  CD1       18.8300   23.6190   12.7050 C.ar   80  PHE80      -0.0042
     77  CD2       16.5710   22.9630   12.3260 C.ar   80  PHE80      -0.0042
     78  CE1       19.2470   22.7890   11.6830 C.ar   80  PHE80      -0.0003
     79  CE2       16.9810   22.1320   11.3020 C.ar   80  PHE80      -0.0003
     80  CZ        18.3220   22.0450   10.9790 C.ar   80  PHE80      -0.0000
     81  N         18.4840   22.1280   16.1310 N.am   81  MET81      -0.1963
     82  CA        19.7290   21.4600   16.5000 C.3    81  MET81       0.1736
     83  C         20.3280   20.7290   15.3000 C.2    81  MET81       0.2616
     84  O         19.9420   19.5960   15.0160 O.2    81  MET81      -0.2715
     85  CB        19.4670   20.4660   17.6320 C.3    81  MET81       0.0427
     86  CG        18.7330   21.0500   18.8250 C.3    81  MET81       0.0599
     87  SD        19.7650   22.1600   19.7870 S.3    81  MET81      -0.1393
     88  CE        18.6570   22.5470   21.1380 C.3    81  MET81       0.0692
     89  N         21.2780   21.3570   14.6110 N.am   82  LYS82      -0.1963
     90  CA        21.7760   20.8090   13.3470 C.3    82  LYS82       0.1728
     91  C         22.5240   19.4850   13.5190 C.2    82  LYS82       0.2616
     92  O         22.6090   18.6970   12.5790 O.2    82  LYS82      -0.2715
     93  CB        22.6860   21.8180   12.6370 C.3    82  LYS82       0.0311
     94  CG        24.0270   22.0730   13.3080 C.3    82  LYS82       0.0038
     95  CD        24.8610   23.0340   12.4710 C.3    82  LYS82       0.0206
     96  CE        26.2720   23.1890   13.0120 C.3    82  LYS82       0.1093
     97  NZ        27.1240   24.0050   12.1000 N.3    82  LYS82      -0.1314
     98  N         23.0560   19.2390   14.7130 N.am   83  TYR83      -0.1960
     99  CA        23.7720   17.9930   14.9850 C.3    83  TYR83       0.1771
    100  C         22.8070   16.8560   15.3230 C.2    83  TYR83       0.2620
    101  O         23.2000   15.6900   15.3620 O.2    83  TYR83      -0.2715
    102  CB        24.7850   18.1940   16.1170 C.3    83  TYR83       0.0574
    103  CG        25.9760   19.0570   15.7340 C.ar   83  TYR83      -0.0198
    104  CD1       26.4330   19.1090   14.4220 C.ar   83  TYR83      -0.0009
    105  CD2       26.6400   19.8220   16.6850 C.ar   83  TYR83      -0.0009
    106  CE1       27.5140   19.8940   14.0690 C.ar   83  TYR83       0.0417
    107  CE2       27.7260   20.6120   16.3390 C.ar   83  TYR83       0.0417
    108  CZ        28.1560   20.6430   15.0280 C.ar   83  TYR83       0.1957
    109  OH        29.2320   21.4220   14.6660 O.3    83  TYR83      -0.2866
    110  N         21.5460   17.1990   15.5650 N.am   84  GLY84      -0.1940
    111  CA        20.4960   16.2050   15.6970 C.3    84  GLY84       0.2014
    112  C         20.4660   15.5030   17.0390 C.2    84  GLY84       0.2638
    113  O         21.1100   15.9330   17.9940 O.2    84  GLY84      -0.2714
    114  N         19.7080   14.4130   17.1060 N.am   85  ASP85      -0.1971
    115  CA        19.5440   13.6720   18.3480 C.3    85  ASP85       0.1709
    116  C         20.8130   12.8910   18.6760 C.2    85  ASP85       0.2293
    117  O         21.5870   12.5440   17.7850 O.2    85  ASP85      -0.2864
    118  CB        18.3500   12.7240   18.2520 C.3    85  ASP85       0.1436
    119  CG        18.6040   11.5630   17.3160 C.2    85  ASP85       0.3671
    120  OD1       19.1170   10.5270   17.7870 O.co2  85  ASP85      -0.2456
    121  OD2       18.2930   11.6830   16.1130 O.co2  85  ASP85      -0.2456
    122  N         21.2210    9.0230   17.2860 N.3    88  THR88      -0.1218
    123  CA        21.6840    8.9370   15.9080 C.3    88  THR88       0.1862
    124  C         23.1550    9.3240   15.8010 C.2    88  THR88       0.2287
    125  O         23.9020    8.7440   15.0160 O.2    88  THR88      -0.2866
    126  CB        20.8530    9.8430   14.9810 C.3    88  THR88       0.1770
    127  OG1       19.4610    9.5400   15.1330 O.3    88  THR88      -0.2211
    128  CG2       21.2580    9.6440   13.5250 C.3    88  THR88       0.0375
    129  N         26.3640    7.1680   14.1160 N.3    92  TYR92      -0.1241
    130  CA        27.1720    7.7280   13.0380 C.3    92  TYR92       0.1605
    131  C         28.6590    7.6500   13.3700 C.2    92  TYR92       0.2264
    132  O         29.4870    7.4060   12.4940 O.2    92  TYR92      -0.2867
    133  CB        26.7900    9.1890   12.7720 C.3    92  TYR92       0.0534
    134  CG        25.4750    9.4020   12.0470 C.ar   92  TYR92      -0.0201
    135  CD1       24.8050    8.3510   11.4320 C.ar   92  TYR92      -0.0009
    136  CD2       24.9140   10.6710   11.9630 C.ar   92  TYR92      -0.0009
    137  CE1       23.6090    8.5560   10.7690 C.ar   92  TYR92       0.0417
    138  CE2       23.7200   10.8850   11.3000 C.ar   92  TYR92       0.0417
    139  CZ        23.0720    9.8260   10.7050 C.ar   92  TYR92       0.1957
    140  OH        21.8820   10.0380   10.0450 O.3    92  TYR92      -0.2866
    141  N         17.3280    8.9760   22.1020 N.3   134  ARG134     -0.1231
    142  CA        16.6530    9.5250   20.9310 C.3   134  ARG134      0.1694
    143  C         15.9950   10.8650   21.2500 C.2   134  ARG134      0.2592
    144  O         15.7590   11.6740   20.3540 O.2   134  ARG134     -0.2718
    145  CB        15.6010    8.5430   20.4090 C.3   134  ARG134      0.0321
    146  CG        14.4730    8.2740   21.3930 C.3   134  ARG134      0.0489
    147  CD        13.5030    7.2250   20.8790 C.3   134  ARG134      0.2205
    148  NE        12.5510    6.8280   21.9150 N.pl3 134  ARG134     -0.0865
    149  CZ        12.7990    5.9210   22.8570 C.cat 134  ARG134      0.5346
    150  NH1       13.9740    5.3070   22.9040 N.pl3 134  ARG134      0.1354
    151  NH2       11.8720    5.6270   23.7580 N.pl3 134  ARG134      0.1354
    152  N         15.7010   11.0920   22.5290 N.am  135  ASN135     -0.1974
    153  CA        15.0400   12.3200   22.9670 C.3   135  ASN135      0.1688
    154  C         16.0090   13.3290   23.5830 C.2   135  ASN135      0.2292
    155  O         15.5880   14.2950   24.2200 O.2   135  ASN135     -0.2864
    156  CB        13.9260   11.9880   23.9640 C.3   135  ASN135      0.1181
    157  CG        12.7460   11.2920   23.3070 C.2   135  ASN135      0.2629
    158  OD1       12.5160   11.4340   22.1050 O.2   135  ASN135     -0.2716
    159  ND2       11.9920   10.5350   24.0940 N.am  135  ASN135     -0.0877
    160  N         18.9890   16.0240   22.5120 N.3   137  MET137     -0.1245
    161  CA        19.4500   16.7540   21.3290 C.3   137  MET137      0.1570
    162  C         20.8400   17.3560   21.5100 C.2   137  MET137      0.2261
    163  O         21.2160   17.7560   22.6120 O.2   137  MET137     -0.2867
    164  CB        18.4630   17.8710   20.9790 C.3   137  MET137      0.0387
    165  CG        17.0610   17.3910   20.6560 C.3   137  MET137      0.0595
    166  SD        17.0290   16.2390   19.2700 S.3   137  MET137     -0.1393
    167  CE        17.5870   17.2870   17.9290 C.3   137  MET137      0.0692
    168  N         14.8670   16.7110   25.8910 N.3   147  ALA147     -0.1231
    169  CA        13.6770   17.2060   25.2110 C.3   147  ALA147      0.1694
    170  C         12.5800   16.1460   25.1690 C.2   147  ALA147      0.2592
    171  O         12.7310   15.0540   25.7180 O.2   147  ALA147     -0.2718
    172  CB        14.0290   17.6560   23.8020 C.3   147  ALA147      0.0304
    173  N         11.4760   16.4930   24.5170 N.am  148  ASP148     -0.1974
    174  CA        10.3750   15.5670   24.2730 C.3   148  ASP148      0.1709
    175  C          9.6650   15.1480   25.5610 C.2   148  ASP148      0.2293
    176  O          9.3870   13.9680   25.7830 O.2   148  ASP148     -0.2864
    177  CB        10.8920   14.3340   23.5240 C.3   148  ASP148      0.1436
    178  CG         9.8400   13.7180   22.6220 C.2   148  ASP148      0.3671
    179  OD1        8.6410   13.7940   22.9650 O.co2 148  ASP148     -0.2456
    180  OD2       10.2130   13.1650   21.5650 O.co2 148  ASP148     -0.2456
@<TRIPOS>BOND
     1     1     2    1
     2     8     6    1
     3     2     3    1
     4     2     5    1
     5   140   139    1
     6     6     5    1
     7     6     7    1
     8     3     4    2
     9     3     9   am
    10    21    19   ar
    11     9    10    1
    12   139   137   ar
    13   139   138   ar
    14   137   135   ar
    15    29    28    2
    16    80    79   ar
    17    80    78   ar
    18    10    11    1
    19   138   136   ar
    20    79    77   ar
    21   135   134   ar
    22    19    20   ar
    23    19    18    1
    24    78    76   ar
    25    28    27    1
    26    11    12    2
    27    11    13   am
    28   136   134   ar
    29    17    18    1
    30    17    14    1
    31   134   133    1
    32    13    14    1
    33    97    96    1
    34    77    75   ar
    35    95    96    1
    36    95    94    1
    37   132   131    2
    38    92    91    2
    39    26    27    1
    40    93    94    1
    41    93    90    1
    42    14    15    1
    43    76    75   ar
    44   133   130    1
    45    27    30    1
    46   130   131    1
    47   130   129    1
    48    75    74    1
    49    90    91    1
    50    90    89    1
    51    91    98   am
    52   128   126    1
    53    30    31    1
    54    30    32    1
    55   106   104   ar
    56   106   108   ar
    57    74    71    1
    58    15    16    2
    59    15    22   am
    60   104   103   ar
    61    89    83   am
    62    34    33    1
    63    34    35    1
    64    34    37    1
    65   109   108    1
    66    98    99    1
    67    22    23    1
    68   126   127    1
    69   126   123    1
    70    99   100    1
    71    99   102    1
    72   125   124    2
    73    84    83    2
    74   108   107   ar
    75    35    36    2
    76    83    82    1
    77   100   101    2
    78   100   110   am
    79    71    72    1
    80    71    70    1
    81   110   111    1
    82   111   112    1
    83   103   102    1
    84   103   105   ar
    85    40    39    1
    86    40    41    2
    87   124   123    1
    88    72    73    2
    89    72    81   am
    90   123   122    1
    91    38    39    1
    92   121   119   ar
    93    81    82    1
    94    39    42    1
    95   107   105   ar
    96    23    24    1
    97    82    85    1
    98    70    65   am
    99    24    25    2
   100   112   114   am
   101   112   113    2
   102   114   115    1
   103   119   120   ar
   104   119   118    1
   105    58    57    2
   106    65    66    2
   107    65    64    1
   108    42    43    1
   109    85    86    1
   110   117   116    2
   111   167   166    1
   112    43    44    1
   113   118   115    1
   114   115   116    1
   115    64    63    1
   116    64    67    1
   117    57    63   am
   118    57    56    1
   119    55    56    1
   120    86    87    1
   121    63    69    1
   122   166   165    1
   123    46    45    1
   124    56    59    1
   125    44    45    1
   126    59    60    1
   127    67    68    1
   128    87    88    1
   129   144   143    2
   130    61    60    1
   131    60    62    1
   132   145   142    1
   133   145   146    1
   134   165   164    1
   135    69    68    1
   136   147   146    1
   137   147   148    1
   138   142   143    1
   139   142   141    1
   140   164   161    1
   141   143   152   am
   142   161   162    1
   143   161   160    1
   144   162   163    2
   145   180   178   ar
   146    54    52    1
   147   148   149    2
   148   158   157    2
   149   152   153    1
   150   178   179   ar
   151   178   177    1
   152   149   150    1
   153   149   151    1
   154   153   154    1
   155   153   156    1
   156    52    51    1
   157   157   156    1
   158   157   159   am
   159   177   174    1
   160   154   155    2
   161   172   169    1
   162   174   173    1
   163   174   175    1
   164    51    53    1
   165    51    48    1
   166   173   170   am
   167   170   169    1
   168   170   171    2
   169   169   168    1
   170    48    49    1
   171    48    47    1
   172   175   176    2
   173    49    50    2
