@<TRIPOS>MOLECULE
tmp/4mhaB00.pdb
 188 179 0 0 0
SMALL
GASTEIGER

@<TRIPOS>ATOM
      1  N          8.0310   46.1500   29.0950 N.3    15  LYS15      -0.1245
      2  CA         7.9880   44.7020   29.2770 C.3    15  LYS15       0.1561
      3  C          8.4420   43.9360   28.0370 C.2    15  LYS15       0.2260
      4  O          8.6820   44.5210   26.9800 O.2    15  LYS15      -0.2867
      5  CB         6.5720   44.2600   29.6560 C.3    15  LYS15       0.0271
      6  CG         6.2080   44.5020   31.1100 C.3    15  LYS15       0.0035
      7  CD         4.7940   44.0250   31.4040 C.3    15  LYS15       0.0206
      8  CE         4.5220   43.9630   32.8980 C.3    15  LYS15       0.1093
      9  NZ         4.7280   45.2770   33.5640 N.3    15  LYS15      -0.1314
     10  N          7.5400   41.3010   25.1330 N.3    17  LEU17      -0.1231
     11  CA         6.3800   40.7980   24.4040 C.3    17  LEU17       0.1693
     12  C          6.6140   39.3730   23.9080 C.2    17  LEU17       0.2593
     13  O          5.6990   38.5500   23.9050 O.2    17  LEU17      -0.2718
     14  CB         6.0500   41.7160   23.2240 C.3    17  LEU17       0.0284
     15  CG         5.6830   43.1600   23.5740 C.3    17  LEU17       0.0019
     16  CD1        5.4850   43.9770   22.3070 C.3    17  LEU17       0.0001
     17  CD2        4.4330   43.2110   24.4420 C.3    17  LEU17       0.0001
     18  N          7.8430   39.0890   23.4890 N.am   18  GLY18      -0.1942
     19  CA         8.1950   37.7670   23.0020 C.3    18  GLY18       0.2014
     20  C          9.5670   37.7340   22.3560 C.2    18  GLY18       0.2639
     21  O         10.2160   38.7700   22.2070 O.2    18  GLY18      -0.2714
     22  N         10.0060   36.5380   21.9720 N.am   19  GLU19      -0.1963
     23  CA        11.3060   36.3550   21.3310 C.3    19  GLU19       0.1733
     24  C         11.1920   36.4500   19.8130 C.2    19  GLU19       0.2616
     25  O         10.3000   35.8520   19.2100 O.2    19  GLU19      -0.2715
     26  CB        11.9130   35.0070   21.7290 C.3    19  GLU19       0.0429
     27  CG        12.7740   35.0620   22.9820 C.3    19  GLU19       0.1163
     28  CD        12.0180   35.5680   24.1960 C.2    19  GLU19       0.3649
     29  OE1       12.6750   35.9960   25.1690 O.co2  19  GLU19      -0.2457
     30  OE2       10.7700   35.5340   24.1810 O.co2  19  GLU19      -0.2457
     31  N         12.1070   37.2040   19.2080 N.am   20  GLY20      -0.1955
     32  CA        12.1340   37.3970   17.7680 C.3    20  GLY20       0.1869
     33  C         13.4440   36.9310   17.1580 C.2    20  GLY20       0.2309
     34  O         14.1770   37.7240   16.5650 O.2    20  GLY20      -0.2863
     35  N         11.4930   40.8920   21.6200 N.3    25  VAL25      -0.1245
     36  CA        10.6890   42.0570   21.2700 C.3    25  VAL25       0.1561
     37  C         10.1270   42.6990   22.5350 C.2    25  VAL25       0.2260
     38  O          9.4430   42.0420   23.3210 O.2    25  VAL25      -0.2867
     39  CB         9.5310   41.6840   20.3240 C.3    25  VAL25       0.0252
     40  CG1        8.7740   42.9320   19.8840 C.3    25  VAL25       0.0019
     41  CG2       10.0550   40.9260   19.1110 C.3    25  VAL25       0.0019
     42  N          8.0140   46.0260   24.3910 N.3    27  GLU27      -0.1245
     43  CA         7.0610   47.1130   24.2050 C.3    27  GLU27       0.1567
     44  C          7.7240   48.4470   24.5240 C.2    27  GLU27       0.2260
     45  O          8.8570   48.4850   25.0060 O.2    27  GLU27      -0.2867
     46  CB         5.8260   46.9100   25.0870 C.3    27  GLU27       0.0388
     47  CG         6.1190   46.8980   26.5840 C.3    27  GLU27       0.1160
     48  CD         4.8610   46.8000   27.4270 C.2    27  GLU27       0.3649
     49  OE1        3.7900   46.4800   26.8680 O.co2  27  GLU27      -0.2457
     50  OE2        4.9410   47.0480   28.6490 O.co2  27  GLU27      -0.2457
     51  N          2.0190   54.0350   21.5160 N.3    39  LYS39      -0.1245
     52  CA         2.4110   52.6840   21.8980 C.3    39  LYS39       0.1561
     53  C          3.0450   51.9770   20.7060 C.2    39  LYS39       0.2260
     54  O          2.4610   51.9330   19.6220 O.2    39  LYS39      -0.2867
     55  CB         1.2020   51.8940   22.4070 C.3    39  LYS39       0.0271
     56  CG         1.5500   50.5510   23.0320 C.3    39  LYS39       0.0035
     57  CD         2.2240   50.7220   24.3840 C.3    39  LYS39       0.0206
     58  CE         2.6150   49.3830   24.9850 C.3    39  LYS39       0.1093
     59  NZ         3.1190   49.5290   26.3780 N.3    39  LYS39      -0.1314
     60  N          6.2130   48.7570   19.3420 N.3    41  ALA41      -0.1245
     61  CA         6.8860   47.4910   19.6090 C.3    41  ALA41       0.1562
     62  C          8.3260   47.5560   19.1140 C.2    41  ALA41       0.2260
     63  O          8.5750   47.7970   17.9320 O.2    41  ALA41      -0.2867
     64  CB         6.1450   46.3440   18.9470 C.3    41  ALA41       0.0290
     65  N         11.8000   45.8440   18.3200 N.3    43  LYS43      -0.1245
     66  CA        12.5500   44.6290   18.0150 C.3    43  LYS43       0.1561
     67  C         14.0460   44.9230   18.0040 C.2    43  LYS43       0.2260
     68  O         14.5020   45.8300   17.3090 O.2    43  LYS43      -0.2867
     69  CB        12.1150   44.0480   16.6670 C.3    43  LYS43       0.0271
     70  CG        13.0190   42.9350   16.1500 C.3    43  LYS43       0.0035
     71  CD        12.4410   42.2690   14.9130 C.3    43  LYS43       0.0206
     72  CE        13.4440   41.3200   14.2750 C.3    43  LYS43       0.1093
     73  NZ        13.9330   40.2880   15.2300 N.3    43  LYS43      -0.1314
     74  N          3.0770   45.8670    7.4430 N.3    54  ILE54      -0.1245
     75  CA         3.4740   46.5540    8.6670 C.3    54  ILE54       0.1561
     76  C          4.3850   47.7390    8.3590 C.2    54  ILE54       0.2260
     77  O          5.2270   47.6730    7.4620 O.2    54  ILE54      -0.2867
     78  CB         4.1860   45.5950    9.6450 C.3    54  ILE54       0.0252
     79  CG1        4.4650   46.2990   10.9750 C.3    54  ILE54       0.0019
     80  CG2        5.4790   45.0630    9.0330 C.3    54  ILE54       0.0019
     81  CD1        4.8510   45.3520   12.0960 C.3    54  ILE54       0.0001
     82  N          8.5370   49.3240   15.6340 N.3    75  LEU75      -0.1231
     83  CA         7.3720   48.8730   14.8780 C.3    75  LEU75       0.1678
     84  C          6.0790   49.2030   15.6260 C.2    75  LEU75       0.2434
     85  O          6.1090   49.4730   16.8260 O.2    75  LEU75      -0.2733
     86  CB         7.4590   47.3670   14.6150 C.3    75  LEU75       0.0284
     87  CG         8.7190   46.8850   13.8900 C.3    75  LEU75       0.0019
     88  CD1        8.7950   45.3670   13.9070 C.3    75  LEU75       0.0001
     89  CD2        8.7550   47.4050   12.4610 C.3    75  LEU75       0.0001
     90  N          4.9370   49.1850   14.9170 N.am   76  PRO76      -0.2718
     91  CA         3.6460   49.4460   15.5690 C.3    76  PRO76       0.1535
     92  C          3.2810   48.3920   16.6140 C.2    76  PRO76       0.2599
     93  O          3.9710   47.3780   16.7300 O.2    76  PRO76      -0.2715
     94  CB         2.6480   49.4180   14.4040 C.3    76  PRO76       0.0310
     95  CG         3.4620   49.6550   13.1850 C.3    76  PRO76       0.0237
     96  CD         4.7920   49.0360   13.4590 C.3    76  PRO76       0.0939
     97  N          2.2020   48.6360   17.3540 N.am   77  PHE77      -0.1960
     98  CA         1.7360   47.7140   18.3870 C.3    77  PHE77       0.1771
     99  C          0.3550   47.1620   18.0460 C.2    77  PHE77       0.2619
    100  O         -0.5070   47.8840   17.5420 O.2    77  PHE77      -0.2715
    101  CB         1.6990   48.4120   19.7490 C.3    77  PHE77       0.0574
    102  CG         1.3030   47.5080   20.8820 C.ar   77  PHE77      -0.0200
    103  CD1        2.2610   46.7970   21.5860 C.ar   77  PHE77      -0.0042
    104  CD2       -0.0260   47.3700   21.2440 C.ar   77  PHE77      -0.0042
    105  CE1        1.9000   45.9640   22.6280 C.ar   77  PHE77      -0.0003
    106  CE2       -0.3930   46.5390   22.2850 C.ar   77  PHE77      -0.0003
    107  CZ         0.5710   45.8350   22.9780 C.ar   77  PHE77      -0.0000
    108  N          0.1590   45.8750   18.3220 N.am   78  MET78      -0.1963
    109  CA        -1.1180   45.2070   18.0890 C.3    78  MET78       0.1736
    110  C         -1.5310   44.4010   19.3170 C.2    78  MET78       0.2616
    111  O         -0.9750   43.3360   19.5850 O.2    78  MET78      -0.2715
    112  CB        -1.0330   44.2890   16.8680 C.3    78  MET78       0.0427
    113  CG        -0.8100   45.0110   15.5460 C.3    78  MET78       0.0599
    114  SD         0.8990   45.5290   15.2980 S.3    78  MET78      -0.1393
    115  CE         0.8080   46.2150   13.6450 C.3    78  MET78       0.0692
    116  N         -2.5110   44.9100   20.0570 N.am   79  LYS79      -0.1963
    117  CA        -2.9610   44.2530   21.2800 C.3    79  LYS79       0.1728
    118  C         -3.6140   42.9050   20.9850 C.2    79  LYS79       0.2616
    119  O         -3.6040   42.0060   21.8240 O.2    79  LYS79      -0.2715
    120  CB        -3.9380   45.1500   22.0450 C.3    79  LYS79       0.0311
    121  CG        -5.1740   45.5570   21.2580 C.3    79  LYS79       0.0038
    122  CD        -6.1580   46.3110   22.1400 C.3    79  LYS79       0.0206
    123  CE        -7.3610   46.7960   21.3500 C.3    79  LYS79       0.1093
    124  NZ        -8.3560   47.4810   22.2200 N.3    79  LYS79      -0.1314
    125  N         -4.1820   42.7700   19.7910 N.am   80  TYR80      -0.1960
    126  CA        -4.7990   41.5140   19.3800 C.3    80  TYR80       0.1771
    127  C         -3.7350   40.4680   19.0510 C.2    80  TYR80       0.2620
    128  O         -4.0410   39.2840   18.9000 O.2    80  TYR80      -0.2715
    129  CB        -5.7180   41.7400   18.1770 C.3    80  TYR80       0.0574
    130  CG        -6.9070   42.6300   18.4750 C.ar   80  TYR80      -0.0198
    131  CD1       -7.6020   42.5200   19.6730 C.ar   80  TYR80      -0.0009
    132  CD2       -7.3310   43.5840   17.5600 C.ar   80  TYR80      -0.0009
    133  CE1       -8.6860   43.3310   19.9490 C.ar   80  TYR80       0.0417
    134  CE2       -8.4140   44.4010   17.8280 C.ar   80  TYR80       0.0417
    135  CZ        -9.0880   44.2700   19.0240 C.ar   80  TYR80       0.1957
    136  OH       -10.1670   45.0790   19.2980 O.3    80  TYR80      -0.2866
    137  N         -2.4870   40.9120   18.9400 N.am   81  GLY81      -0.1940
    138  CA        -1.3650   40.0090   18.7590 C.3    81  GLY81       0.2014
    139  C         -1.3340   39.3350   17.4020 C.2    81  GLY81       0.2638
    140  O         -2.0280   39.7480   16.4720 O.2    81  GLY81      -0.2714
    141  N         -0.5190   38.2900   17.2940 N.am   82  ASP82      -0.1971
    142  CA        -0.3670   37.5520   16.0460 C.3    82  ASP82       0.1709
    143  C         -1.6440   36.7960   15.6910 C.2    82  ASP82       0.2293
    144  O         -2.5540   36.6750   16.5110 O.2    82  ASP82      -0.2864
    145  CB         0.8110   36.5800   16.1420 C.3    82  ASP82       0.1436
    146  CG         0.6410   35.5630   17.2540 C.2    82  ASP82       0.3671
    147  OD1        1.0280   35.8650   18.4030 O.co2  82  ASP82      -0.2456
    148  OD2        0.1260   34.4590   16.9790 O.co2  82  ASP82      -0.2456
    149  N          2.1750   32.8830   12.0520 N.3   131  ARG131     -0.1231
    150  CA         2.8190   33.4560   13.2270 C.3   131  ARG131      0.1694
    151  C          3.3640   34.8490   12.9240 C.2   131  ARG131      0.2592
    152  O          3.4210   35.7060   13.8060 O.2   131  ARG131     -0.2718
    153  CB         3.9440   32.5420   13.7200 C.3   131  ARG131      0.0321
    154  CG         5.0650   32.3320   12.7140 C.3   131  ARG131      0.0489
    155  CD         6.1350   31.4010   13.2610 C.3   131  ARG131      0.2205
    156  NE         7.2820   31.2940   12.3610 N.pl3 131  ARG131     -0.0865
    157  CZ         7.3660   30.4490   11.3370 C.cat 131  ARG131      0.5346
    158  NH1        6.3680   29.6180   11.0620 N.pl3 131  ARG131      0.1354
    159  NH2        8.4550   30.4350   10.5820 N.pl3 131  ARG131      0.1354
    160  N          3.7570   35.0670   11.6720 N.am  132  ASN132     -0.1974
    161  CA         4.3070   36.3520   11.2500 C.3   132  ASN132      0.1688
    162  C          3.2410   37.2740   10.6650 C.2   132  ASN132      0.2292
    163  O          3.5450   38.1610    9.8650 O.2   132  ASN132     -0.2864
    164  CB         5.4260   36.1350   10.2310 C.3   132  ASN132      0.1181
    165  CG         6.5770   35.3260   10.7970 C.2   132  ASN132      0.2629
    166  OD1        6.8390   35.3580   11.9990 O.2   132  ASN132     -0.2716
    167  ND2        7.2690   34.5940    9.9330 N.am  132  ASN132     -0.0877
    168  N          0.1200   39.8520   11.9020 N.3   134  MET134     -0.1245
    169  CA        -0.4290   40.5860   13.0400 C.3   134  MET134      0.1570
    170  C         -1.8160   41.1400   12.7270 C.2   134  MET134      0.2261
    171  O         -2.1510   41.3830   11.5670 O.2   134  MET134     -0.2867
    172  CB         0.5100   41.7270   13.4360 C.3   134  MET134      0.0387
    173  CG         1.9710   41.3170   13.5350 C.3   134  MET134      0.0595
    174  SD         2.2450   39.9090   14.6280 S.3   134  MET134     -0.1393
    175  CE         1.7340   40.5920   16.2020 C.3   134  MET134      0.0692
    176  N          4.5230   40.7090    8.1140 N.3   144  ALA144     -0.1231
    177  CA         5.6740   41.2530    8.8270 C.3   144  ALA144      0.1694
    178  C          6.7630   40.1980    8.9970 C.2   144  ALA144      0.2592
    179  O          6.6230   39.0700    8.5270 O.2   144  ALA144     -0.2718
    180  CB         5.2460   41.7930   10.1830 C.3   144  ALA144      0.0304
    181  N          7.8450   40.5800    9.6710 N.am  145  ASP145     -0.1974
    182  CA         8.9600   39.6770    9.9450 C.3   145  ASP145      0.1709
    183  C          9.6190   39.2100    8.6460 C.2   145  ASP145      0.2293
    184  O          9.8310   38.0140    8.4400 O.2   145  ASP145     -0.2864
    185  CB         8.4850   38.4750   10.7690 C.3   145  ASP145      0.1436
    186  CG         9.6250   37.7550   11.4660 C.2   145  ASP145      0.3671
    187  OD1       10.0280   38.2000   12.5610 O.co2 145  ASP145     -0.2456
    188  OD2       10.1130   36.7400   10.9240 O.co2 145  ASP145     -0.2456
@<TRIPOS>BOND
     1    74    75    1
     2    77    76    2
     3   176   177    1
     4    76    75    1
     5   184   183    2
     6   179   178    2
     7   183   182    1
     8    75    78    1
     9   177   178    1
    10   177   180    1
    11   178   181   am
    12    80    78    1
    13    78    79    1
    14   181   182    1
    15   163   162    2
    16   167   165   am
    17   182   185    1
    18   164   165    1
    19   164   161    1
    20   159   157    1
    21   162   161    1
    22   185   186    1
    23   165   166    2
    24   188   186   ar
    25    79    81    1
    26   158   157    1
    27   161   160    1
    28   157   156    2
    29   186   187   ar
    30   171   170    2
    31   160   151   am
    32   168   169    1
    33   149   150    1
    34   156   155    1
    35    89    87    1
    36   154   155    1
    37   154   153    1
    38   170   169    1
    39   151   150    1
    40   151   152    2
    41   169   172    1
    42    95    96    1
    43    95    94    1
    44   150   153    1
    45   172   173    1
    46    96    90    1
    47   173   174    1
    48   115   114    1
    49    87    88    1
    50    87    86    1
    51    72    71    1
    52    72    73    1
    53    94    91    1
    54    86    83    1
    55   174   175    1
    56    83    84    1
    57    83    82    1
    58    71    70    1
    59    90    91    1
    60    90    84   am
    61   114   113    1
    62   113   112    1
    63    91    92    1
    64    84    85    2
    65   143   142    1
    66   143   144    2
    67   142   145    1
    68   142   141    1
    69   145   146    1
    70    70    69    1
    71   140   139    2
    72    34    33    2
    73    92    93    2
    74    92    97   am
    75    69    66    1
    76   112   109    1
    77   148   146   ar
    78    33    32    1
    79   146   147   ar
    80   141   139   am
    81    68    67    2
    82    97    98    1
    83   139   138    1
    84   100    99    2
    85   132   134   ar
    86   132   130   ar
    87    32    31    1
    88   134   135   ar
    89    63    62    2
    90    67    66    1
    91    66    65    1
    92    99   108   am
    93    99    98    1
    94   109   108    1
    95   109   110    1
    96   129   130    1
    97   129   126    1
    98    98   101    1
    99   130   131   ar
   100   138   137    1
   101   128   127    2
   102   137   127   am
   103    64    61    1
   104   135   136    1
   105   135   133   ar
   106   127   126    1
   107    41    39    1
   108    62    61    1
   109    31    24   am
   110    25    24    2
   111   110   111    2
   112   110   116   am
   113    60    61    1
   114   126   125    1
   115    54    53    2
   116   131   133   ar
   117   101   102    1
   118   125   118   am
   119    24    23    1
   120    40    39    1
   121   116   117    1
   122    39    36    1
   123    53    52    1
   124   102   104   ar
   125   102   103   ar
   126   118   117    1
   127   118   119    2
   128   104   106   ar
   129   121   120    1
   130   121   122    1
   131    36    35    1
   132    36    37    1
   133   117   120    1
   134    23    26    1
   135    23    22    1
   136   123   122    1
   137   123   124    1
   138    51    52    1
   139   103   105   ar
   140    26    27    1
   141    52    55    1
   142    22    20   am
   143    21    20    2
   144   106   107   ar
   145    16    15    1
   146    20    19    1
   147    55    56    1
   148    37    38    2
   149   105   107   ar
   150    27    28    1
   151    19    18    1
   152    56    57    1
   153    14    15    1
   154    14    11    1
   155    18    12   am
   156    15    17    1
   157    13    12    2
   158    12    11    1
   159    30    28   ar
   160    28    29   ar
   161    43    42    1
   162    43    44    1
   163    43    46    1
   164    57    58    1
   165    11    10    1
   166    44    45    2
   167    58    59    1
   168    46    47    1
   169    47    48    1
   170    49    48   ar
   171     4     3    2
   172    48    50   ar
   173     3     2    1
   174     1     2    1
   175     2     5    1
   176     5     6    1
   177     6     7    1
   178     7     8    1
   179     8     9    1
