@<TRIPOS>MOLECULE
tmp/4mhhH00.pdb
 85 79 0 0 0
SMALL
GASTEIGER

@<TRIPOS>ATOM
      1  N         86.0420   19.6010   28.2570 N.3    38  LYS38      -0.1245
      2  CA        84.7680   19.9470   27.6350 C.3    38  LYS38       0.1561
      3  C         83.9660   18.7590   27.1480 C.2    38  LYS38       0.2260
      4  O         82.7570   18.7110   27.3590 O.2    38  LYS38      -0.2867
      5  CB        85.0240   20.8870   26.4550 C.3    38  LYS38       0.0271
      6  CG        86.4740   20.8570   25.9700 C.3    38  LYS38       0.0035
      7  CD        86.5700   20.7300   24.4560 C.3    38  LYS38       0.0206
      8  CE        88.0170   20.7590   23.9870 C.3    38  LYS38       0.1093
      9  NZ        88.1000   20.7940   22.5020 N.3    38  LYS38      -0.1314
     10  N        102.6850   25.0740   29.4710 N.3   146  ASN146     -0.1225
     11  CA       101.2720   25.3080   29.2310 C.3   146  ASN146      0.1785
     12  C        100.7820   24.6480   27.9240 C.2   146  ASN146      0.2597
     13  O         99.6360   24.2110   27.8350 O.2   146  ASN146     -0.2718
     14  CB       100.9950   26.8180   29.2580 C.3   146  ASN146      0.1169
     15  CG       101.2370   27.4310   30.6500 C.2   146  ASN146      0.2627
     16  OD1      101.1290   26.7460   31.6810 O.2   146  ASN146     -0.2716
     17  ND2      101.5540   28.7190   30.6800 N.am  146  ASN146     -0.0877
     18  N        101.6500   24.6270   26.9100 N.am  147  GLU147     -0.1979
     19  CA       101.3840   23.9940   25.6080 C.3   147  GLU147      0.1602
     20  C        101.2900   22.4800   25.7590 C.2   147  GLU147      0.2287
     21  O        100.4420   21.8360   25.1650 O.2   147  GLU147     -0.2864
     22  CB       102.5290   24.2680   24.6330 C.3   147  GLU147      0.0415
     23  CG       102.8530   25.7370   24.2880 C.3   147  GLU147      0.1163
     24  CD       104.2260   25.8410   23.4850 C.2   147  GLU147      0.3649
     25  OE1      104.9390   24.7720   23.3320 O.co2 147  GLU147     -0.2457
     26  OE2      104.6110   27.0210   23.0950 O.co2 147  GLU147     -0.2457
     27  N         98.0580   21.4600   27.7930 N.3   150  GLU150     -0.1231
     28  CA        96.9520   21.4150   26.8410 C.3   150  GLU150      0.1699
     29  C         96.9330   20.1510   25.9770 C.2   150  GLU150      0.2592
     30  O         95.8630   19.6660   25.6150 O.2   150  GLU150     -0.2718
     31  CB        96.9830   22.6490   25.9390 C.3   150  GLU150      0.0402
     32  CG        95.8100   23.5780   26.1380 C.3   150  GLU150      0.1161
     33  CD        94.4860   22.8750   25.8940 C.2   150  GLU150      0.3649
     34  OE1       94.2190   22.5050   24.7290 O.co2 150  GLU150     -0.2457
     35  OE2       93.7210   22.6910   26.8680 O.co2 150  GLU150     -0.2457
     36  N         98.1100   19.6550   25.5970 N.am  151  SER151     -0.1952
     37  CA        98.2010   18.4460   24.7750 C.3   151  SER151      0.1924
     38  C         97.6680   17.2000   25.5070 C.2   151  SER151      0.2314
     39  O         97.0250   16.3370   24.9000 O.2   151  SER151     -0.2863
     40  CB        99.6380   18.2290   24.2920 C.3   151  SER151      0.2116
     41  OG       100.4300   17.5760   25.2650 O.3   151  SER151     -0.2180
     42  N         93.6880   17.3750   25.7460 N.3   154  ASN154     -0.1240
     43  CA        92.9070   17.2790   24.5320 C.3   154  ASN154      0.1653
     44  C         93.2680   16.0720   23.6580 C.2   154  ASN154      0.2266
     45  O         92.7960   15.9530   22.5330 O.2   154  ASN154     -0.2867
     46  CB        92.9720   18.6340   23.7820 C.3   154  ASN154      0.1155
     47  CG        94.2920   18.8810   23.0190 C.2   154  ASN154      0.2627
     48  OD1       95.1680   18.0210   22.9400 O.2   154  ASN154     -0.2716
     49  ND2       94.4220   20.1020   22.4600 N.am  154  ASN154     -0.0877
     50  N         96.3660   14.9680   22.5820 N.3   156  THR156     -0.1218
     51  CA        97.3680   15.2200   21.5460 C.3   156  THR156      0.1862
     52  C         98.7560   14.9330   22.1080 C.2   156  THR156      0.2287
     53  O         99.7410   14.9360   21.3630 O.2   156  THR156     -0.2866
     54  CB        97.2630   16.7210   21.0160 C.3   156  THR156      0.1770
     55  OG1       96.2630   16.8140   19.9950 O.3   156  THR156     -0.2211
     56  CG2       98.5760   17.3010   20.4670 C.3   156  THR156      0.0375
     57  N        102.1480   13.8070   22.8580 N.3   158  ASP158     -0.1239
     58  CA       103.1500   13.0110   22.1590 C.3   158  ASP158      0.1674
     59  C        104.0940   12.3240   23.1540 C.2   158  ASP158      0.2266
     60  O        104.8920   12.9970   23.8030 O.2   158  ASP158     -0.2867
     61  CB       103.9290   13.9190   21.1730 C.3   158  ASP158      0.1410
     62  CG       104.7480   13.1400   20.1320 C.2   158  ASP158      0.3668
     63  OD1      105.2330   12.0180   20.4110 O.co2 158  ASP158     -0.2456
     64  OD2      104.9110   13.6770   19.0120 O.co2 158  ASP158     -0.2456
     65  N        108.0550   12.0990   22.0440 N.3   161  GLN161     -0.1231
     66  CA       108.7440   13.3880   22.0520 C.3   161  GLN161      0.1698
     67  C        109.3590   13.7320   23.4010 C.2   161  GLN161      0.2592
     68  O        110.3750   14.4160   23.4780 O.2   161  GLN161     -0.2718
     69  CB       107.7680   14.4930   21.6300 C.3   161  GLN161      0.0381
     70  CG       108.3180   15.9060   21.6510 C.3   161  GLN161      0.0905
     71  CD       107.2210   16.9210   21.4570 C.2   161  GLN161      0.2608
     72  OE1      106.1240   16.5700   21.0350 O.2   161  GLN161     -0.2717
     73  NE2      107.4940   18.1760   21.7870 N.am  161  GLN161     -0.0878
     74  N        108.7470   13.2460   24.4680 N.am  162  TYR162     -0.1976
     75  CA       109.2490   13.5270   25.7980 C.3   162  TYR162      0.1639
     76  C        109.9130   12.3090   26.4290 C.2   162  TYR162      0.2290
     77  O        110.5140   12.4250   27.4890 O.2   162  TYR162     -0.2864
     78  CB       108.1170   14.0540   26.6880 C.3   162  TYR162      0.0560
     79  CG       107.4280   15.3250   26.1800 C.ar  162  TYR162     -0.0198
     80  CD1      107.9600   16.5950   26.4300 C.ar  162  TYR162     -0.0009
     81  CD2      106.2480   15.2460   25.4380 C.ar  162  TYR162     -0.0009
     82  CE1      107.3210   17.7430   25.9570 C.ar  162  TYR162      0.0417
     83  CE2      105.6070   16.3810   24.9690 C.ar  162  TYR162      0.0417
     84  CZ       106.1440   17.6220   25.2250 C.ar  162  TYR162      0.1957
     85  OH       105.4760   18.7330   24.7550 O.3   162  TYR162     -0.2866
@<TRIPOS>BOND
     1    64    62   ar
     2    55    54    1
     3    62    63   ar
     4    62    61    1
     5    56    54    1
     6    54    51    1
     7    72    71    2
     8    61    58    1
     9    53    52    2
    10    71    70    1
    11    71    73   am
    12    51    52    1
    13    51    50    1
    14    69    70    1
    15    69    66    1
    16    65    66    1
    17    66    67    1
    18    58    57    1
    19    58    59    1
    20    49    47   am
    21     9     8    1
    22    45    44    2
    23    48    47    2
    24    47    46    1
    25    26    24   ar
    26    59    60    2
    27    25    24   ar
    28    67    68    2
    29    67    74   am
    30    24    23    1
    31    44    43    1
    32    46    43    1
    33     8     7    1
    34    23    22    1
    35    40    37    1
    36    40    41    1
    37     7     6    1
    38    74    75    1
    39    43    42    1
    40    22    19    1
    41    34    33   ar
    42    85    84    1
    43    37    38    1
    44    37    36    1
    45    39    38    2
    46    83    84   ar
    47    83    81   ar
    48    21    20    2
    49    84    82   ar
    50    81    79   ar
    51    36    29   am
    52    19    20    1
    53    19    18    1
    54    30    29    2
    55    75    76    1
    56    75    78    1
    57    33    32    1
    58    33    35   ar
    59    31    32    1
    60    31    28    1
    61    82    80   ar
    62     6     5    1
    63    29    28    1
    64    79    80   ar
    65    79    78    1
    66    76    77    2
    67     5     2    1
    68    28    27    1
    69    18    12   am
    70     3     4    2
    71     3     2    1
    72     2     1    1
    73    13    12    2
    74    12    11    1
    75    11    14    1
    76    11    10    1
    77    14    15    1
    78    15    17   am
    79    15    16    2
