@<TRIPOS>MOLECULE
tmp/4mhoA00.pdb
 216 205 0 0 0
SMALL
GASTEIGER

@<TRIPOS>ATOM
      1  N         32.9580   20.1310   39.5460 N.3    77  GLU77      -0.1245
      2  CA        31.6370   20.6220   39.1580 C.3    77  GLU77       0.1567
      3  C         30.6810   19.4840   38.8800 C.2    77  GLU77       0.2260
      4  O         31.0220   18.5490   38.1450 O.2    77  GLU77      -0.2867
      5  CB        31.7190   21.5360   37.9150 C.3    77  GLU77       0.0388
      6  CG        32.5810   22.7780   38.1360 C.3    77  GLU77       0.1160
      7  CD        32.4830   23.7950   37.0110 C.2    77  GLU77       0.3649
      8  OE1       33.2910   24.7380   37.0400 O.co2  77  GLU77      -0.2457
      9  OE2       31.6040   23.6770   36.1100 O.co2  77  GLU77      -0.2457
     10  N         29.5790   25.6170   36.1700 N.3   122  ASN122     -0.1225
     11  CA        29.4980   26.7760   35.3030 C.3   122  ASN122      0.1785
     12  C         28.7020   26.6000   33.9940 C.2   122  ASN122      0.2598
     13  O         27.9300   27.4810   33.6090 O.2   122  ASN122     -0.2718
     14  CB        30.9190   27.2330   34.9940 C.3   122  ASN122      0.1169
     15  CG        31.5300   27.9920   36.1550 C.2   122  ASN122      0.2627
     16  OD1       31.1680   29.1390   36.4070 O.2   122  ASN122     -0.2716
     17  ND2       32.4530   27.3550   36.8700 N.am  122  ASN122     -0.0877
     18  N         28.9100   25.4790   33.3110 N.am  123  GLY123     -0.1942
     19  CA        28.3110   25.2800   31.9830 C.3   123  GLY123      0.2014
     20  C         28.5400   23.8590   31.5460 C.2   123  GLY123      0.2639
     21  O         28.2090   22.9460   32.2860 O.2   123  GLY123     -0.2714
     22  N         29.1460   23.6840   30.3690 N.am  124  GLY124     -0.1939
     23  CA        29.2480   22.3740   29.7090 C.3   124  GLY124      0.2014
     24  C         30.0050   21.2740   30.4480 C.2   124  GLY124      0.2638
     25  O         29.5710   20.1210   30.4850 O.2   124  GLY124     -0.2714
     26  N         31.1450   21.6080   31.0360 N.am  125  LEU125     -0.1977
     27  CA        31.9470   20.6020   31.7490 C.3   125  LEU125      0.1596
     28  C         31.2090   20.0690   33.0000 C.2   125  LEU125      0.2287
     29  O         31.2380   18.8500   33.3000 O.2   125  LEU125     -0.2864
     30  CB        33.3300   21.2000   32.0900 C.3   125  LEU125      0.0297
     31  CG        34.3530   20.6150   33.0560 C.3   125  LEU125      0.0022
     32  CD1       35.7230   21.2360   32.7630 C.3   125  LEU125      0.0001
     33  CD2       33.9320   20.8750   34.5010 C.3   125  LEU125      0.0001
     34  N         28.2200   17.9900   31.8420 N.3   128  LEU128     -0.1245
     35  CA        28.6950   16.6830   31.3430 C.3   128  LEU128      0.1561
     36  C         28.8450   15.6620   32.4780 C.2   128  LEU128      0.2260
     37  O         28.4460   14.4990   32.3380 O.2   128  LEU128     -0.2867
     38  CB        30.0230   16.8280   30.5810 C.3   128  LEU128      0.0270
     39  CG        30.4630   15.5890   29.7740 C.3   128  LEU128      0.0019
     40  CD1       29.6320   15.3930   28.5110 C.3   128  LEU128      0.0001
     41  CD2       31.9470   15.6590   29.4200 C.3   128  LEU128      0.0001
     42  N         33.9740   28.7970   42.0840 N.3   260  TYR260     -0.1241
     43  CA        34.6210   29.8000   41.1930 C.3   260  TYR260      0.1605
     44  C         33.8760   29.8970   39.8550 C.2   260  TYR260      0.2264
     45  O         33.7070   28.8800   39.1810 O.2   260  TYR260     -0.2867
     46  CB        36.0780   29.4470   40.9520 C.3   260  TYR260      0.0534
     47  CG        36.9410   30.0040   42.0440 C.ar  260  TYR260     -0.0201
     48  CD1       37.0300   29.3580   43.2750 C.ar  260  TYR260     -0.0009
     49  CD2       37.6030   31.2200   41.8740 C.ar  260  TYR260     -0.0009
     50  CE1       37.8020   29.8750   44.3010 C.ar  260  TYR260      0.0417
     51  CE2       38.3760   31.7470   42.9000 C.ar  260  TYR260      0.0417
     52  CZ        38.4720   31.0720   44.1070 C.ar  260  TYR260      0.1957
     53  OH        39.2240   31.5830   45.1360 O.3   260  TYR260     -0.2866
     54  N         34.6570   31.7390   37.0550 N.3   262  ASN262     -0.1225
     55  CA        35.4430   32.1970   35.9100 C.3   262  ASN262      0.1785
     56  C         35.8710   31.0400   34.9940 C.2   262  ASN262      0.2597
     57  O         36.9600   30.4760   35.1570 O.2   262  ASN262     -0.2718
     58  CB        36.6500   33.0270   36.3730 C.3   262  ASN262      0.1169
     59  CG        37.5070   32.3040   37.4080 C.2   262  ASN262      0.2627
     60  OD1       36.9990   31.7710   38.3970 O.2   262  ASN262     -0.2716
     61  ND2       38.8150   32.2880   37.1800 N.am  262  ASN262     -0.0877
     62  N         35.0070   30.6990   34.0350 N.am  263  ASP263     -0.1974
     63  CA        35.2050   29.5430   33.1500 C.3   263  ASP263      0.1709
     64  C         36.0040   29.8460   31.8720 C.2   263  ASP263      0.2293
     65  O         36.1630   28.9760   31.0130 O.2   263  ASP263     -0.2864
     66  CB        33.8570   28.9440   32.7660 C.3   263  ASP263      0.1436
     67  CG        33.0200   29.8880   31.9310 C.2   263  ASP263      0.3671
     68  OD1       33.2020   31.1270   32.0430 O.co2 263  ASP263     -0.2456
     69  OD2       32.1880   29.3870   31.1550 O.co2 263  ASP263     -0.2456
     70  N         42.2600   31.3670   33.1390 N.3   266  PHE266     -0.1227
     71  CA        42.7030   30.8390   34.4180 C.3   266  PHE266      0.1736
     72  C         43.3560   31.9230   35.2860 C.2   266  PHE266      0.2595
     73  O         44.2110   32.6730   34.8140 O.2   266  PHE266     -0.2718
     74  CB        43.6910   29.6900   34.1980 C.3   266  PHE266      0.0547
     75  CG        44.4280   29.2780   35.4480 C.ar  266  PHE266     -0.0202
     76  CD1       43.7970   28.4950   36.4200 C.ar  266  PHE266     -0.0042
     77  CD2       45.7490   29.6800   35.6600 C.ar  266  PHE266     -0.0042
     78  CE1       44.4820   28.1140   37.5740 C.ar  266  PHE266     -0.0003
     79  CE2       46.4390   29.2910   36.8040 C.ar  266  PHE266     -0.0003
     80  CZ        45.7950   28.5170   37.7630 C.ar  266  PHE266     -0.0000
     81  N         42.9550   31.9890   36.5530 N.am  267  GLU267     -0.1979
     82  CA        43.6760   32.7910   37.5450 C.3   267  GLU267      0.1602
     83  C         44.1060   31.9450   38.7280 C.2   267  GLU267      0.2287
     84  O         43.2930   31.2760   39.3480 O.2   267  GLU267     -0.2864
     85  CB        42.8490   33.9920   38.0150 C.3   267  GLU267      0.0415
     86  CG        43.1470   35.2680   37.2380 C.3   267  GLU267      0.1163
     87  CD        42.1850   36.3930   37.5750 C.2   267  GLU267      0.3649
     88  OE1       42.5700   37.2950   38.3520 O.co2 267  GLU267     -0.2457
     89  OE2       41.0380   36.3680   37.0730 O.co2 267  GLU267     -0.2457
     90  N         41.2460   28.5850   45.4330 N.3   272  ARG272     -0.1245
     91  CA        40.9310   27.5550   44.4240 C.3   272  ARG272      0.1563
     92  C         41.8910   26.3590   44.5040 C.2   272  ARG272      0.2260
     93  O         41.4810   25.2010   44.3520 O.2   272  ARG272     -0.2867
     94  CB        40.9310   28.1420   43.0160 C.3   272  ARG272      0.0307
     95  CG        40.8560   27.0990   41.9020 C.3   272  ARG272      0.0489
     96  CD        39.4820   26.4120   41.8070 C.3   272  ARG272      0.2205
     97  NE        39.4300   25.5320   40.6390 N.pl3 272  ARG272     -0.0865
     98  CZ        38.3130   25.1960   39.9950 C.cat 272  ARG272      0.5346
     99  NH1       37.1320   25.6480   40.4080 N.pl3 272  ARG272      0.1354
    100  NH2       38.3840   24.3980   38.9290 N.pl3 272  ARG272      0.1354
    101  N         39.0090   17.1940   33.3800 N.3   310  ASP310     -0.1239
    102  CA        39.9880   18.2600   33.1520 C.3   310  ASP310      0.1674
    103  C         41.1210   18.1720   34.1890 C.2   310  ASP310      0.2266
    104  O         41.2210   17.1850   34.9060 O.2   310  ASP310     -0.2867
    105  CB        39.3200   19.6470   33.1470 C.3   310  ASP310      0.1410
    106  CG        39.9930   20.6210   32.2050 C.2   310  ASP310      0.3668
    107  OD1       39.2580   21.3810   31.5310 O.co2 310  ASP310     -0.2456
    108  OD2       41.2480   20.6240   32.1410 O.co2 310  ASP310     -0.2456
    109  N         41.4680   20.0500   36.7810 N.3   312  HIS312     -0.1241
    110  CA        41.0590   20.5540   38.0970 C.3   312  HIS312      0.1621
    111  C         41.3590   19.6190   39.2760 C.2   312  HIS312      0.2264
    112  O         41.7070   20.1140   40.3400 O.2   312  HIS312     -0.2867
    113  CB        39.6020   21.0640   38.1300 C.3   312  HIS312      0.0745
    114  CG        39.2170   21.8820   36.9310 C.ar  312  HIS312      0.0817
    115  ND1       37.9130   22.0180   36.5190 N.ar  312  HIS312     -0.2268
    116  CD2       39.9680   22.5920   36.0500 C.ar  312  HIS312      0.1154
    117  CE1       37.8710   22.7870   35.4440 C.ar  312  HIS312      0.1986
    118  NE2       39.1060   23.1490   35.1380 N.ar  312  HIS312     -0.2212
    119  N         39.2760   19.4310   27.9920 N.3   348  HIS348     -0.1226
    120  CA        38.1170   20.1710   27.5320 C.3   348  HIS348      0.1752
    121  C         38.3620   21.5170   26.8200 C.2   348  HIS348      0.2596
    122  O         37.3880   22.2170   26.5430 O.2   348  HIS348     -0.2718
    123  CB        37.1850   20.4490   28.7070 C.3   348  HIS348      0.0759
    124  CG        36.6210   19.2300   29.3650 C.ar  348  HIS348      0.0818
    125  ND1       35.3800   18.7190   29.0460 N.ar  348  HIS348     -0.2268
    126  CD2       37.0950   18.4660   30.3780 C.ar  348  HIS348      0.1154
    127  CE1       35.1190   17.6840   29.8250 C.ar  348  HIS348      0.1986
    128  NE2       36.1420   17.5130   30.6470 N.ar  348  HIS348     -0.2212
    129  N         39.6030   21.9260   26.5490 N.am  349  THR349     -0.1953
    130  CA        39.7870   23.1910   25.7720 C.3   349  THR349      0.1897
    131  C         41.0610   23.2520   24.9470 C.2   349  THR349      0.2313
    132  O         41.8990   22.3680   25.0340 O.2   349  THR349     -0.2863
    133  CB        39.6020   24.4950   26.6120 C.3   349  THR349      0.1794
    134  OG1       39.6940   25.6680   25.7580 O.3   349  THR349     -0.2208
    135  CG2       40.6030   24.5480   27.7630 C.3   349  THR349      0.0378
    136  N         43.2470   29.2480   29.1830 N.3   354  ALA354     -0.1245
    137  CA        42.3320   28.4390   29.9940 C.3   354  ALA354      0.1562
    138  C         43.0520   27.2890   30.7340 C.2   354  ALA354      0.2260
    139  O         42.5120   26.7170   31.6830 O.2   354  ALA354     -0.2867
    140  CB        41.1770   27.9080   29.1360 C.3   354  ALA354      0.0290
    141  N         45.3510   25.3770   33.2940 N.3   356  GLU356     -0.1245
    142  CA        45.8630   25.6330   34.6410 C.3   356  GLU356      0.1567
    143  C         47.3870   25.5810   34.7100 C.2   356  GLU356      0.2260
    144  O         47.9960   24.5650   34.3930 O.2   356  GLU356     -0.2867
    145  CB        45.2760   24.6570   35.6580 C.3   356  GLU356      0.0388
    146  CG        43.8040   24.9030   35.9130 C.3   356  GLU356      0.1160
    147  CD        43.3050   24.1090   37.0850 C.2   356  GLU356      0.3649
    148  OE1       43.2320   22.8740   36.9510 O.co2 356  GLU356     -0.2457
    149  OE2       43.0110   24.7300   38.1290 O.co2 356  GLU356     -0.2457
    150  N         37.0250   15.5970   23.4520 N.3   426  VAL426     -0.1245
    151  CA        35.5810   15.4450   23.6740 C.3   426  VAL426      0.1561
    152  C         34.7490   15.5050   22.4000 C.2   426  VAL426      0.2260
    153  O         33.5260   15.4720   22.4640 O.2   426  VAL426     -0.2867
    154  CB        35.0610   16.4350   24.7480 C.3   426  VAL426      0.0252
    155  CG1       35.6250   16.0300   26.1190 C.3   426  VAL426      0.0019
    156  CG2       35.4360   17.8840   24.3980 C.3   426  VAL426      0.0019
    157  N         31.4110   13.7190   23.2230 N.3   455  ASN455     -0.1240
    158  CA        30.4020   14.0320   24.2610 C.3   455  ASN455      0.1653
    159  C         28.9820   13.5550   23.9020 C.2   455  ASN455      0.2266
    160  O         28.6970   13.2550   22.7420 O.2   455  ASN455     -0.2867
    161  CB        30.3930   15.5510   24.5410 C.3   455  ASN455      0.1155
    162  CG        31.5330   15.9910   25.4650 C.2   455  ASN455      0.2627
    163  OD1       31.7790   17.1970   25.6430 O.2   455  ASN455     -0.2716
    164  ND2       32.2280   15.0300   26.0530 N.am  455  ASN455     -0.0877
    165  N         34.7690   33.7350   22.1050 N.3   544  TYR544     -0.1227
    166  CA        34.8870   32.6350   21.1320 C.3   544  TYR544      0.1736
    167  C         33.5370   32.0810   20.6730 C.2   544  TYR544      0.2595
    168  O         33.4320   31.5710   19.5450 O.2   544  TYR544     -0.2718
    169  CB        35.8560   31.5100   21.5760 C.3   544  TYR544      0.0548
    170  CG        35.2840   30.4050   22.4480 C.ar  544  TYR544     -0.0200
    171  CD1       34.5830   29.3320   21.8790 C.ar  544  TYR544     -0.0009
    172  CD2       35.4670   30.4110   23.8440 C.ar  544  TYR544     -0.0009
    173  CE1       34.0720   28.3080   22.6680 C.ar  544  TYR544      0.0417
    174  CE2       34.9420   29.3930   24.6420 C.ar  544  TYR544      0.0417
    175  CZ        34.2570   28.3360   24.0500 C.ar  544  TYR544      0.1957
    176  OH        33.7330   27.2940   24.8130 O.3   544  TYR544     -0.2866
    177  N         32.5180   32.2000   21.5240 N.am  545  LYS545     -0.1980
    178  CA        31.1870   31.6870   21.1890 C.3   545  LYS545      0.1596
    179  C         30.4330   32.6310   20.2230 C.2   545  LYS545      0.2287
    180  O         29.4540   32.2280   19.5990 O.2   545  LYS545     -0.2864
    181  CB        30.3650   31.3710   22.4490 C.3   545  LYS545      0.0298
    182  CG        30.8560   30.1380   23.2280 C.3   545  LYS545      0.0038
    183  CD        30.2050   30.0600   24.6110 C.3   545  LYS545      0.0206
    184  CE        30.6990   28.9090   25.4870 C.3   545  LYS545      0.1093
    185  NZ        30.3530   27.5500   24.9320 N.3   545  LYS545     -0.1314
    186  N         35.4430   25.7120   19.9950 N.3   643  GLU643     -0.1231
    187  CA        34.5410   24.9800   20.9040 C.3   643  GLU643      0.1699
    188  C         34.9480   23.5130   20.8870 C.2   643  GLU643      0.2592
    189  O         34.8000   22.8650   19.8620 O.2   643  GLU643     -0.2718
    190  CB        33.0760   25.1390   20.4700 C.3   643  GLU643      0.0402
    191  CG        32.0710   24.6070   21.4860 C.3   643  GLU643      0.1161
    192  CD        31.9100   25.5330   22.6680 C.2   643  GLU643      0.3649
    193  OE1       32.6150   25.3310   23.6720 O.co2 643  GLU643     -0.2457
    194  OE2       31.0810   26.4600   22.6020 O.co2 643  GLU643     -0.2457
    195  N         35.4590   22.9790   22.0030 N.am  644  ALA644     -0.1966
    196  CA        35.9820   21.6110   21.9670 C.3   644  ALA644      0.1728
    197  C         34.9210   20.5910   21.5050 C.2   644  ALA644      0.2617
    198  O         35.1970   19.7460   20.6500 O.2   644  ALA644     -0.2715
    199  CB        36.6050   21.2120   23.2920 C.3   644  ALA644      0.0334
    200  N         33.7180   20.6820   22.0580 N.am  645  SER645     -0.1936
    201  CA        32.6230   19.8240   21.6150 C.3   645  SER645      0.2055
    202  C         31.3290   20.6080   21.4750 C.2   645  SER645      0.2644
    203  O         30.7550   20.6800   20.3740 O.2   645  SER645     -0.2714
    204  CB        32.4270   18.6440   22.5680 C.3   645  SER645      0.2130
    205  OG        31.2580   17.9120   22.2380 O.3   645  SER645     -0.2179
    206  N         30.8920   21.2110   22.5840 N.am  646  GLY646     -0.1939
    207  CA        29.5190   21.6910   22.7230 C.3   646  GLY646      0.2014
    208  C         28.6350   20.5220   23.1350 C.2   646  GLY646      0.2639
    209  O         28.9240   19.3720   22.7840 O.2   646  GLY646     -0.2714
    210  N         27.6020   20.7960   23.9320 N.am  647  THR647     -0.1950
    211  CA        26.5850   19.7800   24.2860 C.3   647  THR647      0.1897
    212  C         25.1840   20.3690   24.1950 C.2   647  THR647      0.2313
    213  O         24.1900   19.6450   23.9950 O.2   647  THR647     -0.2863
    214  CB        26.7860   19.2030   25.6960 C.3   647  THR647      0.1794
    215  OG1       26.8600   20.2800   26.6390 O.3   647  THR647     -0.2208
    216  CG2       28.0680   18.3990   25.7660 C.3   647  THR647      0.0378
@<TRIPOS>BOND
     1   168   167    2
     2   180   179    2
     3   189   188    2
     4   186   187    1
     5   179   178    1
     6   203   202    2
     7   190   187    1
     8   190   191    1
     9   198   197    2
    10   167   166    1
    11   167   177   am
    12   188   187    1
    13   188   195   am
    14   166   169    1
    15   166   165    1
    16   178   177    1
    17   178   181    1
    18   202   201    1
    19   202   206   am
    20   191   192    1
    21   197   196    1
    22   197   200   am
    23   169   170    1
    24   201   200    1
    25   201   204    1
    26   171   170   ar
    27   171   173   ar
    28   196   195    1
    29   196   199    1
    30   205   204    1
    31   152   153    2
    32   152   151    1
    33   170   172   ar
    34   181   182    1
    35   206   207    1
    36   194   192   ar
    37   173   175   ar
    38   192   193   ar
    39   207   208    1
    40   160   159    2
    41   209   208    2
    42   208   210   am
    43   157   158    1
    44   182   183    1
    45   150   151    1
    46   151   154    1
    47   172   174   ar
    48   159   158    1
    49   210   211    1
    50   213   212    2
    51   175   174   ar
    52   175   176    1
    53   212   211    1
    54   158   161    1
    55   211   214    1
    56   156   154    1
    57   161   162    1
    58   183   184    1
    59   154   155    1
    60   185   184    1
    61   131   132    2
    62   131   130    1
    63   162   163    2
    64   162   164   am
    65   214   216    1
    66   214   215    1
    67   134   133    1
    68   130   129    1
    69   130   133    1
    70   122   121    2
    71   129   121   am
    72   133   135    1
    73   121   120    1
    74   120   119    1
    75   120   123    1
    76    40    39    1
    77   123   124    1
    78   125   124   ar
    79   125   127   ar
    80   140   137    1
    81   136   137    1
    82   124   126   ar
    83    41    39    1
    84    23    22    1
    85    23    24    1
    86    39    38    1
    87   127   128   ar
    88   137   138    1
    89    22    20   am
    90   126   128   ar
    91    24    25    2
    92    24    26   am
    93    38    35    1
    94   138   139    2
    95    65    64    2
    96    26    27    1
    97    69    67   ar
    98    35    34    1
    99    35    36    1
   100   107   106   ar
   101    20    19    1
   102    20    21    2
   103    27    30    1
   104    27    28    1
   105    64    63    1
   106    67    68   ar
   107    67    66    1
   108    19    18    1
   109    30    31    1
   110   108   106   ar
   111   106   105    1
   112    37    36    2
   113    32    31    1
   114    66    63    1
   115    28    29    2
   116    31    33    1
   117    70    71    1
   118   105   102    1
   119    63    62    1
   120   102   101    1
   121   102   103    1
   122   141   142    1
   123    18    12   am
   124    13    12    2
   125    12    11    1
   126    62    56   am
   127   103   104    2
   128    74    71    1
   129    74    75    1
   130   144   143    2
   131    71    72    1
   132   142   143    1
   133   142   145    1
   134    73    72    2
   135    56    57    2
   136    56    55    1
   137    14    11    1
   138    14    15    1
   139   118   117   ar
   140   118   116   ar
   141    72    81   am
   142    11    10    1
   143   117   115   ar
   144    75    77   ar
   145    75    76   ar
   146   145   146    1
   147    77    79   ar
   148    55    58    1
   149    55    54    1
   150   146   147    1
   151   116   114   ar
   152     9     7   ar
   153    15    16    2
   154    15    17   am
   155    58    59    1
   156    76    78   ar
   157   115   114   ar
   158    81    82    1
   159   109   110    1
   160    79    80   ar
   161   114   113    1
   162   148   147   ar
   163     7     8   ar
   164     7     6    1
   165    89    87   ar
   166   147   149   ar
   167    61    59   am
   168    86    87    1
   169    86    85    1
   170    59    60    2
   171    82    85    1
   172    82    83    1
   173    78    80   ar
   174    87    88   ar
   175     5     6    1
   176     5     2    1
   177   110   113    1
   178   110   111    1
   179     4     3    2
   180    83    84    2
   181     3     2    1
   182   100    98    1
   183     2     1    1
   184    45    44    2
   185   111   112    2
   186    44    43    1
   187    98    99    1
   188    98    97    2
   189    97    96    1
   190    46    43    1
   191    46    47    1
   192    43    42    1
   193    96    95    1
   194    49    47   ar
   195    49    51   ar
   196    95    94    1
   197    47    48   ar
   198    51    52   ar
   199    94    91    1
   200    48    50   ar
   201    52    50   ar
   202    52    53    1
   203    93    92    2
   204    91    92    1
   205    91    90    1
