@<TRIPOS>MOLECULE
tmp/4mhqA00.pdb
 95 88 0 0 0
SMALL
GASTEIGER

@<TRIPOS>ATOM
      1  N         30.5420   35.7310   41.2170 N.3    77  LYS77      -0.1245
      2  CA        29.9310   34.6320   41.9460 C.3    77  LYS77       0.1561
      3  C         30.7910   33.3880   41.8200 C.2    77  LYS77       0.2260
      4  O         31.4120   33.1470   40.7740 O.2    77  LYS77      -0.2867
      5  CB        28.5520   34.3150   41.3660 C.3    77  LYS77       0.0271
      6  CG        27.4680   35.3020   41.7410 C.3    77  LYS77       0.0035
      7  CD        26.0920   34.7510   41.4380 C.3    77  LYS77       0.0206
      8  CE        25.7300   34.9220   39.9760 C.3    77  LYS77       0.1093
      9  NZ        24.4910   34.1580   39.6720 N.3    77  LYS77      -0.1314
     10  N         18.1920   24.2050   49.4080 N.3   109  ASP109     -0.1239
     11  CA        18.1510   25.6340   49.1070 C.3   109  ASP109      0.1674
     12  C         16.7230   26.1350   49.3000 C.2   109  ASP109      0.2266
     13  O         15.8540   25.9030   48.4550 O.2   109  ASP109     -0.2867
     14  CB        18.6610   25.8990   47.6850 C.3   109  ASP109      0.1410
     15  CG        18.4730   27.3460   47.2370 C.2   109  ASP109      0.3668
     16  OD1       18.1440   28.2340   48.0560 O.co2 109  ASP109     -0.2456
     17  OD2       18.6520   27.6000   46.0360 O.co2 109  ASP109     -0.2456
     18  N         14.1390   29.0040   49.3120 N.3   111  ASP111     -0.1239
     19  CA        13.9990   30.2460   48.5570 C.3   111  ASP111      0.1674
     20  C         12.7410   30.9900   49.0270 C.2   111  ASP111      0.2266
     21  O         11.6400   30.4380   48.9840 O.2   111  ASP111     -0.2867
     22  CB        13.8730   29.8700   47.0820 C.3   111  ASP111      0.1410
     23  CG        13.9330   31.0610   46.1420 C.2   111  ASP111      0.3668
     24  OD1       13.6090   32.2040   46.5340 O.co2 111  ASP111     -0.2456
     25  OD2       14.2870   30.8310   44.9690 O.co2 111  ASP111     -0.2456
     26  N         22.1560   33.1750   51.8000 N.3   160  SER160     -0.1217
     27  CA        22.5360   33.3790   50.3920 C.3   160  SER160      0.1889
     28  C         23.1010   34.7620   50.1020 C.2   160  SER160      0.2288
     29  O         23.8310   34.9420   49.1310 O.2   160  SER160     -0.2866
     30  CB        21.3570   33.1260   49.4660 C.3   160  SER160      0.2089
     31  OG        20.4280   34.1930   49.5460 O.3   160  SER160     -0.2183
     32  N         20.8980   37.2370   49.9760 N.3   162  ARG162     -0.1231
     33  CA        19.6810   37.9060   49.5240 C.3   162  ARG162      0.1694
     34  C         18.4390   37.3050   50.1660 C.2   162  ARG162      0.2592
     35  O         18.1040   37.6680   51.2920 O.2   162  ARG162     -0.2718
     36  CB        19.5680   37.9150   47.9960 C.3   162  ARG162      0.0321
     37  CG        18.3930   38.7500   47.5210 C.3   162  ARG162      0.0489
     38  CD        18.1350   38.6200   46.0410 C.3   162  ARG162      0.2205
     39  NE        16.9580   39.4080   45.7090 N.pl3 162  ARG162     -0.0865
     40  CZ        16.4730   39.5650   44.4830 C.cat 162  ARG162      0.5346
     41  NH1       17.0650   38.9860   43.4490 N.pl3 162  ARG162      0.1354
     42  NH2       15.3880   40.3010   44.2970 N.pl3 162  ARG162      0.1354
     43  N         17.7850   36.3780   49.4650 N.am  163  ARG163     -0.1966
     44  CA        16.4630   35.8680   49.8670 C.3   163  ARG163      0.1729
     45  C         16.4700   34.3530   50.0430 C.2   163  ARG163      0.2616
     46  O         15.4270   33.6940   49.9050 O.2   163  ARG163     -0.2715
     47  CB        15.3910   36.2540   48.8270 C.3   163  ARG163      0.0348
     48  CG        15.6360   35.6480   47.4470 C.3   163  ARG163      0.0492
     49  CD        14.3560   35.3430   46.6860 C.3   163  ARG163      0.2205
     50  NE        14.1050   36.3760   45.6850 N.pl3 163  ARG163     -0.0865
     51  CZ        14.2720   36.2000   44.3770 C.cat 163  ARG163      0.5346
     52  NH1       14.0380   37.1970   43.5350 N.pl3 163  ARG163      0.1354
     53  NH2       14.6600   35.0280   43.9060 N.pl3 163  ARG163      0.1354
     54  N         17.6410   33.7970   50.3370 N.am  164  GLY164     -0.1955
     55  CA        17.7790   32.3480   50.4330 C.3   164  GLY164      0.1869
     56  C         18.5940   31.8550   51.6010 C.2   164  GLY164      0.2309
     57  O         19.4360   32.5750   52.1470 O.2   164  GLY164     -0.2863
     58  N         20.6820   28.1870   52.7040 N.3   166  HIS166     -0.1241
     59  CA        21.2360   26.9460   52.1500 C.3   166  HIS166      0.1621
     60  C         21.7650   26.0230   53.2290 C.2   166  HIS166      0.2264
     61  O         22.3580   26.4830   54.2080 O.2   166  HIS166     -0.2867
     62  CB        22.3700   27.2540   51.1630 C.3   166  HIS166      0.0745
     63  CG        21.9620   28.1710   50.0530 C.ar  166  HIS166      0.0817
     64  ND1       22.8710   28.8850   49.2990 N.ar  166  HIS166     -0.2268
     65  CD2       20.7340   28.5060   49.5820 C.ar  166  HIS166      0.1154
     66  CE1       22.2220   29.6040   48.3990 C.ar  166  HIS166      0.1986
     67  NE2       20.9250   29.3950   48.5540 N.ar  166  HIS166     -0.2212
     68  N         25.6390   28.1840   44.9930 N.3   318  LYS318     -0.1245
     69  CA        26.4610   29.3230   45.3960 C.3   318  LYS318      0.1561
     70  C         27.3280   29.0000   46.6170 C.2   318  LYS318      0.2260
     71  O         26.8340   28.4880   47.6320 O.2   318  LYS318     -0.2867
     72  CB        25.5670   30.5360   45.7000 C.3   318  LYS318      0.0271
     73  CG        26.3060   31.7330   46.3010 C.3   318  LYS318      0.0035
     74  CD        25.4000   32.6820   47.0930 C.3   318  LYS318      0.0206
     75  CE        24.8940   33.8080   46.2280 C.3   318  LYS318      0.1093
     76  NZ        25.9850   34.2390   45.3130 N.3   318  LYS318     -0.1314
     77  N         26.9770   38.2150   47.0280 N.3   324  HIS324     -0.1241
     78  CA        25.7680   38.3330   46.2250 C.3   324  HIS324      0.1621
     79  C         25.8540   39.6300   45.4220 C.2   324  HIS324      0.2264
     80  O         25.8100   40.7140   45.9990 O.2   324  HIS324     -0.2867
     81  CB        24.4960   38.3020   47.0730 C.3   324  HIS324      0.0745
     82  CG        23.2950   37.8380   46.3070 C.ar  324  HIS324      0.0817
     83  ND1       22.6870   38.6110   45.3410 N.ar  324  HIS324     -0.2268
     84  CD2       22.6210   36.6630   46.3280 C.ar  324  HIS324      0.1154
     85  CE1       21.6780   37.9400   44.8130 C.ar  324  HIS324      0.1986
     86  NE2       21.6150   36.7570   45.3960 N.ar  324  HIS324     -0.2212
     87  N         23.8450   41.2490   43.5230 N.3   326  LYS326     -0.1245
     88  CA        22.6750   42.1190   43.5650 C.3   326  LYS326      0.1561
     89  C         22.5900   42.9560   44.8340 C.2   326  LYS326      0.2260
     90  O         22.0920   44.0740   44.7940 O.2   326  LYS326     -0.2867
     91  CB        21.3860   41.3220   43.3540 C.3   326  LYS326      0.0271
     92  CG        21.0910   41.0580   41.8810 C.3   326  LYS326      0.0035
     93  CD        19.9320   40.0980   41.6680 C.3   326  LYS326      0.0206
     94  CE        20.3970   38.6530   41.5680 C.3   326  LYS326      0.1093
     95  NZ        19.2450   37.7210   41.4180 N.3   326  LYS326     -0.1314
@<TRIPOS>BOND
     1     9     8    1
     2     8     7    1
     3     4     3    2
     4     1     2    1
     5     5     6    1
     6     5     2    1
     7    95    94    1
     8     7     6    1
     9    94    93    1
    10    93    92    1
    11     3     2    1
    12    92    91    1
    13    91    88    1
    14    41    40    1
    15    87    88    1
    16    52    51    1
    17    88    89    1
    18    53    51    1
    19    42    40    1
    20    51    50    2
    21    40    39    2
    22    90    89    2
    23    85    83   ar
    24    85    86   ar
    25    25    23   ar
    26    68    69    1
    27    76    75    1
    28    83    82   ar
    29    69    72    1
    30    69    70    1
    31    86    84   ar
    32    79    80    2
    33    79    78    1
    34    50    49    1
    35    72    73    1
    36    39    38    1
    37    17    15   ar
    38    38    37    1
    39    23    24   ar
    40    23    22    1
    41    78    77    1
    42    78    81    1
    43    75    74    1
    44    73    74    1
    45    82    84   ar
    46    82    81    1
    47    70    71    2
    48    49    48    1
    49    22    19    1
    50    15    14    1
    51    15    16   ar
    52    48    47    1
    53    37    36    1
    54    14    11    1
    55    36    33    1
    56    66    67   ar
    57    66    64   ar
    58    13    12    2
    59    67    65   ar
    60    19    20    1
    61    19    18    1
    62    47    44    1
    63    21    20    2
    64    11    12    1
    65    11    10    1
    66    29    28    2
    67    64    63   ar
    68    43    44    1
    69    43    34   am
    70    30    31    1
    71    30    27    1
    72    33    32    1
    73    33    34    1
    74    65    63   ar
    75    44    45    1
    76    46    45    2
    77    45    54   am
    78    63    62    1
    79    28    27    1
    80    34    35    2
    81    54    55    1
    82    27    26    1
    83    55    56    1
    84    62    59    1
    85    56    57    2
    86    59    58    1
    87    59    60    1
    88    60    61    2
