@<TRIPOS>MOLECULE
tmp/4mhsA00.pdb
 235 226 0 0 0
SMALL
GASTEIGER

@<TRIPOS>ATOM
      1  N         33.0460   20.2150   39.4910 N.3    77  GLU77      -0.1245
      2  CA        31.7310   20.7180   39.1060 C.3    77  GLU77       0.1567
      3  C         30.7700   19.5670   38.8190 C.2    77  GLU77       0.2260
      4  O         31.1430   18.5970   38.1480 O.2    77  GLU77      -0.2867
      5  CB        31.8190   21.6360   37.8750 C.3    77  GLU77       0.0388
      6  CG        32.7260   22.8420   38.0920 C.3    77  GLU77       0.1160
      7  CD        32.6420   23.8790   36.9930 C.2    77  GLU77       0.3649
      8  OE1       33.5240   24.7660   36.9710 O.co2  77  GLU77      -0.2457
      9  OE2       31.7010   23.8310   36.1620 O.co2  77  GLU77      -0.2457
     10  N         29.5130   25.6200   36.0740 N.3   122  ASN122     -0.1225
     11  CA        29.4900   26.8140   35.2460 C.3   122  ASN122      0.1785
     12  C         28.7360   26.6400   33.9250 C.2   122  ASN122      0.2598
     13  O         28.0740   27.5490   33.4690 O.2   122  ASN122     -0.2718
     14  CB        30.9220   27.2470   34.9440 C.3   122  ASN122      0.1169
     15  CG        31.5320   28.0440   36.0730 C.2   122  ASN122      0.2627
     16  OD1       31.1770   29.2040   36.2840 O.2   122  ASN122     -0.2716
     17  ND2       32.4580   27.4350   36.8000 N.am  122  ASN122     -0.0877
     18  N         28.8890   25.4820   33.3030 N.am  123  GLY123     -0.1942
     19  CA        28.2840   25.2280   31.9940 C.3   123  GLY123      0.2014
     20  C         28.6000   23.8300   31.5400 C.2   123  GLY123      0.2639
     21  O         28.2920   22.8700   32.2470 O.2   123  GLY123     -0.2714
     22  N         29.2510   23.7220   30.3830 N.am  124  GLY124     -0.1939
     23  CA        29.4040   22.4550   29.6700 C.3   124  GLY124      0.2014
     24  C         30.0790   21.3280   30.4320 C.2   124  GLY124      0.2638
     25  O         29.5830   20.1870   30.4980 O.2   124  GLY124     -0.2714
     26  N         31.2250   21.6460   31.0200 N.am  125  LEU125     -0.1977
     27  CA        32.0160   20.6560   31.7380 C.3   125  LEU125      0.1596
     28  C         31.2720   20.1150   32.9750 C.2   125  LEU125      0.2287
     29  O         31.3380   18.9240   33.2820 O.2   125  LEU125     -0.2864
     30  CB        33.3570   21.2930   32.1180 C.3   125  LEU125      0.0297
     31  CG        34.3000   20.5860   33.0880 C.3   125  LEU125      0.0022
     32  CD1       35.7140   21.1200   32.8850 C.3   125  LEU125      0.0001
     33  CD2       33.8550   20.8060   34.5290 C.3   125  LEU125      0.0001
     34  N         28.2130   18.0030   31.7590 N.3   128  LEU128     -0.1245
     35  CA        28.6970   16.7230   31.2580 C.3   128  LEU128      0.1561
     36  C         28.8800   15.7260   32.3860 C.2   128  LEU128      0.2260
     37  O         28.5100   14.5610   32.2590 O.2   128  LEU128     -0.2867
     38  CB        30.0110   16.8960   30.5240 C.3   128  LEU128      0.0270
     39  CG        30.5160   15.6390   29.8140 C.3   128  LEU128      0.0019
     40  CD1       29.7490   15.3880   28.5360 C.3   128  LEU128      0.0001
     41  CD2       31.9960   15.7490   29.5000 C.3   128  LEU128      0.0001
     42  N         34.0060   28.8590   42.0000 N.3   264  TYR264     -0.1241
     43  CA        34.6370   29.8450   41.1120 C.3   264  TYR264      0.1605
     44  C         33.8720   29.9100   39.7850 C.2   264  TYR264      0.2264
     45  O         33.6790   28.8770   39.1310 O.2   264  TYR264     -0.2867
     46  CB        36.0990   29.5180   40.8690 C.3   264  TYR264      0.0534
     47  CG        36.9880   30.0980   41.9450 C.ar  264  TYR264     -0.0201
     48  CD1       37.1250   29.4630   43.1720 C.ar  264  TYR264     -0.0009
     49  CD2       37.6480   31.3000   41.7450 C.ar  264  TYR264     -0.0009
     50  CE1       37.9260   29.9890   44.1650 C.ar  264  TYR264      0.0417
     51  CE2       38.4580   31.8410   42.7350 C.ar  264  TYR264      0.0417
     52  CZ        38.5840   31.1900   43.9440 C.ar  264  TYR264      0.1957
     53  OH        39.3710   31.7220   44.9320 O.3   264  TYR264     -0.2866
     54  N         34.6030   31.4990   36.8790 N.3   266  ASN266     -0.1225
     55  CA        35.3630   31.9950   35.7280 C.3   266  ASN266      0.1785
     56  C         35.8150   30.8320   34.8730 C.2   266  ASN266      0.2597
     57  O         36.9010   30.2900   35.0970 O.2   266  ASN266     -0.2718
     58  CB        36.5410   32.9030   36.1500 C.3   266  ASN266      0.1169
     59  CG        37.4050   32.3080   37.2650 C.2   266  ASN266      0.2627
     60  OD1       36.8960   31.7170   38.2160 O.2   266  ASN266     -0.2716
     61  ND2       38.7210   32.4910   37.1620 N.am  266  ASN266     -0.0877
     62  N         34.9770   30.4730   33.8860 N.am  267  ASP267     -0.1960
     63  CA        35.0580   29.1780   33.1820 C.3   267  ASP267      0.1840
     64  C         35.8540   29.0610   31.8630 C.2   267  ASP267      0.2622
     65  O         35.9860   27.9600   31.3360 O.2   267  ASP267     -0.2715
     66  CB        33.6570   28.6470   32.9160 C.3   267  ASP267      0.1450
     67  CG        32.9460   29.4170   31.8530 C.2   267  ASP267      0.3671
     68  OD1       33.1280   30.6530   31.8300 O.co2 267  ASP267     -0.2456
     69  OD2       32.2200   28.7970   31.0470 O.co2 267  ASP267     -0.2456
     70  N         36.3660   30.1480   31.3050 N.am  268  ASN268     -0.1958
     71  CA        37.4530   30.0020   30.3160 C.3   268  ASN268      0.1819
     72  C         38.4860   31.1200   30.4640 C.2   268  ASN268      0.2621
     73  O         39.0030   31.6700   29.4840 O.2   268  ASN268     -0.2715
     74  CB        36.9210   29.8300   28.8730 C.3   268  ASN268      0.1195
     75  CG        36.8950   28.3640   28.4170 C.2   268  ASN268      0.2630
     76  OD1       35.8470   27.7100   28.4220 O.2   268  ASN268     -0.2716
     77  ND2       38.0550   27.8480   28.0150 N.am  268  ASN268     -0.0877
     78  N         38.7560   31.4450   31.7260 N.am  269  PHE269     -0.1960
     79  CA        39.9760   32.1110   32.1220 C.3   269  PHE269      0.1771
     80  C         40.5540   31.2680   33.2660 C.2   269  PHE269      0.2620
     81  O         39.8080   30.5510   33.9670 O.2   269  PHE269     -0.2715
     82  CB        39.6980   33.5520   32.5580 C.3   269  PHE269      0.0574
     83  CG        40.9010   34.4550   32.4840 C.ar  269  PHE269     -0.0200
     84  CD1       41.5870   34.6230   31.2860 C.ar  269  PHE269     -0.0042
     85  CD2       41.3440   35.1510   33.6080 C.ar  269  PHE269     -0.0042
     86  CE1       42.6990   35.4550   31.2080 C.ar  269  PHE269     -0.0003
     87  CE2       42.4540   35.9850   33.5350 C.ar  269  PHE269     -0.0003
     88  CZ        43.1320   36.1370   32.3340 C.ar  269  PHE269     -0.0000
     89  N         41.8770   31.2950   33.4140 N.am  270  PHE270     -0.1960
     90  CA        42.5150   30.6950   34.5820 C.3   270  PHE270      0.1771
     91  C         42.9920   31.8170   35.4870 C.2   270  PHE270      0.2619
     92  O         43.7250   32.7010   35.0540 O.2   270  PHE270     -0.2715
     93  CB        43.6940   29.7820   34.2170 C.3   270  PHE270      0.0574
     94  CG        44.5270   29.3630   35.4130 C.ar  270  PHE270     -0.0200
     95  CD1       43.9830   28.5510   36.4060 C.ar  270  PHE270     -0.0042
     96  CD2       45.8360   29.8080   35.5680 C.ar  270  PHE270     -0.0042
     97  CE1       44.7360   28.1690   37.5120 C.ar  270  PHE270     -0.0003
     98  CE2       46.5950   29.4220   36.6660 C.ar  270  PHE270     -0.0003
     99  CZ        46.0430   28.6020   37.6400 C.ar  270  PHE270     -0.0000
    100  N         42.5750   31.7610   36.7470 N.am  271  GLU271     -0.1977
    101  CA        43.0740   32.6730   37.7640 C.3   271  GLU271      0.1602
    102  C         43.7710   31.8260   38.8210 C.2   271  GLU271      0.2287
    103  O         43.1540   30.9300   39.4280 O.2   271  GLU271     -0.2864
    104  CB        41.9160   33.4800   38.3790 C.3   271  GLU271      0.0415
    105  CG        42.3200   34.8510   38.9220 C.3   271  GLU271      0.1163
    106  CD        42.2450   35.9670   37.8820 C.2   271  GLU271      0.3649
    107  OE1       41.6820   37.0400   38.1960 O.co2 271  GLU271     -0.2457
    108  OE2       42.7450   35.7750   36.7510 O.co2 271  GLU271     -0.2457
    109  N         41.3450   28.6480   45.3220 N.3   276  ARG276     -0.1245
    110  CA        41.0220   27.6190   44.3120 C.3   276  ARG276      0.1563
    111  C         41.9610   26.4100   44.3900 C.2   276  ARG276      0.2260
    112  O         41.5310   25.2590   44.2270 O.2   276  ARG276     -0.2867
    113  CB        41.0580   28.2130   42.9150 C.3   276  ARG276      0.0307
    114  CG        40.9840   27.2020   41.7870 C.3   276  ARG276      0.0489
    115  CD        39.6180   26.5420   41.7090 C.3   276  ARG276      0.2205
    116  NE        39.5410   25.6540   40.5420 N.pl3 276  ARG276     -0.0865
    117  CZ        38.4120   25.2470   39.9610 C.cat 276  ARG276      0.5346
    118  NH1       37.2290   25.6270   40.4270 N.pl3 276  ARG276      0.1354
    119  NH2       38.4680   24.4460   38.8970 N.pl3 276  ARG276      0.1354
    120  N         39.1090   17.3100   33.3490 N.3   313  ASP313     -0.1239
    121  CA        40.0660   18.3940   33.1150 C.3   313  ASP313      0.1674
    122  C         41.2180   18.2610   34.1080 C.2   313  ASP313      0.2266
    123  O         41.3370   17.2380   34.7710 O.2   313  ASP313     -0.2867
    124  CB        39.4060   19.7700   33.1690 C.3   313  ASP313      0.1410
    125  CG        40.0440   20.7520   32.1940 C.2   313  ASP313      0.3668
    126  OD1       41.2680   20.9240   32.2310 O.co2 313  ASP313     -0.2456
    127  OD2       39.3340   21.3390   31.3780 O.co2 313  ASP313     -0.2456
    128  N         41.5620   20.0520   36.7460 N.3   315  HIS315     -0.1241
    129  CA        41.1990   20.6170   38.0590 C.3   315  HIS315      0.1621
    130  C         41.5140   19.6760   39.2470 C.2   315  HIS315      0.2264
    131  O         41.9010   20.1560   40.3010 O.2   315  HIS315     -0.2867
    132  CB        39.7500   21.1000   38.0940 C.3   315  HIS315      0.0745
    133  CG        39.3800   21.9560   36.9320 C.ar  315  HIS315      0.0817
    134  ND1       38.0920   22.0540   36.4600 N.ar  315  HIS315     -0.2268
    135  CD2       40.1420   22.7120   36.1060 C.ar  315  HIS315      0.1154
    136  CE1       38.0690   22.8600   35.4160 C.ar  315  HIS315      0.1986
    137  NE2       39.2980   23.2820   35.1890 N.ar  315  HIS315     -0.2212
    138  N         39.2880   19.4490   27.9500 N.3   351  HIS351     -0.1226
    139  CA        38.0880   20.1370   27.5240 C.3   351  HIS351      0.1752
    140  C         38.3190   21.4460   26.7790 C.2   351  HIS351      0.2596
    141  O         37.3470   22.1430   26.4820 O.2   351  HIS351     -0.2718
    142  CB        37.2190   20.4510   28.7350 C.3   351  HIS351      0.0759
    143  CG        36.6400   19.2450   29.3880 C.ar  351  HIS351      0.0818
    144  ND1       35.4420   18.6940   28.9960 N.ar  351  HIS351     -0.2268
    145  CD2       37.0870   18.4880   30.4160 C.ar  351  HIS351      0.1154
    146  CE1       35.1720   17.6510   29.7570 C.ar  351  HIS351      0.1986
    147  NE2       36.1580   17.5030   30.6260 N.ar  351  HIS351     -0.2212
    148  N         39.5630   21.8140   26.4820 N.am  352  THR352     -0.1953
    149  CA        39.7770   23.0560   25.7190 C.3   352  THR352      0.1897
    150  C         41.1720   23.2010   25.1670 C.2   352  THR352      0.2313
    151  O         42.0950   22.5290   25.6090 O.2   352  THR352     -0.2863
    152  CB        39.4500   24.3390   26.5280 C.3   352  THR352      0.1794
    153  OG1       39.5170   25.5060   25.6660 O.3   352  THR352     -0.2208
    154  CG2       40.4110   24.4720   27.7100 C.3   352  THR352      0.0378
    155  N         42.9460   29.2330   29.2640 N.3   357  ALA357     -0.1245
    156  CA        42.1400   28.3670   30.1100 C.3   357  ALA357      0.1562
    157  C         42.9990   27.2840   30.7800 C.2   357  ALA357      0.2260
    158  O         42.5460   26.6550   31.7420 O.2   357  ALA357     -0.2867
    159  CB        41.0110   27.7360   29.3050 C.3   357  ALA357      0.0290
    160  N         45.5590   25.4550   33.1860 N.3   359  GLU359     -0.1245
    161  CA        46.0260   25.6680   34.5480 C.3   359  GLU359      0.1567
    162  C         47.5370   25.5640   34.6180 C.2   359  GLU359      0.2260
    163  O         48.1150   24.5060   34.3750 O.2   359  GLU359     -0.2867
    164  CB        45.4270   24.6550   35.5250 C.3   359  GLU359      0.0388
    165  CG        43.9490   24.8440   35.7960 C.3   359  GLU359      0.1160
    166  CD        43.5030   24.0500   37.0030 C.2   359  GLU359      0.3649
    167  OE1       43.4550   22.8050   36.9040 O.co2 359  GLU359     -0.2457
    168  OE2       43.2250   24.6780   38.0460 O.co2 359  GLU359     -0.2457
    169  N         37.1420   15.5020   23.4080 N.3   429  VAL429     -0.1245
    170  CA        35.7180   15.3430   23.6450 C.3   429  VAL429      0.1561
    171  C         34.8840   15.4650   22.3700 C.2   429  VAL429      0.2260
    172  O         33.6570   15.5110   22.4350 O.2   429  VAL429     -0.2867
    173  CB        35.2520   16.3630   24.7120 C.3   429  VAL429      0.0252
    174  CG1       35.7620   15.9300   26.0860 C.3   429  VAL429      0.0019
    175  CG2       35.7330   17.7630   24.3630 C.3   429  VAL429      0.0019
    176  N         31.5480   13.6930   23.2260 N.3   458  ASN458     -0.1240
    177  CA        30.5390   13.9980   24.2550 C.3   458  ASN458      0.1653
    178  C         29.1340   13.5270   23.8800 C.2   458  ASN458      0.2266
    179  O         28.8530   13.1610   22.7230 O.2   458  ASN458     -0.2867
    180  CB        30.5100   15.5090   24.5280 C.3   458  ASN458      0.1155
    181  CG        31.6540   15.9680   25.4410 C.2   458  ASN458      0.2627
    182  OD1       31.8780   17.1820   25.6280 O.2   458  ASN458     -0.2716
    183  ND2       32.3730   15.0140   26.0120 N.am  458  ASN458     -0.0877
    184  N         34.7570   33.7840   22.0570 N.3   547  TYR547     -0.1227
    185  CA        34.9130   32.6680   21.1340 C.3   547  TYR547      0.1736
    186  C         33.5850   32.0710   20.6880 C.2   547  TYR547      0.2595
    187  O         33.5260   31.4720   19.6030 O.2   547  TYR547     -0.2718
    188  CB        35.8750   31.5870   21.6740 C.3   547  TYR547      0.0548
    189  CG        35.2960   30.4700   22.5130 C.ar  547  TYR547     -0.0200
    190  CD1       34.7120   29.3600   21.9160 C.ar  547  TYR547     -0.0009
    191  CD2       35.3970   30.4800   23.9080 C.ar  547  TYR547     -0.0009
    192  CE1       34.2140   28.3210   22.6710 C.ar  547  TYR547      0.0417
    193  CE2       34.8960   29.4390   24.6740 C.ar  547  TYR547      0.0417
    194  CZ        34.3090   28.3610   24.0550 C.ar  547  TYR547      0.1957
    195  OH        33.7980   27.3060   24.7880 O.3   547  TYR547     -0.2866
    196  N         32.5410   32.2230   21.5060 N.am  548  LYS548     -0.1980
    197  CA        31.2180   31.7020   21.1730 C.3   548  LYS548      0.1596
    198  C         30.4810   32.6610   20.1990 C.2   548  LYS548      0.2287
    199  O         29.5140   32.2700   19.5550 O.2   548  LYS548     -0.2864
    200  CB        30.3910   31.4140   22.4440 C.3   548  LYS548      0.0298
    201  CG        30.9360   30.2440   23.2780 C.3   548  LYS548      0.0038
    202  CD        30.2710   30.1410   24.6470 C.3   548  LYS548      0.0206
    203  CE        30.8090   29.0120   25.5250 C.3   548  LYS548      0.1093
    204  NZ        30.4150   27.6790   24.9690 N.3   548  LYS548     -0.1314
    205  N         35.5420   25.6890   19.9610 N.3   646  GLU646     -0.1231
    206  CA        34.6130   24.9590   20.8380 C.3   646  GLU646      0.1699
    207  C         35.0070   23.4880   20.7980 C.2   646  GLU646      0.2592
    208  O         34.8110   22.8400   19.7870 O.2   646  GLU646     -0.2718
    209  CB        33.1640   25.1450   20.3880 C.3   646  GLU646      0.0402
    210  CG        32.1090   24.6430   21.3800 C.3   646  GLU646      0.1161
    211  CD        31.9790   25.5430   22.5990 C.2   646  GLU646      0.3649
    212  OE1       32.6750   25.2790   23.6000 O.co2 646  GLU646     -0.2457
    213  OE2       31.2110   26.5330   22.5360 O.co2 646  GLU646     -0.2457
    214  N         35.5700   22.9550   21.8900 N.am  647  ALA647     -0.1966
    215  CA        36.0830   21.5780   21.8880 C.3   647  ALA647      0.1728
    216  C         35.0260   20.5750   21.4200 C.2   647  ALA647      0.2617
    217  O         35.3090   19.7030   20.5760 O.2   647  ALA647     -0.2715
    218  CB        36.5990   21.1900   23.2650 C.3   647  ALA647      0.0334
    219  N         33.8160   20.7110   21.9610 N.am  648  SER648     -0.1936
    220  CA        32.6910   19.8540   21.5630 C.3   648  SER648      0.2055
    221  C         31.4080   20.6360   21.4450 C.2   648  SER648      0.2644
    222  O         30.8300   20.7460   20.3530 O.2   648  SER648     -0.2714
    223  CB        32.4930   18.7170   22.5560 C.3   648  SER648      0.2130
    224  OG        31.3500   17.9500   22.2180 O.3   648  SER648     -0.2179
    225  N         30.9790   21.2020   22.5670 N.am  649  GLY649     -0.1939
    226  CA        29.6370   21.7120   22.7090 C.3   649  GLY649      0.2014
    227  C         28.7680   20.5330   23.1300 C.2   649  GLY649      0.2639
    228  O         29.0760   19.3890   22.7900 O.2   649  GLY649     -0.2714
    229  N         27.7290   20.8160   23.9140 N.am  650  THR650     -0.1950
    230  CA        26.6970   19.8320   24.2650 C.3   650  THR650      0.1897
    231  C         25.3090   20.4350   24.1340 C.2   650  THR650      0.2313
    232  O         24.3380   19.7250   23.8610 O.2   650  THR650     -0.2863
    233  CB        26.8650   19.2730   25.6910 C.3   650  THR650      0.1794
    234  OG1       26.8960   20.3450   26.6120 O.3   650  THR650     -0.2208
    235  CG2       28.1230   18.5000   25.8040 C.3   650  THR650      0.0378
@<TRIPOS>BOND
     1   199   198    2
     2   187   186    2
     3   208   207    2
     4   205   206    1
     5   198   197    1
     6   222   221    2
     7   209   206    1
     8   209   210    1
     9   217   216    2
    10   186   185    1
    11   186   196   am
    12   207   206    1
    13   207   214   am
    14   185   188    1
    15   185   184    1
    16   197   196    1
    17   197   200    1
    18   210   211    1
    19   216   215    1
    20   216   219   am
    21   221   220    1
    22   221   225   am
    23   220   219    1
    24   220   223    1
    25   188   189    1
    26   215   214    1
    27   215   218    1
    28   190   189   ar
    29   190   192   ar
    30   224   223    1
    31   171   172    2
    32   171   170    1
    33   200   201    1
    34   189   191   ar
    35   213   211   ar
    36   225   226    1
    37   211   212   ar
    38   192   194   ar
    39   226   227    1
    40   179   178    2
    41   228   227    2
    42   227   229   am
    43   176   177    1
    44   201   202    1
    45   169   170    1
    46   170   173    1
    47   232   231    2
    48   178   177    1
    49   191   193   ar
    50   229   230    1
    51   194   193   ar
    52   194   195    1
    53   231   230    1
    54   177   180    1
    55   230   233    1
    56   175   173    1
    57   180   181    1
    58   202   203    1
    59   173   174    1
    60   204   203    1
    61   150   151    2
    62   150   149    1
    63   181   182    2
    64   181   183   am
    65   153   152    1
    66   233   235    1
    67   233   234    1
    68   149   148    1
    69   149   152    1
    70   148   140   am
    71   141   140    2
    72   152   154    1
    73   140   139    1
    74   139   138    1
    75   139   142    1
    76    77    75   am
    77    75    76    2
    78    75    74    1
    79    40    39    1
    80   142   143    1
    81    74    71    1
    82   144   143   ar
    83   144   146   ar
    84   155   156    1
    85   159   156    1
    86   143   145   ar
    87    73    72    2
    88    41    39    1
    89    23    22    1
    90    23    24    1
    91   146   147   ar
    92    39    38    1
    93   156   157    1
    94    71    72    1
    95    71    70    1
    96    22    20   am
    97   145   147   ar
    98    24    25    2
    99    24    26   am
   100    72    78   am
   101    38    35    1
   102   157   158    2
   103    26    27    1
   104    69    67   ar
   105    86    84   ar
   106    86    88   ar
   107    35    34    1
   108    35    36    1
   109    84    83   ar
   110    70    64   am
   111    65    64    2
   112   127   125   ar
   113    20    19    1
   114    20    21    2
   115    78    79    1
   116    27    30    1
   117    27    28    1
   118    68    67   ar
   119    67    66    1
   120    64    63    1
   121    19    18    1
   122    30    31    1
   123    79    82    1
   124    79    80    1
   125   125   126   ar
   126   125   124    1
   127    37    36    2
   128    88    87   ar
   129    83    82    1
   130    83    85   ar
   131    32    31    1
   132    66    63    1
   133    28    29    2
   134    31    33    1
   135   121   124    1
   136   121   120    1
   137   121   122    1
   138    63    62    1
   139   160   161    1
   140    80    89   am
   141    80    81    2
   142    18    12   am
   143    89    90    1
   144    13    12    2
   145    87    85   ar
   146    62    56   am
   147    12    11    1
   148   122   123    2
   149    93    90    1
   150    93    94    1
   151   163   162    2
   152   161   162    1
   153   161   164    1
   154    90    91    1
   155    56    57    2
   156    56    55    1
   157    14    11    1
   158    14    15    1
   159    92    91    2
   160   137   136   ar
   161   137   135   ar
   162    11    10    1
   163    94    96   ar
   164    94    95   ar
   165   136   134   ar
   166    91   100   am
   167   164   165    1
   168    96    98   ar
   169    55    58    1
   170    55    54    1
   171   165   166    1
   172    15    16    2
   173    15    17   am
   174   135   133   ar
   175    58    59    1
   176     9     7   ar
   177    95    97   ar
   178   134   133   ar
   179    98    99   ar
   180   128   129    1
   181   100   101    1
   182   108   106   ar
   183   167   166   ar
   184   133   132    1
   185     8     7   ar
   186     7     6    1
   187   166   168   ar
   188    61    59   am
   189    59    60    2
   190    97    99   ar
   191   101   104    1
   192   101   102    1
   193     5     6    1
   194     5     2    1
   195   106   107   ar
   196   106   105    1
   197   129   132    1
   198   129   130    1
   199     4     3    2
   200   104   105    1
   201     3     2    1
   202   102   103    2
   203   119   117    1
   204     2     1    1
   205    45    44    2
   206   130   131    2
   207    44    43    1
   208   117   118    1
   209   117   116    2
   210   116   115    1
   211    46    43    1
   212    46    47    1
   213    43    42    1
   214   115   114    1
   215    49    47   ar
   216    49    51   ar
   217   114   113    1
   218    47    48   ar
   219    51    52   ar
   220   113   110    1
   221    48    50   ar
   222    52    50   ar
   223    52    53    1
   224   112   111    2
   225   110   111    1
   226   110   109    1
