@<TRIPOS>MOLECULE
tmp/4mhwA03.pdb
 171 168 0 0 0
SMALL
GASTEIGER

@<TRIPOS>ATOM
      1  N         31.1620   19.4690   46.2850 N.3    24  ASN24      -0.1240
      2  CA        30.8500   18.7640   45.0490 C.3    24  ASN24       0.1653
      3  C         29.8120   19.4750   44.1490 C.2    24  ASN24       0.2266
      4  O         29.2220   18.8950   43.2360 O.2    24  ASN24      -0.2867
      5  CB        30.3750   17.3500   45.3920 C.3    24  ASN24       0.1155
      6  CG        29.1010   17.3360   46.2160 C.2    24  ASN24       0.2627
      7  OD1       28.6540   18.3660   46.7420 O.2    24  ASN24      -0.2716
      8  ND2       28.5150   16.1630   46.3500 N.am   24  ASN24      -0.0877
      9  N         21.9140   23.3570   42.8110 N.3    29  TRP29      -0.1241
     10  CA        21.7680   21.9960   43.3430 C.3    29  TRP29       0.1605
     11  C         22.2390   20.9250   42.3720 C.2    29  TRP29       0.2264
     12  O         21.8600   19.7940   42.5180 O.2    29  TRP29      -0.2867
     13  CB        20.3270   21.7370   43.8170 C.3    29  TRP29       0.0550
     14  CG        20.2580   21.5620   45.3260 C.ar   29  TRP29       0.0003
     15  CD1       19.7220   22.4290   46.2380 C.ar   29  TRP29       0.0946
     16  CD2       20.7830   20.4580   46.0820 C.ar   29  TRP29       0.0152
     17  NE1       19.8730   21.9240   47.5130 N.ar   29  TRP29      -0.2442
     18  CE2       20.5210   20.7200   47.4440 C.ar   29  TRP29       0.0810
     19  CE3       21.4470   19.2700   45.7370 C.ar   29  TRP29       0.0012
     20  CZ2       20.8940   19.8320   48.4610 C.ar   29  TRP29       0.0191
     21  CZ3       21.8210   18.3930   46.7460 C.ar   29  TRP29       0.0001
     22  CH2       21.5450   18.6780   48.0900 C.ar   29  TRP29       0.0015
     23  N         25.1500   18.6040   41.4270 N.3    31  ILE31      -0.1245
     24  CA        26.3160   18.1350   42.1380 C.3    31  ILE31       0.1561
     25  C         26.9230   16.9560   41.4380 C.2    31  ILE31       0.2260
     26  O         26.2810   16.3120   40.5980 O.2    31  ILE31      -0.2867
     27  CB        25.9520   17.7810   43.5720 C.3    31  ILE31       0.0252
     28  CG1       24.8740   16.6980   43.6100 C.3    31  ILE31       0.0019
     29  CG2       25.4450   19.0110   44.2710 C.3    31  ILE31       0.0019
     30  CD1       24.5680   16.2470   44.9970 C.3    31  ILE31       0.0001
     31  N         28.0870   13.6360   42.8110 N.3    33  GLU33      -0.1245
     32  CA        28.0720   12.9840   44.1330 C.3    33  GLU33       0.1567
     33  C         29.0480   11.7940   44.2600 C.2    33  GLU33       0.2260
     34  O         28.6310   10.6680   44.4440 O.2    33  GLU33      -0.2867
     35  CB        26.6540   12.5600   44.5830 C.3    33  GLU33       0.0388
     36  CG        26.5490   12.5480   46.1190 C.3    33  GLU33       0.1160
     37  CD        25.2010   12.0710   46.6320 C.2    33  GLU33       0.3649
     38  OE1       24.4880   11.4780   45.8300 O.co2  33  GLU33      -0.2457
     39  OE2       24.8470   12.2880   47.8230 O.co2  33  GLU33      -0.2457
     40  N         20.2810   18.3060   54.1640 N.3    69  TYR69      -0.1241
     41  CA        19.3170   19.4030   53.9470 C.3    69  TYR69       0.1605
     42  C         17.9170   18.8070   54.0300 C.2    69  TYR69       0.2264
     43  O         17.4750   18.0300   53.1520 O.2    69  TYR69      -0.2867
     44  CB        19.5520   20.0830   52.5880 C.3    69  TYR69       0.0534
     45  CG        21.0040   20.4290   52.3790 C.ar   69  TYR69      -0.0201
     46  CD1       21.8990   19.5070   51.8270 C.ar   69  TYR69      -0.0009
     47  CD2       21.4970   21.6650   52.7670 C.ar   69  TYR69      -0.0009
     48  CE1       23.2440   19.8280   51.6670 C.ar   69  TYR69       0.0417
     49  CE2       22.8230   21.9890   52.6020 C.ar   69  TYR69       0.0417
     50  CZ        23.6890   21.0770   52.0650 C.ar   69  TYR69       0.1957
     51  OH        25.0030   21.4450   51.9240 O.3    69  TYR69      -0.2866
     52  N         14.9350   11.3140   50.8520 N.3    79  GLU79      -0.1231
     53  CA        16.2500   11.6840   50.2900 C.3    79  GLU79       0.1699
     54  C         17.4880   11.2840   51.1020 C.2    79  GLU79       0.2592
     55  O         18.6180   11.3250   50.5890 O.2    79  GLU79      -0.2718
     56  CB        16.3260   13.1990   50.0480 C.3    79  GLU79       0.0402
     57  CG        15.2190   13.7350   49.1200 C.3    79  GLU79       0.1161
     58  CD        15.6100   15.0610   48.5130 C.2    79  GLU79       0.3649
     59  OE1       16.3810   14.9740   47.5340 O.co2  79  GLU79      -0.2457
     60  OE2       15.1840   16.1640   49.0130 O.co2  79  GLU79      -0.2457
     61  N         17.3000   10.9310   52.3710 N.am   80  TYR80      -0.1976
     62  CA        18.4450   10.5560   53.2130 C.3    80  TYR80       0.1639
     63  C         18.2710    9.1710   53.8680 C.2    80  TYR80       0.2290
     64  O         19.0840    8.7790   54.6980 O.2    80  TYR80      -0.2864
     65  CB        18.7430   11.6570   54.2640 C.3    80  TYR80       0.0560
     66  CG        19.3660   12.9380   53.6870 C.ar   80  TYR80      -0.0198
     67  CD1       20.7530   13.0390   53.4930 C.ar   80  TYR80      -0.0009
     68  CD2       18.5720   14.0430   53.3430 C.ar   80  TYR80      -0.0009
     69  CE1       21.3310   14.1930   52.9680 C.ar   80  TYR80       0.0417
     70  CE2       19.1420   15.2070   52.8150 C.ar   80  TYR80       0.0417
     71  CZ        20.5260   15.2800   52.6240 C.ar   80  TYR80       0.1957
     72  OH        21.1060   16.4400   52.1120 O.3    80  TYR80      -0.2866
     73  N         18.8360    6.2150   42.4850 N.3   116  LYS116     -0.1231
     74  CA        18.9590    7.2150   43.5250 C.3   116  LYS116      0.1693
     75  C         18.4340    8.5730   43.0500 C.2   116  LYS116      0.2592
     76  O         17.7060    9.2590   43.7790 O.2   116  LYS116     -0.2718
     77  CB        20.4080    7.3390   43.9920 C.3   116  LYS116      0.0285
     78  CG        20.5760    8.2210   45.2120 C.3   116  LYS116      0.0035
     79  CD        21.9970    8.1700   45.7780 C.3   116  LYS116      0.0206
     80  CE        22.0920    8.9100   47.1080 C.3   116  LYS116      0.1093
     81  NZ        22.2670   10.4180   47.0090 N.3   116  LYS116     -0.1314
     82  N         18.8000    8.9560   41.8330 N.am  117  TYR117     -0.1976
     83  CA        18.4700   10.2880   41.3570 C.3   117  TYR117      0.1639
     84  C         17.0390   10.3630   40.8130 C.2   117  TYR117      0.2290
     85  O         16.4650   11.4300   40.6150 O.2   117  TYR117     -0.2864
     86  CB        19.5590   10.7970   40.4170 C.3   117  TYR117      0.0560
     87  CG        20.6000   11.4700   41.2440 C.ar  117  TYR117     -0.0198
     88  CD1       21.6270   10.7360   41.8040 C.ar  117  TYR117     -0.0009
     89  CD2       20.5020   12.8640   41.5600 C.ar  117  TYR117     -0.0009
     90  CE1       22.5960   11.3700   42.6570 C.ar  117  TYR117      0.0417
     91  CE2       21.4580   13.5060   42.3810 C.ar  117  TYR117      0.0417
     92  CZ        22.4870   12.7440   42.9410 C.ar  117  TYR117      0.1957
     93  OH        23.4200   13.3290   43.7800 O.3   117  TYR117     -0.2866
     94  N         15.4770   11.5820   44.0730 N.3   120  HIS120     -0.1241
     95  CA        15.6980   13.0130   44.1420 C.3   120  HIS120      0.1621
     96  C         14.8360   13.8330   43.1860 C.2   120  HIS120      0.2264
     97  O         14.3680   14.9190   43.5320 O.2   120  HIS120     -0.2867
     98  CB        17.1460   13.2900   43.8500 C.3   120  HIS120      0.0745
     99  CG        18.0540   12.7710   44.9090 C.ar  120  HIS120      0.0817
    100  ND1       17.8750   13.0700   46.2300 N.ar  120  HIS120     -0.2268
    101  CD2       19.1360   11.9620   44.8430 C.ar  120  HIS120      0.1154
    102  CE1       18.8250   12.4940   46.9440 C.ar  120  HIS120      0.1986
    103  NE2       19.5950   11.8040   46.1250 N.ar  120  HIS120     -0.2212
    104  N         11.5970   13.8640   44.7040 N.3   123  ALA123     -0.1231
    105  CA        11.7590   14.8120   45.7940 C.3   123  ALA123      0.1694
    106  C         11.7730   16.2300   45.2380 C.2   123  ALA123      0.2592
    107  O         11.1430   17.1200   45.8020 O.2   123  ALA123     -0.2718
    108  CB        13.0540   14.5460   46.5630 C.3   123  ALA123      0.0304
    109  N         12.4920   16.4360   44.1380 N.am  124  GLY124     -0.1957
    110  CA        12.6710   17.7740   43.5840 C.3   124  GLY124      0.1869
    111  C         11.3430   18.3890   43.1510 C.2   124  GLY124      0.2309
    112  O         11.1280   19.5940   43.2400 O.2   124  GLY124     -0.2863
    113  N         11.0160   20.9400   46.3700 N.3   128  TRP128     -0.1241
    114  CA        12.0310   21.9210   45.9790 C.3   128  TRP128      0.1605
    115  C         11.6280   22.9180   44.8980 C.2   128  TRP128      0.2264
    116  O         12.4730   23.6940   44.4280 O.2   128  TRP128     -0.2867
    117  CB        13.2880   21.1860   45.5090 C.3   128  TRP128      0.0550
    118  CG        13.9100   20.3890   46.6030 C.ar  128  TRP128      0.0003
    119  CD1       13.6920   19.0680   46.8960 C.ar  128  TRP128      0.0946
    120  CD2       14.8480   20.8670   47.5710 C.ar  128  TRP128      0.0152
    121  NE1       14.4500   18.6950   47.9800 N.ar  128  TRP128     -0.2442
    122  CE2       15.1700   19.7810   48.4120 C.ar  128  TRP128      0.0810
    123  CE3       15.4530   22.1220   47.7950 C.ar  128  TRP128      0.0012
    124  CZ2       16.0700   19.8990   49.4810 C.ar  128  TRP128      0.0191
    125  CZ3       16.3530   22.2450   48.8510 C.ar  128  TRP128      0.0001
    126  CH2       16.6630   21.1300   49.6790 C.ar  128  TRP128      0.0015
    127  N         12.4220   26.7270   44.3410 N.3   131  TYR131     -0.1241
    128  CA        13.7260   27.1610   43.8070 C.3   131  TYR131      0.1605
    129  C         13.8840   27.1050   42.2770 C.2   131  TYR131      0.2264
    130  O         14.9610   27.4030   41.7560 O.2   131  TYR131     -0.2867
    131  CB        14.8440   26.3150   44.4180 C.3   131  TYR131      0.0534
    132  CG        14.8660   26.3520   45.9100 C.ar  131  TYR131     -0.0201
    133  CD1       15.0660   27.5510   46.5900 C.ar  131  TYR131     -0.0009
    134  CD2       14.6800   25.2070   46.6450 C.ar  131  TYR131     -0.0009
    135  CE1       15.0840   27.5980   47.9630 C.ar  131  TYR131      0.0417
    136  CE2       14.7020   25.2420   48.0210 C.ar  131  TYR131      0.0417
    137  CZ        14.9040   26.4430   48.6780 C.ar  131  TYR131      0.1957
    138  OH        14.9180   26.4770   50.0580 O.3   131  TYR131     -0.2866
    139  N         12.1870   21.4750   35.9630 N.3   141  TYR141     -0.1227
    140  CA        13.2560   21.9840   36.8080 C.3   141  TYR141      0.1736
    141  C         13.9470   20.8140   37.5150 C.2   141  TYR141      0.2596
    142  O         15.1810   20.7460   37.5750 O.2   141  TYR141     -0.2718
    143  CB        12.6990   23.0040   37.8290 C.3   141  TYR141      0.0548
    144  CG        13.6910   23.4300   38.9110 C.ar  141  TYR141     -0.0200
    145  CD1       14.9050   24.0280   38.5710 C.ar  141  TYR141     -0.0009
    146  CD2       13.4180   23.2400   40.2630 C.ar  141  TYR141     -0.0009
    147  CE1       15.8320   24.4240   39.5480 C.ar  141  TYR141      0.0417
    148  CE2       14.3580   23.6430   41.2700 C.ar  141  TYR141      0.0417
    149  CZ        15.5640   24.2200   40.8840 C.ar  141  TYR141      0.1957
    150  OH        16.5140   24.6160   41.8020 O.3   141  TYR141     -0.2866
    151  N         13.1520   19.8940   38.0510 N.am  142  SER142     -0.1952
    152  CA        13.7080   18.7400   38.7610 C.3   142  SER142      0.1924
    153  C         14.4330   17.7810   37.8210 C.2   142  SER142      0.2314
    154  O         15.4300   17.1950   38.2060 O.2   142  SER142     -0.2863
    155  CB        12.6330   17.9680   39.4910 C.3   142  SER142      0.2116
    156  OG        13.2480   17.1500   40.4630 O.3   142  SER142     -0.2180
    157  N         17.9030   19.4700   36.9450 N.3   145  VAL145     -0.1231
    158  CA        18.7930   19.5060   38.1010 C.3   145  VAL145      0.1692
    159  C         19.2220   18.0880   38.5340 C.2   145  VAL145      0.2592
    160  O         20.3830   17.8260   38.8180 O.2   145  VAL145     -0.2718
    161  CB        18.1220   20.1800   39.3160 C.3   145  VAL145      0.0266
    162  CG1       18.9760   19.9830   40.5730 C.3   145  VAL145      0.0020
    163  CG2       17.9060   21.7030   39.0820 C.3   145  VAL145      0.0020
    164  N         18.2650   17.1820   38.6120 N.am  146  ASN146     -0.1974
    165  CA        18.5550   15.8430   39.0470 C.3   146  ASN146      0.1688
    166  C         19.0170   14.9380   37.8970 C.2   146  ASN146      0.2292
    167  O         19.8430   14.0500   38.0990 O.2   146  ASN146     -0.2864
    168  CB        17.3650   15.3020   39.8370 C.3   146  ASN146      0.1181
    169  CG        17.1980   16.0400   41.1400 C.2   146  ASN146      0.2629
    170  OD1       16.1440   16.6170   41.4430 O.2   146  ASN146     -0.2716
    171  ND2       18.2790   16.0820   41.9050 N.am  146  ASN146     -0.0877
@<TRIPOS>BOND
     1   139   140    1
     2   140   141    1
     3   140   143    1
     4   157   158    1
     5   141   142    2
     6   141   151   am
     7   153   154    2
     8   153   152    1
     9   143   144    1
    10   166   167    2
    11   166   165    1
    12   151   152    1
    13   158   159    1
    14   158   161    1
    15   159   164   am
    16   159   160    2
    17   145   144   ar
    18   145   147   ar
    19   164   165    1
    20   152   155    1
    21   144   146   ar
    22   165   168    1
    23   163   161    1
    24   161   162    1
    25   155   156    1
    26   147   149   ar
    27   168   169    1
    28   146   148   ar
    29    86    87    1
    30    86    83    1
    31    26    25    2
    32    85    84    2
    33    84    83    1
    34   149   148   ar
    35   149   150    1
    36   169   170    2
    37   169   171   am
    38    87    89   ar
    39    87    88   ar
    40    83    82    1
    41    23    24    1
    42    25    24    1
    43    89    91   ar
    44   130   129    2
    45    88    90   ar
    46    82    75   am
    47    24    27    1
    48   129   128    1
    49    11    12    2
    50    11    10    1
    51    91    92   ar
    52    73    74    1
    53    90    92   ar
    54     9    10    1
    55    31    32    1
    56    92    93    1
    57    75    74    1
    58    75    76    2
    59   111   112    2
    60   111   110    1
    61    96    97    2
    62    96    95    1
    63     4     3    2
    64    10    13    1
    65    74    77    1
    66    27    28    1
    67    27    29    1
    68   110   109    1
    69    28    30    1
    70   128   127    1
    71   128   131    1
    72    13    14    1
    73    98    95    1
    74    98    99    1
    75    77    78    1
    76    94    95    1
    77    32    33    1
    78    32    35    1
    79   109   106   am
    80     3     2    1
    81    33    34    2
    82   131   132    1
    83   116   115    2
    84    35    36    1
    85   104   105    1
    86   101    99   ar
    87   101   103   ar
    88   115   114    1
    89    99   100   ar
    90     2     5    1
    91     2     1    1
    92    78    79    1
    93   106   105    1
    94   106   107    2
    95    14    16   ar
    96    14    15   ar
    97     5     6    1
    98   117   114    1
    99   117   118    1
   100    19    16   ar
   101    19    21   ar
   102    79    80    1
   103   105   108    1
   104    38    37   ar
   105   132   133   ar
   106   132   134   ar
   107   114   113    1
   108    16    18   ar
   109    36    37    1
   110   103   102   ar
   111     6     8   am
   112     6     7    2
   113   100   102   ar
   114    15    17   ar
   115   133   135   ar
   116   118   119   ar
   117   118   120   ar
   118    37    39   ar
   119   134   136   ar
   120    21    22   ar
   121   119   121   ar
   122    81    80    1
   123    18    17   ar
   124    18    20   ar
   125    59    58   ar
   126   120   123   ar
   127   120   122   ar
   128   123   125   ar
   129   135   137   ar
   130   121   122   ar
   131   136   137   ar
   132    22    20   ar
   133   122   124   ar
   134    58    60   ar
   135    58    57    1
   136   137   138    1
   137   125   126   ar
   138    57    56    1
   139   124   126   ar
   140    56    53    1
   141    53    52    1
   142    53    54    1
   143    55    54    2
   144    54    61   am
   145    48    46   ar
   146    48    50   ar
   147    46    45   ar
   148    51    50    1
   149    50    49   ar
   150    72    71    1
   151    61    62    1
   152    45    44    1
   153    45    47   ar
   154    44    41    1
   155    49    47   ar
   156    71    70   ar
   157    71    69   ar
   158    70    68   ar
   159    69    67   ar
   160    43    42    2
   161    62    63    1
   162    62    65    1
   163    68    66   ar
   164    67    66   ar
   165    66    65    1
   166    63    64    2
   167    41    42    1
   168    41    40    1
