@<TRIPOS>MOLECULE
tmp/4mhwA06.pdb
 99 94 0 0 0
SMALL
GASTEIGER

@<TRIPOS>ATOM
      1  N         25.3220    2.1980   36.7760 N.3   110  PHE110     -0.1241
      2  CA        24.3480    2.9780   36.0780 C.3   110  PHE110      0.1605
      3  C         22.9320    2.8580   36.7010 C.2   110  PHE110      0.2264
      4  O         22.3800    3.8640   37.1380 O.2   110  PHE110     -0.2867
      5  CB        24.4160    2.6050   34.5670 C.3   110  PHE110      0.0534
      6  CG        23.4790    3.3840   33.7040 C.ar  110  PHE110     -0.0203
      7  CD1       23.8670    4.6080   33.1500 C.ar  110  PHE110     -0.0042
      8  CD2       22.1980    2.9050   33.4430 C.ar  110  PHE110     -0.0042
      9  CE1       22.9890    5.3360   32.3280 C.ar  110  PHE110     -0.0003
     10  CE2       21.3130    3.6360   32.6300 C.ar  110  PHE110     -0.0003
     11  CZ        21.7140    4.8560   32.0850 C.ar  110  PHE110     -0.0000
     12  N         22.8120    4.5280   40.4910 N.3   113  VAL113     -0.1231
     13  CA        22.8310    5.9700   40.4420 C.3   113  VAL113      0.1692
     14  C         21.5000    6.4920   39.8300 C.2   113  VAL113      0.2591
     15  O         20.9170    7.4320   40.3490 O.2   113  VAL113     -0.2718
     16  CB        23.9760    6.4740   39.6270 C.3   113  VAL113      0.0266
     17  CG1       23.7940    7.9730   39.3650 C.3   113  VAL113      0.0020
     18  CG2       25.2850    6.1830   40.3330 C.3   113  VAL113      0.0020
     19  N         21.0370    5.8810   38.7390 N.am  114  LEU114     -0.1980
     20  CA        19.7770    6.2840   38.1410 C.3   114  LEU114      0.1596
     21  C         18.6700    6.1810   39.1760 C.2   114  LEU114      0.2287
     22  O         17.8790    7.1170   39.3170 O.2   114  LEU114     -0.2864
     23  CB        19.4350    5.4270   36.9250 C.3   114  LEU114      0.0297
     24  CG        17.9610    5.4780   36.4590 C.3   114  LEU114      0.0022
     25  CD1       17.6070    6.8090   35.7720 C.3   114  LEU114      0.0001
     26  CD2       17.6280    4.3020   35.5500 C.3   114  LEU114      0.0001
     27  N         18.8000    8.9560   41.8330 N.3   117  TYR117     -0.1241
     28  CA        18.4700   10.2880   41.3570 C.3   117  TYR117      0.1605
     29  C         17.0390   10.3630   40.8130 C.2   117  TYR117      0.2264
     30  O         16.4650   11.4300   40.6150 O.2   117  TYR117     -0.2867
     31  CB        19.5590   10.7970   40.4170 C.3   117  TYR117      0.0534
     32  CG        20.6000   11.4700   41.2440 C.ar  117  TYR117     -0.0201
     33  CD1       21.6270   10.7360   41.8040 C.ar  117  TYR117     -0.0009
     34  CD2       20.5020   12.8640   41.5600 C.ar  117  TYR117     -0.0009
     35  CE1       22.5960   11.3700   42.6570 C.ar  117  TYR117      0.0417
     36  CE2       21.4580   13.5060   42.3810 C.ar  117  TYR117      0.0417
     37  CZ        22.4870   12.7440   42.9410 C.ar  117  TYR117      0.1957
     38  OH        23.4200   13.3290   43.7800 O.3   117  TYR117     -0.2866
     39  N         10.2700   28.0520   34.4080 N.3   136  TRP136     -0.1241
     40  CA        10.2500   26.5920   34.4520 C.3   136  TRP136      0.1605
     41  C          9.1770   26.0700   35.3550 C.2   136  TRP136      0.2264
     42  O          8.9950   26.5680   36.4590 O.2   136  TRP136     -0.2867
     43  CB        11.5790   26.0570   34.9730 C.3   136  TRP136      0.0550
     44  CG        12.7070   26.3000   34.0480 C.ar  136  TRP136      0.0003
     45  CD1       13.1810   27.5160   33.6310 C.ar  136  TRP136      0.0946
     46  CD2       13.5180   25.3150   33.4090 C.ar  136  TRP136      0.0152
     47  NE1       14.2450   27.3380   32.7900 N.ar  136  TRP136     -0.2442
     48  CE2       14.4640   25.9980   32.6280 C.ar  136  TRP136      0.0810
     49  CE3       13.5380   23.9220   33.4280 C.ar  136  TRP136      0.0012
     50  CZ2       15.4170   25.3400   31.8790 C.ar  136  TRP136      0.0191
     51  CZ3       14.4790   23.2790   32.6990 C.ar  136  TRP136      0.0001
     52  CH2       15.4100   23.9830   31.9270 C.ar  136  TRP136      0.0015
     53  N         10.0540   19.8840   34.9750 N.3   140  ALA140     -0.1245
     54  CA        11.1820   20.2620   34.1120 C.3   140  ALA140      0.1562
     55  C         12.4110   20.6710   34.9200 C.2   140  ALA140      0.2260
     56  O         13.5250   20.2660   34.5940 O.2   140  ALA140     -0.2867
     57  CB        10.7800   21.4050   33.1580 C.3   140  ALA140      0.0290
     58  N         13.9440   17.6220   36.5930 N.3   143  LEU143     -0.1231
     59  CA        14.6190   16.7320   35.6430 C.3   143  LEU143      0.1693
     60  C         15.9870   17.2840   35.2760 C.2   143  LEU143      0.2591
     61  O         16.9840   16.5750   35.3310 O.2   143  LEU143     -0.2718
     62  CB        13.7910   16.5070   34.3940 C.3   143  LEU143      0.0284
     63  CG        14.3780   15.5220   33.3800 C.3   143  LEU143      0.0019
     64  CD1       14.5310   14.1170   33.9590 C.3   143  LEU143      0.0001
     65  CD2       13.4930   15.4930   32.1210 C.3   143  LEU143      0.0001
     66  N         16.0420   18.5640   34.9520 N.am  144  ALA144     -0.1980
     67  CA        17.3060   19.1740   34.6000 C.3   144  ALA144      0.1597
     68  C         18.3000   19.0320   35.7510 C.2   144  ALA144      0.2287
     69  O         19.4020   18.5470   35.5570 O.2   144  ALA144     -0.2864
     70  CB        17.1030   20.6230   34.2340 C.3   144  ALA144      0.0319
     71  N         18.5290   15.1870   36.6940 N.3   147  GLY147     -0.1210
     72  CA        19.0540   14.4780   35.5430 C.3   147  GLY147      0.1956
     73  C         20.5420   14.7160   35.3870 C.2   147  GLY147      0.2611
     74  O         21.2940   13.7590   35.1500 O.2   147  GLY147     -0.2717
     75  N         20.9800   15.9740   35.5380 N.am  148  ILE148     -0.1979
     76  CA        22.3680   16.3500   35.2200 C.3   148  ILE148      0.1595
     77  C         23.2630   15.9120   36.3650 C.2   148  ILE148      0.2287
     78  O         24.3860   15.4400   36.1800 O.2   148  ILE148     -0.2864
     79  CB        22.5160   17.8700   34.9810 C.3   148  ILE148      0.0276
     80  CG1       21.8430   18.2630   33.6660 C.3   148  ILE148      0.0022
     81  CG2       23.9820   18.2800   34.8700 C.3   148  ILE148      0.0022
     82  CD1       21.7630   19.7500   33.4430 C.3   148  ILE148      0.0001
     83  N         22.5480   13.3440   38.1800 N.3   150  GLY150     -0.1210
     84  CA        22.6160   11.9130   37.9860 C.3   150  GLY150      0.1956
     85  C         23.7270   11.5350   37.0080 C.2   150  GLY150      0.2611
     86  O         24.5890   10.6810   37.3070 O.2   150  GLY150     -0.2717
     87  N         23.7200   12.1900   35.8480 N.am  151  ILE151     -0.1979
     88  CA        24.6570   11.8630   34.7880 C.3   151  ILE151      0.1595
     89  C         26.0940   12.1150   35.2520 C.2   151  ILE151      0.2287
     90  O         26.9730   11.2860   35.0010 O.2   151  ILE151     -0.2864
     91  CB        24.3310   12.6290   33.4620 C.3   151  ILE151      0.0276
     92  CG1       23.0310   12.0910   32.8370 C.3   151  ILE151      0.0022
     93  CG2       25.4550   12.4850   32.4460 C.3   151  ILE151      0.0022
     94  CD1       22.5110   12.9220   31.7020 C.3   151  ILE151      0.0001
     95  N         27.2940    9.5300   37.7260 N.3   154  ALA154     -0.1245
     96  CA        27.6410    8.3090   37.0170 C.3   154  ALA154      0.1562
     97  C         28.9890    8.4160   36.3070 C.2   154  ALA154      0.2260
     98  O         29.7480    7.4470   36.2340 O.2   154  ALA154     -0.2867
     99  CB        26.5460    7.9340   36.0260 C.3   154  ALA154      0.0290
@<TRIPOS>BOND
     1    94    92    1
     2    50    52   ar
     3    50    48   ar
     4    52    51   ar
     5    11     9   ar
     6    11    10   ar
     7    65    63    1
     8     9     7   ar
     9    93    91    1
    10    48    47   ar
    11    48    46   ar
    12    10     8   ar
    13    51    49   ar
    14    47    45   ar
    15    92    91    1
    16     7     6   ar
    17    57    54    1
    18    63    64    1
    19    63    62    1
    20    46    49   ar
    21    46    44   ar
    22    82    80    1
    23     8     6   ar
    24    91    88    1
    25    45    44   ar
    26    80    79    1
    27     6     5    1
    28    44    43    1
    29    54    55    1
    30    54    53    1
    31    70    67    1
    32    62    59    1
    33    39    40    1
    34    40    43    1
    35    40    41    1
    36     5     2    1
    37    56    55    2
    38    67    66    1
    39    67    68    1
    40    88    89    1
    41    88    87    1
    42    81    79    1
    43    66    60   am
    44    79    76    1
    45    90    89    2
    46    74    73    2
    47    76    75    1
    48    76    77    1
    49    60    61    2
    50    60    59    1
    51    41    42    2
    52    73    75   am
    53    73    72    1
    54    72    71    1
    55    26    24    1
    56    69    68    2
    57    59    58    1
    58    25    24    1
    59    87    85   am
    60    99    96    1
    61     2     3    1
    62     2     1    1
    63    78    77    2
    64    98    97    2
    65    97    96    1
    66    24    23    1
    67     3     4    2
    68    23    20    1
    69    85    86    2
    70    85    84    1
    71    96    95    1
    72    84    83    1
    73    20    19    1
    74    20    21    1
    75    19    14   am
    76    21    22    2
    77    17    16    1
    78    16    18    1
    79    16    13    1
    80    14    15    2
    81    14    13    1
    82    31    32    1
    83    31    28    1
    84    13    12    1
    85    30    29    2
    86    29    28    1
    87    32    34   ar
    88    32    33   ar
    89    28    27    1
    90    34    36   ar
    91    33    35   ar
    92    36    37   ar
    93    35    37   ar
    94    37    38    1
