@<TRIPOS>MOLECULE
tmp/4mhwA11.pdb
 94 88 0 0 0
SMALL
GASTEIGER

@<TRIPOS>ATOM
      1  N         30.5040   -1.0140   57.7200 N.3    10  ALA10      -0.1245
      2  CA        30.6580    0.1820   58.5340 C.3    10  ALA10       0.1562
      3  C         31.7090    1.0910   57.9470 C.2    10  ALA10       0.2260
      4  O         31.5200    2.3010   57.8810 O.2    10  ALA10      -0.2867
      5  CB        31.0430   -0.1900   59.9690 C.3    10  ALA10       0.0290
      6  N         31.4020    4.9790   56.5100 N.3    14  ALA14      -0.1245
      7  CA        32.1820    6.0180   57.1580 C.3    14  ALA14       0.1562
      8  C         32.9110    6.7230   56.0520 C.2    14  ALA14       0.2260
      9  O         33.2110    7.9060   56.1240 O.2    14  ALA14      -0.2867
     10  CB        33.1710    5.4180   58.1260 C.3    14  ALA14       0.0290
     11  N         30.5490    9.0180   54.0470 N.3    17  PHE17      -0.1227
     12  CA        30.2100   10.1910   54.8240 C.3    17  PHE17       0.1736
     13  C         31.3320   11.1770   54.7230 C.2    17  PHE17       0.2595
     14  O         31.1030   12.3720   54.5690 O.2    17  PHE17      -0.2718
     15  CB        29.9670    9.8620   56.3080 C.3    17  PHE17       0.0547
     16  CG        29.8410   11.0900   57.1690 C.ar   17  PHE17      -0.0202
     17  CD1       28.7530   11.9360   57.0280 C.ar   17  PHE17      -0.0042
     18  CD2       30.8260   11.4220   58.0840 C.ar   17  PHE17      -0.0042
     19  CE1       28.6370   13.0920   57.8060 C.ar   17  PHE17      -0.0003
     20  CE2       30.7200   12.5590   58.8630 C.ar   17  PHE17      -0.0003
     21  CZ        29.6230   13.4020   58.7180 C.ar   17  PHE17      -0.0000
     22  N         32.5500   10.6620   54.8210 N.am   18  ILE18      -0.1980
     23  CA        33.7200   11.5100   54.8820 C.3    18  ILE18       0.1595
     24  C         33.8780   12.1710   53.5090 C.2    18  ILE18       0.2287
     25  O         34.2670   13.3370   53.4060 O.2    18  ILE18      -0.2864
     26  CB        34.9510   10.7000   55.3780 C.3    18  ILE18       0.0276
     27  CG1       34.7600   10.4010   56.8710 C.3    18  ILE18       0.0022
     28  CG2       36.2350   11.4800   55.2020 C.3    18  ILE18       0.0022
     29  CD1       35.7490    9.4710   57.4640 C.3    18  ILE18       0.0001
     30  N         31.5470   15.2200   52.4720 N.3    21  LEU21      -0.1245
     31  CA        31.9440   16.4660   53.1230 C.3    21  LEU21       0.1561
     32  C         32.8420   17.3190   52.2190 C.2    21  LEU21       0.2260
     33  O         33.2240   18.4620   52.5550 O.2    21  LEU21      -0.2867
     34  CB        32.6960   16.1730   54.4290 C.3    21  LEU21       0.0270
     35  CG        31.9720   15.5610   55.6290 C.3    21  LEU21       0.0019
     36  CD1       32.9750   15.3300   56.7830 C.3    21  LEU21       0.0001
     37  CD2       30.8340   16.4560   56.1050 C.3    21  LEU21       0.0001
     38  N         21.8640    2.9010   54.2670 N.3    56  LEU56      -0.1231
     39  CA        21.0720    3.3090   55.4100 C.3    56  LEU56       0.1693
     40  C         21.9480    4.0650   56.4110 C.2    56  LEU56       0.2591
     41  O         21.6360    5.1800   56.8100 O.2    56  LEU56      -0.2718
     42  CB        20.4670    2.0780   56.0820 C.3    56  LEU56       0.0284
     43  CG        19.5130    2.4480   57.2040 C.3    56  LEU56       0.0019
     44  CD1       18.2510    3.0650   56.6010 C.3    56  LEU56       0.0001
     45  CD2       19.2130    1.2450   58.0650 C.3    56  LEU56       0.0001
     46  N         23.0530    3.4430   56.7970 N.am   57  ILE57      -0.1980
     47  CA        24.0050    4.0120   57.7540 C.3    57  ILE57       0.1595
     48  C         24.6250    5.3500   57.2810 C.2    57  ILE57       0.2287
     49  O         24.9180    6.2260   58.0860 O.2    57  ILE57      -0.2864
     50  CB        25.1470    2.9660   58.0370 C.3    57  ILE57       0.0276
     51  CG1       24.5960    1.7790   58.8300 C.3    57  ILE57       0.0022
     52  CG2       26.2910    3.5710   58.8290 C.3    57  ILE57       0.0022
     53  CD1       25.4920    0.5310   58.8030 C.3    57  ILE57       0.0001
     54  N         22.0000    7.9800   57.7700 N.3    60  ILE60      -0.1231
     55  CA        21.8200    8.3060   59.1680 C.3    60  ILE60       0.1692
     56  C         22.9460    9.2370   59.5980 C.2    60  ILE60       0.2591
     57  O         22.7200   10.1960   60.3240 O.2    60  ILE60      -0.2718
     58  CB        21.7410    7.0090   60.0410 C.3    60  ILE60       0.0266
     59  CG1       20.3840    6.3290   59.7990 C.3    60  ILE60       0.0019
     60  CG2       21.9530    7.3140   61.5390 C.3    60  ILE60       0.0020
     61  CD1       20.3310    4.8340   60.1560 C.3    60  ILE60       0.0001
     62  N         24.1600    8.9520   59.1340 N.am   61  LEU61      -0.1980
     63  CA        25.3230    9.7500   59.5370 C.3    61  LEU61       0.1596
     64  C         25.1560   11.1900   59.0340 C.2    61  LEU61       0.2287
     65  O         25.4160   12.1250   59.7710 O.2    61  LEU61      -0.2864
     66  CB        26.6360    9.1410   59.0100 C.3    61  LEU61       0.0297
     67  CG        27.2740    7.9510   59.7360 C.3    61  LEU61       0.0022
     68  CD1       28.2290    7.1960   58.8120 C.3    61  LEU61       0.0001
     69  CD2       28.0210    8.3710   61.0210 C.3    61  LEU61       0.0001
     70  N         22.4150   12.8210   61.3180 N.3    64  ILE64      -0.1231
     71  CA        22.6730   13.0290   62.7530 C.3    64  ILE64       0.1692
     72  C         23.8250   14.0120   62.9530 C.2    64  ILE64       0.2592
     73  O         23.9560   14.5870   64.0030 O.2    64  ILE64      -0.2718
     74  CB        22.9260   11.7110   63.5460 C.3    64  ILE64       0.0266
     75  CG1       24.0890   10.9210   62.9480 C.3    64  ILE64       0.0019
     76  CG2       21.6660   10.8540   63.5740 C.3    64  ILE64       0.0020
     77  CD1       24.9820   10.3650   63.9800 C.3    64  ILE64       0.0001
     78  N         24.6440   14.2020   61.9280 N.am   65  THR65      -0.1953
     79  CA        25.8180   15.0570   62.0160 C.3    65  THR65       0.1897
     80  C         25.4950   16.4690   61.5510 C.2    65  THR65       0.2313
     81  O         26.2920   17.3780   61.7600 O.2    65  THR65      -0.2863
     82  CB        26.9960   14.5150   61.1480 C.3    65  THR65       0.1794
     83  OG1       26.5870   14.3980   59.7800 O.3    65  THR65      -0.2208
     84  CG2       27.4590   13.1600   61.6460 C.3    65  THR65       0.0378
     85  N         24.7860   17.3560   58.2510 N.3    67  HIS67      -0.1241
     86  CA        25.2770   17.5670   56.8740 C.3    67  HIS67       0.1621
     87  C         24.2430   17.1540   55.8470 C.2    67  HIS67       0.2264
     88  O         24.5690   16.6950   54.7530 O.2    67  HIS67      -0.2867
     89  CB        26.6190   16.8450   56.6500 C.3    67  HIS67       0.0745
     90  CG        27.7630   17.4590   57.4120 C.ar   67  HIS67       0.0817
     91  ND1       28.5360   18.4810   56.9010 N.ar   67  HIS67      -0.2268
     92  CD2       28.2420   17.2130   58.6580 C.ar   67  HIS67       0.1154
     93  CE1       29.4470   18.8350   57.7970 C.ar   67  HIS67       0.1986
     94  NE2       29.2940   18.0780   58.8690 N.ar   67  HIS67      -0.2212
@<TRIPOS>BOND
     1    32    33    2
     2    32    31    1
     3    30    31    1
     4    31    34    1
     5    25    24    2
     6    24    23    1
     7    11    12    1
     8    38    39    1
     9    34    35    1
    10    14    13    2
    11    13    22   am
    12    13    12    1
    13    88    87    2
    14    22    23    1
    15    12    15    1
    16    23    26    1
    17    28    26    1
    18    26    27    1
    19    39    42    1
    20    39    40    1
    21    35    37    1
    22    35    36    1
    23    87    86    1
    24     8     9    2
    25     8     7    1
    26    42    43    1
    27    15    16    1
    28    40    46   am
    29    40    41    2
    30     6     7    1
    31    44    43    1
    32    89    86    1
    33    89    90    1
    34    46    47    1
    35    27    29    1
    36    86    85    1
    37    91    90   ar
    38    91    93   ar
    39    17    16   ar
    40    17    19   ar
    41     7    10    1
    42    16    18   ar
    43    43    45    1
    44    48    47    1
    45    48    49    2
    46    90    92   ar
    47     1     2    1
    48    47    50    1
    49    54    55    1
    50    93    94   ar
    51    19    21   ar
    52     4     3    2
    53     3     2    1
    54    50    52    1
    55    50    51    1
    56    18    20   ar
    57     2     5    1
    58    92    94   ar
    59    21    20   ar
    60    53    51    1
    61    68    67    1
    62    66    63    1
    63    66    67    1
    64    64    63    1
    65    64    65    2
    66    62    63    1
    67    62    56   am
    68    55    56    1
    69    55    58    1
    70    56    57    2
    71    67    69    1
    72    83    82    1
    73    59    58    1
    74    59    61    1
    75    58    60    1
    76    82    84    1
    77    82    79    1
    78    70    71    1
    79    80    81    2
    80    80    79    1
    81    78    79    1
    82    78    72   am
    83    71    72    1
    84    71    74    1
    85    75    74    1
    86    75    77    1
    87    72    73    2
    88    74    76    1
