@<TRIPOS>MOLECULE
tmp/4mhzA00.pdb
 165 166 0 0 0
SMALL
GASTEIGER

@<TRIPOS>ATOM
      1  N        -10.3610   15.6230  -12.5750 N.3   100  HIS100     -0.1241
      2  CA        -9.2930   16.4590  -11.9860 C.3   100  HIS100      0.1621
      3  C         -8.3770   15.6050  -11.1540 C.2   100  HIS100      0.2264
      4  O         -8.8200   14.6520  -10.5200 O.2   100  HIS100     -0.2867
      5  CB        -9.8640   17.6470  -11.1780 C.3   100  HIS100      0.0745
      6  CG       -10.4620   17.2590   -9.8380 C.ar  100  HIS100      0.0817
      7  ND1       -9.7630   17.3110   -8.6830 N.ar  100  HIS100     -0.2268
      8  CD2      -11.7320   16.8200   -9.4970 C.ar  100  HIS100      0.1154
      9  CE1      -10.5350   16.8880   -7.6610 C.ar  100  HIS100      0.1986
     10  NE2      -11.7420   16.6160   -8.1420 N.ar  100  HIS100     -0.2212
     11  N        -12.7150   11.5630   -5.2120 N.3   116  ASP116     -0.1239
     12  CA       -12.6720   12.9850   -5.6080 C.3   116  ASP116      0.1674
     13  C        -11.2260   13.5020   -5.8860 C.2   116  ASP116      0.2266
     14  O        -10.6950   14.2490   -5.0950 O.2   116  ASP116     -0.2867
     15  CB       -13.3560   13.7740   -4.4670 C.3   116  ASP116      0.1410
     16  CG       -13.5290   15.2900   -4.7540 C.2   116  ASP116      0.3668
     17  OD1      -13.2380   15.7700   -5.8800 O.co2 116  ASP116     -0.2456
     18  OD2      -13.9920   16.0110   -3.8120 O.co2 116  ASP116     -0.2456
     19  N         -8.7300   22.0660   -9.8670 N.3   155  GLU155     -0.1231
     20  CA       -10.2000   22.1430   -9.7460 C.3   155  GLU155      0.1699
     21  C        -10.6770   22.6950   -8.3710 C.2   155  GLU155      0.2592
     22  O        -11.6110   23.4960   -8.3130 O.2   155  GLU155     -0.2718
     23  CB       -10.8110   20.7770  -10.0310 C.3   155  GLU155      0.0402
     24  CG       -12.3280   20.7370  -10.1220 C.3   155  GLU155      0.1161
     25  CD       -12.9680   20.4590   -8.7940 C.2   155  GLU155      0.3649
     26  OE1      -12.2830   19.9900   -7.8670 O.co2 155  GLU155     -0.2457
     27  OE2      -14.1770   20.7140   -8.6600 O.co2 155  GLU155     -0.2457
     28  N        -10.0280   22.2760   -7.2770 N.am  156  GLU156     -0.1979
     29  CA       -10.5000   22.6060   -5.9060 C.3   156  GLU156      0.1602
     30  C        -10.1340   24.0790   -5.4730 C.2   156  GLU156      0.2287
     31  O         -9.1300   24.6820   -5.9200 O.2   156  GLU156     -0.2864
     32  CB       -10.0610   21.5330   -4.8530 C.3   156  GLU156      0.0415
     33  CG       -10.5070   20.0360   -5.0230 C.3   156  GLU156      0.1163
     34  CD       -11.9500   19.7530   -4.5580 C.2   156  GLU156      0.3649
     35  OE1      -12.6750   20.7250   -4.3070 O.co2 156  GLU156     -0.2457
     36  OE2      -12.4210   18.5850   -4.4090 O.co2 156  GLU156     -0.2457
     37  N        -14.9690   28.4440   -1.8310 N.3   161  TRP161     -0.1241
     38  CA       -15.1350   28.3280   -3.2520 C.3   161  TRP161      0.1605
     39  C        -15.6580   29.6180   -3.7780 C.2   161  TRP161      0.2264
     40  O        -16.5920   30.2020   -3.2260 O.2   161  TRP161     -0.2867
     41  CB       -16.0980   27.1760   -3.5410 C.3   161  TRP161      0.0550
     42  CG       -16.3480   26.8630   -4.9880 C.ar  161  TRP161      0.0003
     43  CD1      -17.1940   27.5500   -5.8770 C.ar  161  TRP161      0.0946
     44  CD2      -15.8060   25.7250   -5.7650 C.ar  161  TRP161      0.0152
     45  NE1      -17.1720   26.9600   -7.1280 N.ar  161  TRP161     -0.2442
     46  CE2      -16.3690   25.8440   -7.1180 C.ar  161  TRP161      0.0810
     47  CE3      -14.9110   24.6830   -5.4920 C.ar  161  TRP161      0.0012
     48  CZ2      -16.0460   24.9340   -8.1360 C.ar  161  TRP161      0.0191
     49  CZ3      -14.5970   23.7790   -6.5230 C.ar  161  TRP161      0.0001
     50  CH2      -15.1590   23.8980   -7.8030 C.ar  161  TRP161      0.0015
     51  N        -16.6550   12.6790  -12.0080 N.3   210  ASP210     -0.1225
     52  CA       -16.3130   13.2530  -10.7220 C.3   210  ASP210      0.1805
     53  C        -17.0330   12.5190   -9.5880 C.2   210  ASP210      0.2597
     54  O        -18.1970   12.1640   -9.7100 O.2   210  ASP210     -0.2718
     55  CB       -16.6150   14.7800  -10.7070 C.3   210  ASP210      0.1424
     56  CG       -15.7790   15.5510   -9.6520 C.2   210  ASP210      0.3668
     57  OD1      -15.0300   14.9170   -8.8490 O.co2 210  ASP210     -0.2456
     58  OD2      -15.8840   16.8180   -9.6450 O.co2 210  ASP210     -0.2456
     59  N        -16.3230   12.3070   -8.4930 N.am  211  LEU211     -0.1979
     60  CA       -16.9310   11.7820   -7.2670 C.3   211  LEU211      0.1596
     61  C        -17.4920   10.3990   -7.4390 C.2   211  LEU211      0.2287
     62  O        -18.6090   10.1100   -7.0150 O.2   211  LEU211     -0.2864
     63  CB       -18.0230   12.7330   -6.7160 C.3   211  LEU211      0.0297
     64  CG       -17.6740   14.2240   -6.5340 C.3   211  LEU211      0.0022
     65  CD1      -18.8530   14.9450   -5.8780 C.3   211  LEU211      0.0001
     66  CD2      -16.3700   14.3950   -5.7520 C.3   211  LEU211      0.0001
     67  N        -27.7090   22.2390  -10.4080 N.3   266  PHE266     -0.1227
     68  CA       -26.6280   22.9870  -10.9600 C.3   266  PHE266      0.1736
     69  C        -25.4200   22.5950  -10.1310 C.2   266  PHE266      0.2595
     70  O        -25.4330   22.7560   -8.9210 O.2   266  PHE266     -0.2718
     71  CB       -26.9860   24.4760  -10.8020 C.3   266  PHE266      0.0547
     72  CG       -25.8520   25.4240  -11.0510 C.ar  266  PHE266     -0.0202
     73  CD1      -25.3420   25.5900  -12.3370 C.ar  266  PHE266     -0.0042
     74  CD2      -25.3240   26.1820  -10.0060 C.ar  266  PHE266     -0.0042
     75  CE1      -24.3040   26.4640  -12.5770 C.ar  266  PHE266     -0.0003
     76  CE2      -24.2770   27.0570  -10.2370 C.ar  266  PHE266     -0.0003
     77  CZ       -23.7710   27.1970  -11.5260 C.ar  266  PHE266     -0.0000
     78  N        -24.4040   22.0120  -10.7590 N.am  267  ILE267     -0.1966
     79  CA       -23.1740   21.6770  -10.0300 C.3   267  ILE267      0.1727
     80  C        -22.0340   22.4250  -10.6820 C.2   267  ILE267      0.2616
     81  O        -21.8590   22.3630  -11.8990 O.2   267  ILE267     -0.2715
     82  CB       -22.8980   20.1550  -10.0020 C.3   267  ILE267      0.0290
     83  CG1      -24.0190   19.4330   -9.2390 C.3   267  ILE267      0.0022
     84  CG2      -21.5500   19.8630   -9.3500 C.3   267  ILE267      0.0023
     85  CD1      -24.2710   17.9950   -9.6510 C.3   267  ILE267      0.0001
     86  N        -21.2750   23.1510   -9.8910 N.am  268  GLU268     -0.1963
     87  CA       -20.0580   23.7390  -10.4100 C.3   268  GLU268      0.1733
     88  C        -18.9090   22.7480  -10.5160 C.2   268  GLU268      0.2616
     89  O        -18.5230   22.1240   -9.5450 O.2   268  GLU268     -0.2715
     90  CB       -19.6490   24.9540   -9.5940 C.3   268  GLU268      0.0429
     91  CG       -20.0700   26.2140  -10.3070 C.3   268  GLU268      0.1163
     92  CD       -20.4810   27.3270   -9.3860 C.2   268  GLU268      0.3649
     93  OE1      -21.3490   28.1250   -9.7810 O.co2 268  GLU268     -0.2457
     94  OE2      -19.9400   27.4160   -8.2770 O.co2 268  GLU268     -0.2457
     95  N        -18.3430   22.6060  -11.6970 N.am  269  ASP269     -0.1971
     96  CA       -17.2490   21.6650  -11.8400 C.3   269  ASP269      0.1709
     97  C        -16.4330   22.1030  -13.0450 C.2   269  ASP269      0.2293
     98  O        -16.7560   23.1020  -13.6570 O.2   269  ASP269     -0.2864
     99  CB       -17.8270   20.2310  -11.9650 C.3   269  ASP269      0.1436
    100  CG       -16.8380   19.1200  -11.6280 C.2   269  ASP269      0.3671
    101  OD1      -15.6190   19.3030  -11.5230 O.co2 269  ASP269     -0.2456
    102  OD2      -17.3130   17.9770  -11.5110 O.co2 269  ASP269     -0.2456
    103  N        -21.5370   12.6350  -12.4480 N.3   285  ILE285     -0.1245
    104  CA       -21.3180   12.9950  -11.0550 C.3   285  ILE285      0.1561
    105  C        -22.6060   12.6030  -10.3550 C.2   285  ILE285      0.2260
    106  O        -23.6690   12.8520  -10.9010 O.2   285  ILE285     -0.2867
    107  CB       -21.0280   14.5140  -10.8800 C.3   285  ILE285      0.0252
    108  CG1      -20.5790   14.8120   -9.4300 C.3   285  ILE285      0.0019
    109  CG2      -22.2430   15.3740  -11.2690 C.3   285  ILE285      0.0019
    110  CD1      -20.0920   16.2320   -9.2230 C.3   285  ILE285      0.0001
    111  N        -25.7570   12.4580   -7.6510 N.3   287  SER287     -0.1203
    112  CA       -26.5410   13.3980   -6.8810 C.3   287  SER287      0.2005
    113  C        -27.5340   12.5650   -6.0830 C.2   287  SER287      0.2461
    114  O        -28.4060   11.9300   -6.6820 O.2   287  SER287     -0.2732
    115  CB       -27.2840   14.3730   -7.7920 C.3   287  SER287      0.2103
    116  OG       -27.9080   15.3790   -7.0200 O.3   287  SER287     -0.2182
    117  N        -27.4140   12.5660   -4.7340 N.am  288  PRO288     -0.2717
    118  CA       -26.4550   13.3610   -3.9620 C.3   288  PRO288      0.1535
    119  C        -24.9890   12.9340   -4.0930 C.2   288  PRO288      0.2598
    120  O        -24.6940   11.8230   -4.5480 O.2   288  PRO288     -0.2715
    121  CB       -26.9080   13.1410   -2.5040 C.3   288  PRO288      0.0310
    122  CG       -27.5780   11.7970   -2.5540 C.3   288  PRO288      0.0237
    123  CD       -28.3280   11.8200   -3.8530 C.3   288  PRO288      0.0939
    124  N        -24.1000   13.8320   -3.6800 N.am  289  PHE289     -0.1961
    125  CA       -22.6820   13.5600   -3.5650 C.3   289  PHE289      0.1756
    126  C        -22.4930   12.4190   -2.5750 C.2   289  PHE289      0.2461
    127  O        -23.3460   12.2210   -1.7130 O.2   289  PHE289     -0.2730
    128  CB       -21.9920   14.7930   -3.0110 C.3   289  PHE289      0.0574
    129  CG       -21.7910   15.9040   -4.0200 C.ar  289  PHE289     -0.0200
    130  CD1      -22.3260   15.8530   -5.2890 C.ar  289  PHE289     -0.0042
    131  CD2      -21.0850   17.0470   -3.6470 C.ar  289  PHE289     -0.0042
    132  CE1      -22.1410   16.8950   -6.1760 C.ar  289  PHE289     -0.0003
    133  CE2      -20.8930   18.0940   -4.5370 C.ar  289  PHE289     -0.0003
    134  CZ       -21.4170   18.0210   -5.8040 C.ar  289  PHE289     -0.0000
    135  N        -21.3760   11.6660   -2.6710 N.am  290  PRO290     -0.2727
    136  CA       -21.0890   10.6630   -1.6280 C.3   290  PRO290      0.1402
    137  C        -21.0920   11.2950   -0.2210 C.2   290  PRO290      0.2269
    138  O        -20.7640   12.4800   -0.0260 O.2   290  PRO290     -0.2865
    139  CB       -19.6780   10.1930   -1.9840 C.3   290  PRO290      0.0296
    140  CG       -19.5890   10.4210   -3.4720 C.3   290  PRO290      0.0237
    141  CD       -20.3090   11.7170   -3.6900 C.3   290  PRO290      0.0939
    142  N        -18.0510   13.0690    1.0320 N.3   293  TRP293     -0.1227
    143  CA       -17.6400   14.2540    0.2800 C.3   293  TRP293      0.1737
    144  C        -16.9600   15.3260    1.1260 C.2   293  TRP293      0.2595
    145  O        -17.5350   15.8240    2.1020 O.2   293  TRP293     -0.2718
    146  CB       -18.8350   14.8380   -0.4750 C.3   293  TRP293      0.0564
    147  CG       -18.4480   15.9810   -1.3670 C.ar  293  TRP293      0.0003
    148  CD1      -17.8680   15.9250   -2.6240 C.ar  293  TRP293      0.0946
    149  CD2      -18.6060   17.4080   -1.0770 C.ar  293  TRP293      0.0152
    150  NE1      -17.6580   17.1920   -3.1210 N.ar  293  TRP293     -0.2442
    151  CE2      -18.0830   18.1260   -2.2280 C.ar  293  TRP293      0.0810
    152  CE3      -19.1040   18.1370    0.0100 C.ar  293  TRP293      0.0012
    153  CZ2      -18.0750   19.5270   -2.2820 C.ar  293  TRP293      0.0191
    154  CZ3      -19.0940   19.5400   -0.0570 C.ar  293  TRP293      0.0001
    155  CH2      -18.5840   20.2190   -1.1680 C.ar  293  TRP293      0.0015
    156  N        -15.7050   15.6390    0.7720 N.am  294  HIS294     -0.1975
    157  CA       -14.9030   16.6530    1.4520 C.3   294  HIS294      0.1656
    158  C        -14.6840   16.4010    2.9080 C.2   294  HIS294      0.2291
    159  O        -14.3930   17.3180    3.6840 O.2   294  HIS294     -0.2864
    160  CB       -15.4770   18.0590    1.2240 C.3   294  HIS294      0.0771
    161  CG       -15.1150   18.6610   -0.1240 C.ar  294  HIS294      0.0820
    162  ND1      -15.2440   19.9840   -0.4010 N.ar  294  HIS294     -0.2267
    163  CD2      -14.5840   18.0720   -1.2710 C.ar  294  HIS294      0.1154
    164  CE1      -14.8480   20.2160   -1.6630 C.ar  294  HIS294      0.1986
    165  NE2      -14.4360   19.0440   -2.1970 N.ar  294  HIS294     -0.2212
@<TRIPOS>BOND
     1    98    97    2
     2    97    96    1
     3    75    73   ar
     4    75    77   ar
     5     1     2    1
     6   103   104    1
     7    73    72   ar
     8    51    52    1
     9     2     5    1
    10     2     3    1
    11    99    96    1
    12    99   100    1
    13    81    80    2
    14    96    95    1
    15    95    88   am
    16   100   101   ar
    17   100   102   ar
    18    77    76   ar
    19   109   107    1
    20     5     6    1
    21     3     4    2
    22   104   107    1
    23   104   105    1
    24    72    71    1
    25    72    74   ar
    26    68    71    1
    27    68    67    1
    28    68    69    1
    29   106   105    2
    30   107   108    1
    31    78    69   am
    32    78    79    1
    33    52    55    1
    34    52    53    1
    35    55    56    1
    36    80    79    1
    37    80    86   am
    38    88    87    1
    39    88    89    2
    40    87    86    1
    41    87    90    1
    42    91    90    1
    43    91    92    1
    44    76    74   ar
    45    69    70    2
    46    24    23    1
    47    24    25    1
    48    23    20    1
    49    79    82    1
    50    82    84    1
    51    82    83    1
    52    19    20    1
    53     6     8   ar
    54     6     7   ar
    55    93    92   ar
    56    20    21    1
    57    54    53    2
    58    56    58   ar
    59    56    57   ar
    60    85    83    1
    61    53    59   am
    62     8    10   ar
    63   108   110    1
    64    92    94   ar
    65    25    27   ar
    66    25    26   ar
    67     7     9   ar
    68    59    60    1
    69    21    22    2
    70    21    28   am
    71    10     9   ar
    72    48    50   ar
    73    48    46   ar
    74    50    49   ar
    75   115   116    1
    76   115   112    1
    77   111   112    1
    78    61    60    1
    79    61    62    2
    80    28    29    1
    81    60    63    1
    82    45    46   ar
    83    45    43   ar
    84    46    44   ar
    85   112   113    1
    86    63    64    1
    87   114   113    2
    88    64    65    1
    89    64    66    1
    90    49    47   ar
    91   132   134   ar
    92   132   130   ar
    93   113   117   am
    94    31    30    2
    95    29    30    1
    96    29    32    1
    97    13    12    1
    98    13    14    2
    99    17    16   ar
   100    43    42   ar
   101   134   133   ar
   102    44    47   ar
   103    44    42   ar
   104    12    11    1
   105    12    15    1
   106   130   129   ar
   107    33    32    1
   108    33    34    1
   109    42    41    1
   110    16    15    1
   111    16    18   ar
   112   117   118    1
   113   117   123    1
   114    34    36   ar
   115    34    35   ar
   116   120   119    2
   117   133   131   ar
   118   119   118    1
   119   119   124   am
   120   129   131   ar
   121   129   128    1
   122   118   121    1
   123   123   122    1
   124    39    38    1
   125    39    40    2
   126   141   140    1
   127   141   135    1
   128   124   125    1
   129   125   128    1
   130   125   126    1
   131    41    38    1
   132   140   139    1
   133    38    37    1
   134   150   148   ar
   135   150   151   ar
   136   135   126   am
   137   135   136    1
   138   148   147   ar
   139   126   127    2
   140   122   121    1
   141   153   151   ar
   142   153   155   ar
   143   151   149   ar
   144   165   164   ar
   145   165   163   ar
   146   139   136    1
   147   164   162   ar
   148   136   137    1
   149   147   149   ar
   150   147   146    1
   151   163   161   ar
   152   155   154   ar
   153   149   152   ar
   154   146   143    1
   155   162   161   ar
   156   137   138    2
   157   161   160    1
   158   154   152   ar
   159   143   142    1
   160   143   144    1
   161   156   144   am
   162   156   157    1
   163   144   145    2
   164   160   157    1
   165   157   158    1
   166   158   159    2
