@<TRIPOS>MOLECULE
tmp/4mi1A00.pdb
 153 146 0 0 0
SMALL
GASTEIGER

@<TRIPOS>ATOM
      1  N        -16.6950   21.6010    3.6840 N.3    19  SER19      -0.1217
      2  CA       -16.7920   21.0700    5.0540 C.3    19  SER19       0.1889
      3  C        -16.3470   19.5950    5.1280 C.2    19  SER19       0.2288
      4  O        -16.6250   18.8030    4.2050 O.2    19  SER19      -0.2866
      5  CB       -18.2250   21.1590    5.5730 C.3    19  SER19       0.2089
      6  OG       -18.6430   22.5040    5.6370 O.3    19  SER19      -0.2183
      7  N        -19.5940   13.7180   10.4280 N.3    25  SER25      -0.1217
      8  CA       -20.8650   12.9750   10.4140 C.3    25  SER25       0.1889
      9  C        -20.6800   11.5920    9.8060 C.2    25  SER25       0.2288
     10  O        -21.2250   11.2840    8.7400 O.2    25  SER25      -0.2866
     11  CB       -21.9250   13.7730    9.6430 C.3    25  SER25       0.2089
     12  OG       -22.2760   14.9380   10.3810 O.3    25  SER25      -0.2183
     13  N        -20.6970   17.2520    0.5450 N.3    82  ILE82      -0.1231
     14  CA       -21.4740   18.3250    1.1690 C.3    82  ILE82       0.1692
     15  C        -20.8540   19.6160    0.6880 C.2    82  ILE82       0.2593
     16  O        -19.7540   19.6080    0.1510 O.2    82  ILE82      -0.2718
     17  CB       -21.3990   18.2290    2.7040 C.3    82  ILE82       0.0266
     18  CG1      -22.4830   19.0540    3.3910 C.3    82  ILE82       0.0019
     19  CG2      -20.0150   18.6030    3.1910 C.3    82  ILE82       0.0020
     20  CD1      -22.8310   18.5100    4.7750 C.3    82  ILE82       0.0001
     21  N        -21.5220   20.7290    0.9740 N.am   83  GLY83      -0.1942
     22  CA       -20.9820   22.0440    0.7080 C.3    83  GLY83       0.2014
     23  C        -20.2730   22.6300    1.9110 C.2    83  GLY83       0.2639
     24  O        -19.3810   21.9880    2.5090 O.2    83  GLY83      -0.2714
     25  N        -20.6360   23.8570    2.2490 N.am   84  GLY84      -0.1954
     26  CA       -19.9570   24.6270    3.2750 C.3    84  GLY84       0.1869
     27  C        -19.8290   26.0610    2.8150 C.2    84  GLY84       0.2309
     28  O        -20.8410   26.7470    2.6980 O.2    84  GLY84      -0.2863
     29  N        -24.9060   20.5990   -4.6670 N.3   107  TYR107     -0.1227
     30  CA       -25.7150   21.7950   -4.4710 C.3   107  TYR107      0.1736
     31  C        -25.0890   22.7080   -3.4230 C.2   107  TYR107      0.2595
     32  O        -23.9650   22.4680   -2.9700 O.2   107  TYR107     -0.2718
     33  CB       -27.1750   21.4420   -4.1460 C.3   107  TYR107      0.0548
     34  CG       -27.4530   20.8860   -2.7650 C.ar  107  TYR107     -0.0200
     35  CD1      -27.2190   19.5510   -2.4610 C.ar  107  TYR107     -0.0009
     36  CD2      -28.0140   21.6940   -1.7720 C.ar  107  TYR107     -0.0009
     37  CE1      -27.5160   19.0430   -1.2040 C.ar  107  TYR107      0.0417
     38  CE2      -28.3110   21.1790   -0.5160 C.ar  107  TYR107      0.0417
     39  CZ       -28.0450   19.8540   -0.2480 C.ar  107  TYR107      0.1957
     40  OH       -28.3310   19.3350    1.0110 O.3   107  TYR107     -0.2866
     41  N        -25.7720   23.7900   -3.0990 N.am  108  ALA108     -0.1966
     42  CA       -25.3340   24.7010   -2.0580 C.3   108  ALA108      0.1728
     43  C        -23.9510   25.2810   -2.4290 C.2   108  ALA108      0.2616
     44  O        -23.7630   25.7350   -3.5650 O.2   108  ALA108     -0.2715
     45  CB       -25.3570   23.9970   -0.7030 C.3   108  ALA108      0.0334
     46  N        -22.9580   25.2250   -1.5490 N.am  109  ASP109     -0.1971
     47  CA       -21.6350   25.7930   -1.8770 C.3   109  ASP109      0.1709
     48  C        -21.0090   25.1770   -3.1400 C.2   109  ASP109      0.2293
     49  O        -20.2140   25.8260   -3.8110 O.2   109  ASP109     -0.2864
     50  CB       -20.7060   25.6040   -0.6940 C.3   109  ASP109      0.1436
     51  CG       -19.3540   26.2210   -0.9150 C.2   109  ASP109      0.3671
     52  OD1      -19.2800   27.4590   -1.0240 O.co2 109  ASP109     -0.2456
     53  OD2      -18.3760   25.4610   -0.9780 O.co2 109  ASP109     -0.2456
     54  N        -25.7960   14.9170    2.7970 N.3   133  PRO133     -0.2116
     55  CA       -27.1370   15.4390    3.0870 C.3   133  PRO133      0.1372
     56  C        -28.2480   14.7280    2.3270 C.2   133  PRO133      0.2244
     57  O        -29.3210   14.4970    2.8790 O.2   133  PRO133     -0.2868
     58  CB       -27.0620   16.9110    2.6420 C.3   133  PRO133      0.0268
     59  CG       -25.6480   17.2010    2.3490 C.3   133  PRO133      0.0207
     60  CD       -24.9120   15.9160    2.1720 C.3   133  PRO133      0.0892
     61  N        -35.3280   19.9340   11.1350 N.3   173  PHE173     -0.1241
     62  CA       -33.9670   19.8080   11.6140 C.3   173  PHE173      0.1605
     63  C        -33.8300   18.6720   12.6290 C.2   173  PHE173      0.2264
     64  O        -33.6160   18.8960   13.8190 O.2   173  PHE173     -0.2867
     65  CB       -33.5460   21.1450   12.2440 C.3   173  PHE173      0.0534
     66  CG       -32.0800   21.2660   12.4570 C.ar  173  PHE173     -0.0203
     67  CD1      -31.2360   21.4930   11.3900 C.ar  173  PHE173     -0.0042
     68  CD2      -31.5420   21.1730   13.7290 C.ar  173  PHE173     -0.0042
     69  CE1      -29.8710   21.6090   11.5830 C.ar  173  PHE173     -0.0003
     70  CE2      -30.1750   21.2910   13.9300 C.ar  173  PHE173     -0.0003
     71  CZ       -29.3400   21.5080   12.8580 C.ar  173  PHE173     -0.0000
     72  N        -30.3520   13.6880   11.6820 N.3   176  TRP176     -0.1241
     73  CA       -29.1200   13.9070   10.9230 C.3   176  TRP176      0.1605
     74  C        -28.2250   12.6430   10.9530 C.2   176  TRP176      0.2264
     75  O        -28.1180   11.9240    9.9550 O.2   176  TRP176     -0.2867
     76  CB       -28.3860   15.1770   11.3950 C.3   176  TRP176      0.0550
     77  CG       -27.1360   15.4210   10.6100 C.ar  176  TRP176      0.0003
     78  CD1      -25.8700   15.3030   11.0630 C.ar  176  TRP176      0.0946
     79  CD2      -27.0520   15.8200    9.2430 C.ar  176  TRP176      0.0152
     80  NE1      -24.9800   15.5890   10.0560 N.ar  176  TRP176     -0.2442
     81  CE2      -25.6750   15.9050    8.9260 C.ar  176  TRP176      0.0810
     82  CE3      -27.9910   16.0940    8.2500 C.ar  176  TRP176      0.0012
     83  CZ2      -25.2230   16.2810    7.6550 C.ar  176  TRP176      0.0191
     84  CZ3      -27.5330   16.4500    6.9630 C.ar  176  TRP176      0.0001
     85  CH2      -26.1640   16.5380    6.6910 C.ar  176  TRP176      0.0015
     86  N        -27.2560   28.1360   -5.8990 N.3   206  ASN206     -0.1240
     87  CA       -27.3210   28.7540   -4.5800 C.3   206  ASN206      0.1653
     88  C        -26.9140   30.2170   -4.6910 C.2   206  ASN206      0.2266
     89  O        -25.7760   30.5150   -5.0650 O.2   206  ASN206     -0.2867
     90  CB       -26.4300   28.0100   -3.5880 C.3   206  ASN206      0.1155
     91  CG       -26.5390   28.5700   -2.2020 C.2   206  ASN206      0.2627
     92  OD1      -25.7610   29.4330   -1.7970 O.2   206  ASN206     -0.2716
     93  ND2      -27.5140   28.0890   -1.4580 N.am  206  ASN206     -0.0877
     94  N        -26.4570   32.7490   -2.4320 N.3   208  ASN208     -0.1225
     95  CA       -25.4060   33.1940   -1.5200 C.3   208  ASN208      0.1785
     96  C        -24.0360   32.8070   -2.0920 C.2   208  ASN208      0.2597
     97  O        -23.0710   33.5940   -2.0470 O.2   208  ASN208     -0.2718
     98  CB       -25.6230   32.5550   -0.1440 C.3   208  ASN208      0.1169
     99  CG       -24.9750   33.3210    0.9840 C.2   208  ASN208      0.2627
    100  OD1      -23.8820   32.9560    1.4520 O.2   208  ASN208     -0.2716
    101  ND2      -25.6120   34.3720    1.4340 N.am  208  ASN208     -0.0877
    102  N        -23.9560   31.6000   -2.6460 N.am  209  THR209     -0.1953
    103  CA       -22.7010   31.1000   -3.1830 C.3   209  THR209      0.1897
    104  C        -22.3020   31.8160   -4.4670 C.2   209  THR209      0.2313
    105  O        -21.1110   32.0790   -4.7040 O.2   209  THR209     -0.2863
    106  CB       -22.7750   29.5860   -3.4010 C.3   209  THR209      0.1794
    107  OG1      -23.0260   28.9210   -2.1550 O.3   209  THR209     -0.2208
    108  CG2      -21.4600   29.0490   -3.9760 C.3   209  THR209      0.0378
    109  N        -30.8080   28.8410    1.5130 N.3   232  SER232     -0.1202
    110  CA       -31.1510   27.8740    2.5320 C.3   232  SER232      0.2020
    111  C        -30.5960   28.3490    3.8720 C.2   232  SER232      0.2619
    112  O        -29.4650   28.8160    3.9410 O.2   232  SER232     -0.2717
    113  CB       -30.5210   26.5070    2.1780 C.3   232  SER232      0.2103
    114  OG       -31.0490   25.9970    0.9530 O.3   232  SER232     -0.2182
    115  N        -31.4100   28.2560    4.9170 N.am  233  SER233     -0.1937
    116  CA       -30.9520   28.4890    6.2840 C.3   233  SER233      0.2055
    117  C        -30.3560   29.8930    6.4700 C.2   233  SER233      0.2642
    118  O        -29.3930   30.0900    7.2210 O.2   233  SER233     -0.2714
    119  CB       -29.9820   27.3900    6.7420 C.3   233  SER233      0.2130
    120  OG       -30.6980   26.1770    6.9620 O.3   233  SER233     -0.2179
    121  N        -30.9720   30.8730    5.8150 N.am  234  LYS234     -0.1977
    122  CA       -30.6080   32.2760    5.9750 C.3   234  LYS234      0.1596
    123  C        -31.7740   33.0330    6.5980 C.2   234  LYS234      0.2287
    124  O        -32.7430   32.4380    7.0720 O.2   234  LYS234     -0.2864
    125  CB       -30.2220   32.9030    4.6250 C.3   234  LYS234      0.0298
    126  CG       -29.0980   32.1920    3.8950 C.3   234  LYS234      0.0038
    127  CD       -27.8330   32.1650    4.7170 C.3   234  LYS234      0.0206
    128  CE       -26.6520   31.5330    3.9390 C.3   234  LYS234      0.1093
    129  NZ       -26.7610   30.0390    3.8500 N.3   234  LYS234     -0.1314
    130  N        -35.1180   26.4980    3.1570 N.3   264  GLU264     -0.1245
    131  CA       -35.0120   25.6950    4.3660 C.3   264  GLU264      0.1567
    132  C        -34.8170   26.5450    5.6110 C.2   264  GLU264      0.2260
    133  O        -33.9180   27.3910    5.6700 O.2   264  GLU264     -0.2867
    134  CB       -33.8070   24.7690    4.2380 C.3   264  GLU264      0.0388
    135  CG       -33.4500   24.0280    5.5050 C.3   264  GLU264      0.1160
    136  CD       -32.0830   23.3970    5.4560 C.2   264  GLU264      0.3649
    137  OE1      -31.1240   24.0940    5.0860 O.co2 264  GLU264     -0.2457
    138  OE2      -31.9760   22.2010    5.8010 O.co2 264  GLU264     -0.2457
    139  N        -32.1820   22.8040   -0.2720 N.3   298  ALA298     -0.1245
    140  CA       -31.8200   22.0020    0.9030 C.3   298  ALA298      0.1562
    141  C        -33.0150   21.2560    1.5130 C.2   298  ALA298      0.2260
    142  O        -32.8090   20.3770    2.3550 O.2   298  ALA298     -0.2867
    143  CB       -31.1270   22.8840    1.9640 C.3   298  ALA298      0.0290
    144  N        -36.1430   18.5330    1.5980 N.3   300  HIS300     -0.1241
    145  CA       -36.2420   17.1680    1.0660 C.3   300  HIS300      0.1621
    146  C        -37.6640   16.9200    0.5920 C.2   300  HIS300      0.2264
    147  O        -38.6080   17.3290    1.2590 O.2   300  HIS300     -0.2867
    148  CB       -35.9420   16.1340    2.1550 C.3   300  HIS300      0.0745
    149  CG       -34.5530   16.2120    2.6930 C.ar  300  HIS300      0.0817
    150  ND1      -33.4970   15.5490    2.1310 N.ar  300  HIS300     -0.2268
    151  CD2      -34.0350   16.9080    3.7430 C.ar  300  HIS300      0.1154
    152  CE1      -32.3770   15.8370    2.7840 C.ar  300  HIS300      0.1986
    153  NE2      -32.6960   16.6510    3.7840 N.ar  300  HIS300     -0.2212
@<TRIPOS>BOND
     1    86    87    1
     2    89    88    2
     3   105   104    2
     4    88    87    1
     5    29    30    1
     6    87    90    1
     7    30    33    1
     8    30    31    1
     9   104   103    1
    10    33    34    1
    11   108   106    1
    12    49    48    2
    13    90    91    1
    14    44    43    2
    15    31    41   am
    16    31    32    2
    17   106   103    1
    18   106   107    1
    19   103   102    1
    20    48    47    1
    21    41    42    1
    22    34    35   ar
    23    34    36   ar
    24   102    96   am
    25    35    37   ar
    26    94    95    1
    27    43    42    1
    28    43    46   am
    29    91    92    2
    30    91    93   am
    31    96    97    2
    32    96    95    1
    33    42    45    1
    34    47    46    1
    35    47    50    1
    36    36    38   ar
    37    95    98    1
    38    37    39   ar
    39    52    51   ar
    40    53    51   ar
    41    51    50    1
    42    38    39   ar
    43   139   140    1
    44    39    40    1
    45    98    99    1
    46    16    15    2
    47    13    14    1
    48   146   145    1
    49   146   147    2
    50    15    21   am
    51    15    14    1
    52    22    21    1
    53    22    23    1
    54   140   141    1
    55   140   143    1
    56   114   113    1
    57    99   101   am
    58    99   100    2
    59   145   144    1
    60   145   148    1
    61    14    17    1
    62   109   110    1
    63   141   142    2
    64    23    25   am
    65    23    24    2
    66   150   149   ar
    67   150   152   ar
    68   148   149    1
    69    60    59    1
    70    60    54    1
    71   113   110    1
    72    25    26    1
    73    56    57    2
    74    56    55    1
    75    59    58    1
    76   110   111    1
    77    58    55    1
    78   149   151   ar
    79    28    27    2
    80    17    19    1
    81    17    18    1
    82   152   153   ar
    83    54    55    1
    84    27    26    1
    85   130   131    1
    86    18    20    1
    87     1     2    1
    88   151   153   ar
    89   129   128    1
    90   111   112    2
    91   111   115   am
    92   126   125    1
    93   126   127    1
    94   128   127    1
    95     4     3    2
    96   134   131    1
    97   134   135    1
    98   131   132    1
    99   125   122    1
   100   115   116    1
   101     2     3    1
   102     2     5    1
   103   137   136   ar
   104   136   135    1
   105   136   138   ar
   106     5     6    1
   107   132   133    2
   108   121   122    1
   109   121   117   am
   110   122   123    1
   111   116   117    1
   112   116   119    1
   113   117   118    2
   114   123   124    2
   115    85    84   ar
   116    85    83   ar
   117   119   120    1
   118    84    82   ar
   119    83    81   ar
   120    82    79   ar
   121    10     9    2
   122    81    79   ar
   123    81    80   ar
   124    79    77   ar
   125    11    12    1
   126    11     8    1
   127     9     8    1
   128    75    74    2
   129    80    78   ar
   130     8     7    1
   131    77    78   ar
   132    77    76    1
   133    73    74    1
   134    73    76    1
   135    73    72    1
   136    61    62    1
   137    67    69   ar
   138    67    66   ar
   139    69    71   ar
   140    62    65    1
   141    62    63    1
   142    65    66    1
   143    66    68   ar
   144    63    64    2
   145    71    70   ar
   146    68    70   ar
