@<TRIPOS>MOLECULE
tmp/4mi6A00.pdb
 238 228 0 0 0
SMALL
GASTEIGER

@<TRIPOS>ATOM
      1  N         33.0320   20.2500   39.4720 N.3    77  GLU77      -0.1245
      2  CA        31.7000   20.7430   39.1020 C.3    77  GLU77       0.1567
      3  C         30.7550   19.5860   38.7670 C.2    77  GLU77       0.2260
      4  O         31.1290   18.6370   38.0520 O.2    77  GLU77      -0.2867
      5  CB        31.7700   21.6910   37.8940 C.3    77  GLU77       0.0388
      6  CG        32.6440   22.9140   38.1130 C.3    77  GLU77       0.1160
      7  CD        32.6070   23.9070   36.9690 C.2    77  GLU77       0.3649
      8  OE1       33.5310   24.7550   36.9020 O.co2  77  GLU77      -0.2457
      9  OE2       31.6730   23.8510   36.1350 O.co2  77  GLU77      -0.2457
     10  N         29.5450   25.6960   36.0280 N.3   122  ASN122     -0.1240
     11  CA        29.5550   26.9080   35.2240 C.3   122  ASN122      0.1653
     12  C         28.8240   26.7390   33.9010 C.2   122  ASN122      0.2266
     13  O         28.2090   27.6710   33.4270 O.2   122  ASN122     -0.2867
     14  CB        30.9950   27.2950   34.9150 C.3   122  ASN122      0.1155
     15  CG        31.6320   28.0990   36.0270 C.2   122  ASN122      0.2627
     16  OD1       31.2640   29.2460   36.2440 O.2   122  ASN122     -0.2716
     17  ND2       32.5880   27.5060   36.7310 N.am  122  ASN122     -0.0877
     18  N         29.1530   23.7320   30.3220 N.3   124  GLY124     -0.1210
     19  CA        29.2440   22.4390   29.6460 C.3   124  GLY124      0.1956
     20  C         29.9960   21.3500   30.3850 C.2   124  GLY124      0.2611
     21  O         29.5850   20.1850   30.4010 O.2   124  GLY124     -0.2717
     22  N         31.1160   21.7200   30.9910 N.am  125  LEU125     -0.1979
     23  CA        31.9510   20.7580   31.6880 C.3   125  LEU125      0.1596
     24  C         31.2110   20.1960   32.9040 C.2   125  LEU125      0.2287
     25  O         31.2190   18.9810   33.1400 O.2   125  LEU125     -0.2864
     26  CB        33.2820   21.4160   32.0790 C.3   125  LEU125      0.0297
     27  CG        34.2810   20.6100   32.9180 C.3   125  LEU125      0.0022
     28  CD1       35.7070   21.0490   32.6340 C.3   125  LEU125      0.0001
     29  CD2       33.9960   20.7800   34.3980 C.3   125  LEU125      0.0001
     30  N         28.1820   18.0540   31.7150 N.3   128  LEU128     -0.1245
     31  CA        28.6690   16.7760   31.2050 C.3   128  LEU128      0.1561
     32  C         28.8510   15.7540   32.3220 C.2   128  LEU128      0.2260
     33  O         28.4860   14.5920   32.1660 O.2   128  LEU128     -0.2867
     34  CB        29.9830   16.9400   30.4450 C.3   128  LEU128      0.0270
     35  CG        30.4740   15.6720   29.7360 C.3   128  LEU128      0.0019
     36  CD1       29.6740   15.4090   28.4710 C.3   128  LEU128      0.0001
     37  CD2       31.9530   15.7730   29.4040 C.3   128  LEU128      0.0001
     38  N         34.0130   29.0470   41.9320 N.3   264  TYR264     -0.1241
     39  CA        34.6080   30.0500   41.0200 C.3   264  TYR264      0.1605
     40  C         33.8350   30.1130   39.6960 C.2   264  TYR264      0.2264
     41  O         33.6410   29.0810   39.0600 O.2   264  TYR264     -0.2867
     42  CB        36.0820   29.7380   40.7540 C.3   264  TYR264      0.0534
     43  CG        36.9650   30.2300   41.8690 C.ar  264  TYR264     -0.0201
     44  CD1       37.1730   29.4670   43.0120 C.ar  264  TYR264     -0.0009
     45  CD2       37.5660   31.4770   41.7980 C.ar  264  TYR264     -0.0009
     46  CE1       37.9680   29.9270   44.0450 C.ar  264  TYR264      0.0417
     47  CE2       38.3710   31.9430   42.8330 C.ar  264  TYR264      0.0417
     48  CZ        38.5600   31.1660   43.9460 C.ar  264  TYR264      0.1957
     49  OH        39.3540   31.6330   44.9620 O.3   264  TYR264     -0.2866
     50  N         34.6430   31.9700   36.8670 N.3   266  ASN266     -0.1225
     51  CA        35.4520   32.4930   35.7530 C.3   266  ASN266      0.1785
     52  C         35.8550   31.3790   34.7820 C.2   266  ASN266      0.2597
     53  O         37.0500   31.1500   34.5630 O.2   266  ASN266     -0.2718
     54  CB        36.7010   33.2550   36.2720 C.3   266  ASN266      0.1169
     55  CG        37.4320   32.5230   37.4050 C.2   266  ASN266      0.2627
     56  OD1       36.8480   32.2630   38.4620 O.2   266  ASN266     -0.2716
     57  ND2       38.7080   32.2080   37.1990 N.am  266  ASN266     -0.0877
     58  N         34.8790   30.6740   34.1980 N.am  267  ASP267     -0.1960
     59  CA        35.2480   29.5070   33.3830 C.3   267  ASP267      0.1840
     60  C         35.9690   29.9550   32.1230 C.2   267  ASP267      0.2622
     61  O         35.7690   31.0630   31.6270 O.2   267  ASP267     -0.2715
     62  CB        34.0950   28.5450   33.0700 C.3   267  ASP267      0.1450
     63  CG        33.0560   29.1480   32.1810 C.2   267  ASP267      0.3671
     64  OD1       32.8500   30.3680   32.2900 O.co2 267  ASP267     -0.2456
     65  OD2       32.4540   28.3980   31.3940 O.co2 267  ASP267     -0.2456
     66  N         36.8590   29.0920   31.6720 N.am  268  ASN268     -0.1958
     67  CA        37.8090   29.3870   30.6000 C.3   268  ASN268      0.1819
     68  C         38.8100   30.5220   30.8550 C.2   268  ASN268      0.2621
     69  O         39.4960   30.9530   29.9250 O.2   268  ASN268     -0.2715
     70  CB        37.0740   29.5600   29.2660 C.3   268  ASN268      0.1195
     71  CG        36.7380   28.2300   28.6310 C.2   268  ASN268      0.2630
     72  OD1       37.6320   27.4520   28.2950 O.2   268  ASN268     -0.2716
     73  ND2       35.4460   27.9490   28.4750 N.am  268  ASN268     -0.0877
     74  N         38.9350   30.9800   32.1030 N.am  269  PHE269     -0.1960
     75  CA        39.9830   31.9330   32.4400 C.3   269  PHE269      0.1771
     76  C         40.7010   31.5380   33.7290 C.2   269  PHE269      0.2620
     77  O         40.2100   31.7780   34.8270 O.2   269  PHE269     -0.2715
     78  CB        39.4460   33.3600   32.5160 C.3   269  PHE269      0.0574
     79  CG        40.5300   34.3890   32.6220 C.ar  269  PHE269     -0.0200
     80  CD1       41.3660   34.6480   31.5360 C.ar  269  PHE269     -0.0042
     81  CD2       40.7520   35.0770   33.8150 C.ar  269  PHE269     -0.0042
     82  CE1       42.3900   35.5870   31.6320 C.ar  269  PHE269     -0.0003
     83  CE2       41.7700   36.0150   33.9140 C.ar  269  PHE269     -0.0003
     84  CZ        42.5880   36.2690   32.8220 C.ar  269  PHE269     -0.0000
     85  N         41.8590   30.9030   33.5820 N.am  270  PHE270     -0.1960
     86  CA        42.6400   30.4720   34.7360 C.3   270  PHE270      0.1771
     87  C         43.2290   31.6660   35.4990 C.2   270  PHE270      0.2619
     88  O         43.7820   32.5770   34.8970 O.2   270  PHE270     -0.2715
     89  CB        43.7790   29.5460   34.3140 C.3   270  PHE270      0.0574
     90  CG        44.6970   29.1850   35.4500 C.ar  270  PHE270     -0.0200
     91  CD1       44.2660   28.3320   36.4560 C.ar  270  PHE270     -0.0042
     92  CD2       45.9720   29.7280   35.5350 C.ar  270  PHE270     -0.0042
     93  CE1       45.1040   27.9990   37.5170 C.ar  270  PHE270     -0.0003
     94  CE2       46.8110   29.3960   36.5890 C.ar  270  PHE270     -0.0003
     95  CZ        46.3730   28.5380   37.5790 C.ar  270  PHE270     -0.0000
     96  N         43.0960   31.6380   36.8200 N.am  271  GLU271     -0.1977
     97  CA        43.7450   32.5930   37.7180 C.3   271  GLU271      0.1602
     98  C         44.4610   31.8040   38.8070 C.2   271  GLU271      0.2287
     99  O         43.8960   30.8630   39.3640 O.2   271  GLU271     -0.2864
    100  CB        42.7070   33.5070   38.3780 C.3   271  GLU271      0.0415
    101  CG        41.9900   34.4490   37.4290 C.3   271  GLU271      0.1163
    102  CD        41.0770   35.4170   38.1640 C.2   271  GLU271      0.3649
    103  OE1       41.5760   36.4460   38.6590 O.co2 271  GLU271     -0.2457
    104  OE2       39.8620   35.1470   38.2450 O.co2 271  GLU271     -0.2457
    105  N         41.4540   28.6420   45.2900 N.3   276  ARG276     -0.1245
    106  CA        41.1110   27.6620   44.2530 C.3   276  ARG276      0.1563
    107  C         42.0100   26.4380   44.3180 C.2   276  ARG276      0.2260
    108  O         41.5510   25.3180   44.1480 O.2   276  ARG276     -0.2867
    109  CB        41.1740   28.2940   42.8670 C.3   276  ARG276      0.0307
    110  CG        41.0450   27.3110   41.7160 C.3   276  ARG276      0.0489
    111  CD        39.6480   26.7460   41.5610 C.3   276  ARG276      0.2205
    112  NE        39.6120   25.9280   40.3480 N.pl3 276  ARG276     -0.0865
    113  CZ        38.5350   25.3610   39.8190 C.cat 276  ARG276      0.5346
    114  NH1       37.3410   25.4800   40.3900 N.pl3 276  ARG276      0.1354
    115  NH2       38.6670   24.6590   38.6930 N.pl3 276  ARG276      0.1354
    116  N         39.1530   17.2320   33.3080 N.3   313  ASP313     -0.1239
    117  CA        40.1470   18.2680   33.0350 C.3   313  ASP313      0.1674
    118  C         41.2710   18.1750   34.0770 C.2   313  ASP313      0.2266
    119  O         41.3680   17.1800   34.7660 O.2   313  ASP313     -0.2867
    120  CB        39.5370   19.6690   32.9420 C.3   313  ASP313      0.1410
    121  CG        40.2460   20.5450   31.9290 C.2   313  ASP313      0.3668
    122  OD1       39.5960   20.9830   30.9530 O.co2 313  ASP313     -0.2456
    123  OD2       41.4650   20.7840   32.1150 O.co2 313  ASP313     -0.2456
    124  N         41.6330   19.9680   36.7350 N.3   315  HIS315     -0.1241
    125  CA        41.2810   20.5650   38.0200 C.3   315  HIS315      0.1621
    126  C         41.5770   19.6250   39.2030 C.2   315  HIS315      0.2264
    127  O         41.9710   20.1010   40.2800 O.2   315  HIS315     -0.2867
    128  CB        39.8300   21.0720   38.0300 C.3   315  HIS315      0.0745
    129  CG        39.5040   21.9890   36.8940 C.ar  315  HIS315      0.0817
    130  ND1       38.2140   22.2430   36.4930 N.ar  315  HIS315     -0.2268
    131  CD2       40.3010   22.6840   36.0470 C.ar  315  HIS315      0.1154
    132  CE1       38.2270   23.0660   35.4610 C.ar  315  HIS315      0.1986
    133  NE2       39.4830   23.3590   35.1790 N.ar  315  HIS315     -0.2212
    134  N         39.3190   19.3220   27.9800 N.3   351  HIS351     -0.1226
    135  CA        38.1370   20.0260   27.4970 C.3   351  HIS351      0.1752
    136  C         38.4370   21.4160   26.9160 C.2   351  HIS351      0.2596
    137  O         37.5030   22.1990   26.7070 O.2   351  HIS351     -0.2718
    138  CB        37.1170   20.2250   28.6290 C.3   351  HIS351      0.0759
    139  CG        36.6620   18.9680   29.2990 C.ar  351  HIS351      0.0818
    140  ND1       35.4980   18.3240   28.9520 N.ar  351  HIS351     -0.2268
    141  CD2       37.1800   18.2740   30.3430 C.ar  351  HIS351      0.1154
    142  CE1       35.3220   17.2810   29.7430 C.ar  351  HIS351      0.1986
    143  NE2       36.3310   17.2270   30.5940 N.ar  351  HIS351     -0.2212
    144  N         39.7040   21.7530   26.6670 N.am  352  THR352     -0.1953
    145  CA        40.0020   23.0770   26.0970 C.3   352  THR352      0.1897
    146  C         41.2500   23.1540   25.2580 C.2   352  THR352      0.2313
    147  O         42.2040   22.4340   25.5130 O.2   352  THR352     -0.2863
    148  CB        40.2720   24.1570   27.1690 C.3   352  THR352      0.1794
    149  OG1       40.0820   23.6410   28.5030 O.3   352  THR352     -0.2208
    150  CG2       39.4170   25.4010   26.8730 C.3   352  THR352      0.0378
    151  N         42.9010   29.2480   29.3680 N.3   357  ALA357     -0.1245
    152  CA        42.1240   28.3050   30.1700 C.3   357  ALA357      0.1562
    153  C         42.9890   27.2010   30.8060 C.2   357  ALA357      0.2260
    154  O         42.5100   26.4740   31.6880 O.2   357  ALA357     -0.2867
    155  CB        41.0350   27.6860   29.3160 C.3   357  ALA357      0.0290
    156  N         45.6380   25.3920   33.1810 N.3   359  GLU359     -0.1245
    157  CA        46.1220   25.5970   34.5290 C.3   359  GLU359      0.1567
    158  C         47.6330   25.5260   34.5700 C.2   359  GLU359      0.2260
    159  O         48.2170   24.4960   34.2910 O.2   359  GLU359     -0.2867
    160  CB        45.5630   24.5580   35.4940 C.3   359  GLU359      0.0388
    161  CG        44.0600   24.6510   35.6920 C.3   359  GLU359      0.1160
    162  CD        43.6330   23.8800   36.9140 C.2   359  GLU359      0.3649
    163  OE1       43.6690   22.6300   36.8560 O.co2 359  GLU359     -0.2457
    164  OE2       43.3200   24.5310   37.9350 O.co2 359  GLU359     -0.2457
    165  N         37.1450   15.4940   23.3230 N.3   429  VAL429     -0.1245
    166  CA        35.7110   15.3680   23.5880 C.3   429  VAL429      0.1561
    167  C         34.8810   15.4690   22.3170 C.2   429  VAL429      0.2260
    168  O         33.6490   15.4810   22.3720 O.2   429  VAL429     -0.2867
    169  CB        35.2630   16.3820   24.6720 C.3   429  VAL429      0.0252
    170  CG1       35.8500   15.9910   26.0160 C.3   429  VAL429      0.0019
    171  CG2       35.6590   17.8040   24.3280 C.3   429  VAL429      0.0019
    172  N         31.4810   13.6720   23.0880 N.3   458  ASN458     -0.1240
    173  CA        30.5030   13.9660   24.1360 C.3   458  ASN458      0.1653
    174  C         29.0710   13.5290   23.7690 C.2   458  ASN458      0.2266
    175  O         28.7510   13.2100   22.6210 O.2   458  ASN458     -0.2867
    176  CB        30.4870   15.4770   24.4580 C.3   458  ASN458      0.1155
    177  CG        31.6400   15.9350   25.3780 C.2   458  ASN458      0.2627
    178  OD1       31.8920   17.1590   25.5190 O.2   458  ASN458     -0.2716
    179  ND2       32.3090   15.0070   26.0070 N.am  458  ASN458     -0.0877
    180  N         34.7560   33.8190   22.0860 N.3   547  TYR547     -0.1227
    181  CA        34.9010   32.7070   21.1420 C.3   547  TYR547      0.1736
    182  C         33.5750   32.1450   20.6690 C.2   547  TYR547      0.2595
    183  O         33.5040   31.6410   19.5490 O.2   547  TYR547     -0.2718
    184  CB        35.8350   31.6020   21.6640 C.3   547  TYR547      0.0548
    185  CG        35.2470   30.4750   22.5020 C.ar  547  TYR547     -0.0200
    186  CD1       34.6540   29.3670   21.9030 C.ar  547  TYR547     -0.0009
    187  CD2       35.3910   30.4590   23.8840 C.ar  547  TYR547     -0.0009
    188  CE1       34.1660   28.3180   22.6570 C.ar  547  TYR547      0.0417
    189  CE2       34.8910   29.4170   24.6490 C.ar  547  TYR547      0.0417
    190  CZ        34.2830   28.3430   24.0330 C.ar  547  TYR547      0.1957
    191  OH        33.7980   27.2870   24.7870 O.3   547  TYR547     -0.2866
    192  N         32.5440   32.2360   21.5060 N.am  548  LYS548     -0.1980
    193  CA        31.2060   31.7430   21.1530 C.3   548  LYS548      0.1596
    194  C         30.4610   32.6890   20.1950 C.2   548  LYS548      0.2287
    195  O         29.4690   32.2950   19.5820 O.2   548  LYS548     -0.2864
    196  CB        30.3870   31.4660   22.4260 C.3   548  LYS548      0.0298
    197  CG        30.9160   30.2620   23.2130 C.3   548  LYS548      0.0038
    198  CD        30.3290   30.1720   24.6160 C.3   548  LYS548      0.0206
    199  CE        30.8390   28.9810   25.4190 C.3   548  LYS548      0.1093
    200  NZ        30.3830   27.6690   24.8420 N.3   548  LYS548     -0.1314
    201  N         37.6310   26.4330   18.1400 N.3   645  THR645     -0.1203
    202  CA        37.5570   26.9740   19.4980 C.3   645  THR645      0.1994
    203  C         36.6060   26.2490   20.4510 C.2   645  THR645      0.2618
    204  O         36.8970   26.1810   21.6400 O.2   645  THR645     -0.2717
    205  CB        37.2160   28.4780   19.5100 C.3   645  THR645      0.1784
    206  OG1       35.9080   28.7070   18.9640 O.3   645  THR645     -0.2211
    207  CG2       38.2560   29.2520   18.7180 C.3   645  THR645      0.0376
    208  N         35.4710   25.7440   19.9590 N.am  646  GLU646     -0.1965
    209  CA        34.5440   24.9840   20.8190 C.3   646  GLU646      0.1733
    210  C         34.9490   23.5250   20.7850 C.2   646  GLU646      0.2616
    211  O         34.7320   22.8670   19.7840 O.2   646  GLU646     -0.2715
    212  CB        33.0860   25.1420   20.3400 C.3   646  GLU646      0.0429
    213  CG        32.0360   24.6650   21.3390 C.3   646  GLU646      0.1163
    214  CD        31.9000   25.6030   22.5210 C.2   646  GLU646      0.3649
    215  OE1       32.5830   25.3720   23.5440 O.co2 646  GLU646     -0.2457
    216  OE2       31.1340   26.5930   22.4250 O.co2 646  GLU646     -0.2457
    217  N         35.5230   23.0050   21.8760 N.am  647  ALA647     -0.1963
    218  CA        36.0450   21.6340   21.8810 C.3   647  ALA647      0.1728
    219  C         34.9960   20.6300   21.4030 C.2   647  ALA647      0.2617
    220  O         35.2720   19.8020   20.5340 O.2   647  ALA647     -0.2715
    221  CB        36.5600   21.2500   23.2600 C.3   647  ALA647      0.0334
    222  N         33.7900   20.7130   21.9630 N.am  648  SER648     -0.1936
    223  CA        32.6890   19.8590   21.5150 C.3   648  SER648      0.2055
    224  C         31.4060   20.6430   21.3980 C.2   648  SER648      0.2644
    225  O         30.8230   20.7590   20.3130 O.2   648  SER648     -0.2714
    226  CB        32.4940   18.6820   22.4710 C.3   648  SER648      0.2130
    227  OG        31.3000   17.9660   22.1760 O.3   648  SER648     -0.2179
    228  N         30.9790   21.2150   22.5170 N.am  649  GLY649     -0.1939
    229  CA        29.6260   21.7070   22.6460 C.3   649  GLY649      0.2014
    230  C         28.7580   20.5450   23.0840 C.2   649  GLY649      0.2639
    231  O         29.0340   19.3820   22.7490 O.2   649  GLY649     -0.2714
    232  N         27.7430   20.8560   23.8810 N.am  650  THR650     -0.1950
    233  CA        26.6990   19.9030   24.2540 C.3   650  THR650      0.1897
    234  C         25.3000   20.4980   24.1250 C.2   650  THR650      0.2313
    235  O         24.3420   19.7580   23.8420 O.2   650  THR650     -0.2863
    236  CB        26.8760   19.3390   25.6730 C.3   650  THR650      0.1794
    237  OG1       26.9290   20.4090   26.6100 O.3   650  THR650     -0.2208
    238  CG2       28.1270   18.4970   25.7650 C.3   650  THR650      0.0378
@<TRIPOS>BOND
     1   201   202    1
     2   207   205    1
     3   206   205    1
     4   202   205    1
     5   202   203    1
     6   183   182    2
     7   195   194    2
     8   211   210    2
     9   208   203   am
    10   208   209    1
    11   194   193    1
    12   225   224    2
    13   212   209    1
    14   212   213    1
    15   203   204    2
    16   220   219    2
    17   182   181    1
    18   182   192   am
    19   210   209    1
    20   210   217   am
    21   181   184    1
    22   181   180    1
    23   193   192    1
    24   193   196    1
    25   213   214    1
    26   224   223    1
    27   224   228   am
    28   219   218    1
    29   219   222   am
    30   223   222    1
    31   223   226    1
    32   184   185    1
    33   217   218    1
    34   218   221    1
    35   186   185   ar
    36   186   188   ar
    37   227   226    1
    38   167   168    2
    39   167   166    1
    40   216   214   ar
    41   196   197    1
    42   185   187   ar
    43   228   229    1
    44   214   215   ar
    45   175   174    2
    46   229   230    1
    47   188   190   ar
    48   231   230    2
    49   230   232   am
    50   172   173    1
    51   197   198    1
    52   165   166    1
    53   166   169    1
    54   174   173    1
    55   235   234    2
    56   232   233    1
    57   187   189   ar
    58   190   189   ar
    59   190   191    1
    60   234   233    1
    61   173   176    1
    62   233   236    1
    63   171   169    1
    64   176   177    1
    65   198   199    1
    66   169   170    1
    67   200   199    1
    68   146   147    2
    69   146   145    1
    70   177   178    2
    71   177   179   am
    72   236   238    1
    73   236   237    1
    74   145   144    1
    75   145   148    1
    76   144   136   am
    77   137   136    2
    78   150   148    1
    79   136   135    1
    80   148   149    1
    81   135   134    1
    82   135   138    1
    83    72    71    2
    84    36    35    1
    85    73    71   am
    86   138   139    1
    87    71    70    1
    88   140   139   ar
    89   140   142   ar
    90    70    67    1
    91   139   141   ar
    92   155   152    1
    93   151   152    1
    94    37    35    1
    95    19    18    1
    96    19    20    1
    97    35    34    1
    98   142   143   ar
    99    69    68    2
   100   152   153    1
   101   141   143   ar
   102    20    21    2
   103    20    22   am
   104    34    31    1
   105    67    68    1
   106    67    66    1
   107   153   154    2
   108    68    74   am
   109   122   121   ar
   110    22    23    1
   111    31    30    1
   112    31    32    1
   113    65    63   ar
   114    80    82   ar
   115    80    79   ar
   116    61    60    2
   117    82    84   ar
   118    66    60   am
   119    23    26    1
   120    23    24    1
   121   121   123   ar
   122   121   120    1
   123    26    27    1
   124    74    75    1
   125    60    59    1
   126    33    32    2
   127    63    64   ar
   128    63    62    1
   129    75    78    1
   130    75    76    1
   131    78    79    1
   132    79    81   ar
   133    28    27    1
   134    84    83   ar
   135    24    25    2
   136    27    29    1
   137   120   117    1
   138   117   116    1
   139   117   118    1
   140    62    59    1
   141   156   157    1
   142    59    58    1
   143    13    12    2
   144    85    76   am
   145    85    86    1
   146    76    77    2
   147    81    83   ar
   148    12    11    1
   149   118   119    2
   150    58    52   am
   151   159   158    2
   152    89    86    1
   153    89    90    1
   154   157   158    1
   155   157   160    1
   156    53    52    2
   157    86    87    1
   158    52    51    1
   159    88    87    2
   160    14    11    1
   161    14    15    1
   162   133   132   ar
   163   133   131   ar
   164    11    10    1
   165    90    92   ar
   166    90    91   ar
   167   132   130   ar
   168   160   161    1
   169    87    96   am
   170    92    94   ar
   171   161   162    1
   172    51    54    1
   173    51    50    1
   174    15    16    2
   175    15    17   am
   176   131   129   ar
   177     9     7   ar
   178    54    55    1
   179    91    93   ar
   180   130   129   ar
   181    94    95   ar
   182   124   125    1
   183    96    97    1
   184   163   162   ar
   185   129   128    1
   186     8     7   ar
   187   162   164   ar
   188     7     6    1
   189    57    55   am
   190    55    56    2
   191   101   102    1
   192   101   100    1
   193    93    95   ar
   194    97   100    1
   195    97    98    1
   196     5     6    1
   197     5     2    1
   198   125   128    1
   199   125   126    1
   200     4     3    2
   201   102   104   ar
   202   102   103   ar
   203   115   113    1
   204     3     2    1
   205    98    99    2
   206    41    40    2
   207     2     1    1
   208   126   127    2
   209    40    39    1
   210   113   112    2
   211   113   114    1
   212   112   111    1
   213    42    39    1
   214    42    43    1
   215    39    38    1
   216   111   110    1
   217   110   109    1
   218    45    43   ar
   219    45    47   ar
   220    43    44   ar
   221    47    48   ar
   222   109   106    1
   223    44    46   ar
   224    48    46   ar
   225    48    49    1
   226   108   107    2
   227   106   107    1
   228   106   105    1
