@<TRIPOS>MOLECULE
tmp/4miaB00.pdb
 226 213 0 0 0
SMALL
GASTEIGER

@<TRIPOS>ATOM
      1  N         23.6980   12.9840   21.3370 N.3   153  ARG153     -0.1245
      2  CA        22.5630   12.4730   22.1060 C.3   153  ARG153      0.1563
      3  C         23.0730   11.2620   22.8860 C.2   153  ARG153      0.2260
      4  O         23.9940   10.5840   22.4290 O.2   153  ARG153     -0.2867
      5  CB        21.4070   12.0500   21.1910 C.3   153  ARG153      0.0307
      6  CG        20.4830   13.1840   20.8040 C.3   153  ARG153      0.0489
      7  CD        19.0370   12.7160   20.8130 C.3   153  ARG153      0.2205
      8  NE        18.6900   11.8980   19.6450 N.pl3 153  ARG153     -0.0865
      9  CZ        17.6970   11.0100   19.6170 C.cat 153  ARG153      0.5346
     10  NH1       16.9540   10.7990   20.6970 N.pl3 153  ARG153      0.1354
     11  NH2       17.4460   10.3220   18.5110 N.pl3 153  ARG153      0.1354
     12  N          1.6390    5.4660   16.4820 N.3   188  PHE188     -0.1241
     13  CA         2.5520    4.4270   15.9980 C.3   188  PHE188      0.1605
     14  C          1.8380    3.2270   15.3720 C.2   188  PHE188      0.2264
     15  O          2.4950    2.3260   14.8580 O.2   188  PHE188     -0.2867
     16  CB         3.5200    3.9860   17.0980 C.3   188  PHE188      0.0534
     17  CG         4.6280    4.9480   17.4790 C.ar  188  PHE188     -0.0203
     18  CD1        5.4060    5.5690   16.5010 C.ar  188  PHE188     -0.0042
     19  CD2        4.9530    5.1680   18.8140 C.ar  188  PHE188     -0.0042
     20  CE1        6.4480    6.4330   16.8560 C.ar  188  PHE188     -0.0003
     21  CE2        5.9920    6.0430   19.1650 C.ar  188  PHE188     -0.0003
     22  CZ         6.7370    6.6610   18.1830 C.ar  188  PHE188     -0.0000
     23  N          2.1040    6.1360    7.2310 N.3   192  PRO192     -0.2116
     24  CA         2.0830    7.5910    6.9520 C.3   192  PRO192      0.1372
     25  C          0.7490    7.9870    6.2970 C.2   192  PRO192      0.2244
     26  O          0.1430    8.9980    6.6800 O.2   192  PRO192     -0.2868
     27  CB         3.2840    7.7990    6.0220 C.3   192  PRO192      0.0268
     28  CG         4.1330    6.6010    6.1990 C.3   192  PRO192      0.0207
     29  CD         3.2160    5.4720    6.5140 C.3   192  PRO192      0.0892
     30  N         -2.0920    8.0650    8.7890 N.3   195  ARG195     -0.1245
     31  CA        -1.8600    9.1800    9.7030 C.3   195  ARG195      0.1563
     32  C         -2.4180   10.4480    9.0800 C.2   195  ARG195      0.2260
     33  O         -3.1630   11.1790    9.7390 O.2   195  ARG195     -0.2867
     34  CB        -0.3580    9.3380   10.0030 C.3   195  ARG195      0.0307
     35  CG        -0.0370   10.5320   10.8960 C.3   195  ARG195      0.0489
     36  CD         1.4300   10.6670   11.2360 C.3   195  ARG195      0.2205
     37  NE         1.6510   11.7820   12.1580 N.pl3 195  ARG195     -0.0865
     38  CZ         1.5890   11.6780   13.4820 C.cat 195  ARG195      0.5346
     39  NH1        1.3200   10.5080   14.0520 N.pl3 195  ARG195      0.1354
     40  NH2        1.7640   12.7490   14.2460 N.pl3 195  ARG195      0.1354
     41  N         12.8790   12.5810   27.9630 N.3   220  ASP220     -0.1239
     42  CA        13.4160   11.4750   28.7560 C.3   220  ASP220      0.1674
     43  C         13.9080   11.9850   30.0950 C.2   220  ASP220      0.2266
     44  O         13.5640   11.4080   31.1260 O.2   220  ASP220     -0.2867
     45  CB        14.5490   10.7610   27.9940 C.3   220  ASP220      0.1410
     46  CG        14.1160    9.7410   26.9450 C.2   220  ASP220      0.3668
     47  OD1       12.8950    9.6460   26.6650 O.co2 220  ASP220     -0.2456
     48  OD2       14.9960    9.0140   26.4260 O.co2 220  ASP220     -0.2456
     49  N         10.8080    2.3450   26.3760 N.3   282  THR282     -0.1203
     50  CA        11.0820    3.7760   26.1070 C.3   282  THR282      0.1994
     51  C          9.9680    4.4140   25.2650 C.2   282  THR282      0.2618
     52  O          9.4370    5.4490   25.6530 O.2   282  THR282     -0.2717
     53  CB        12.4900    3.9920   25.5000 C.3   282  THR282      0.1784
     54  OG1       13.4640    3.5120   26.4200 O.3   282  THR282     -0.2211
     55  CG2       12.7840    5.4650   25.1540 C.3   282  THR282      0.0376
     56  N          9.6060    3.7870   24.1410 N.am  283  SER283     -0.1951
     57  CA         8.5640    4.2900   23.2530 C.3   283  SER283      0.1924
     58  C          7.2160    4.3090   23.9340 C.2   283  SER283      0.2314
     59  O          6.6450    5.3830   24.0800 O.2   283  SER283     -0.2863
     60  CB         8.5090    3.4740   21.9690 C.3   283  SER283      0.2116
     61  OG         8.2080    4.3200   20.8730 O.3   283  SER283     -0.2180
     62  N          7.0140    6.5420   27.1730 N.3   286  ASN286     -0.1240
     63  CA         6.9690    7.9390   26.7360 C.3   286  ASN286      0.1653
     64  C          5.6140    8.3320   26.1810 C.2   286  ASN286      0.2266
     65  O          5.1610    9.4230   26.4980 O.2   286  ASN286     -0.2867
     66  CB         8.0850    8.2630   25.7260 C.3   286  ASN286      0.1155
     67  CG         9.4590    8.5350   26.3230 C.2   286  ASN286      0.2627
     68  OD1        9.6450    8.6460   27.5400 O.2   286  ASN286     -0.2716
     69  ND2       10.4550    8.7050   25.4680 N.am  286  ASN286     -0.0877
     70  N          2.9510   10.1520   19.7950 N.3   311  ASN311     -0.1225
     71  CA         3.9560    9.2140   19.3140 C.3   311  ASN311      0.1785
     72  C          5.1330    9.4520   20.2170 C.2   311  ASN311      0.2598
     73  O          5.8500   10.4320   20.0350 O.2   311  ASN311     -0.2718
     74  CB         4.3540    9.5310   17.8760 C.3   311  ASN311      0.1169
     75  CG         3.2070    9.6040   16.9260 C.2   311  ASN311      0.2627
     76  OD1        2.4980   10.6080   16.8390 O.2   311  ASN311     -0.2716
     77  ND2        3.0310    8.5550   16.1670 N.am  311  ASN311     -0.0877
     78  N          5.2610    8.6180   21.2410 N.am  312  GLY312     -0.1942
     79  CA         6.2980    8.7820   22.2410 C.3   312  GLY312      0.2014
     80  C          6.1930   10.1410   22.8910 C.2   312  GLY312      0.2639
     81  O          5.1520   10.4860   23.4560 O.2   312  GLY312     -0.2714
     82  N          7.2400   10.9440   22.7360 N.am  313  ASP313     -0.1957
     83  CA         7.3350   12.2840   23.3000 C.3   313  ASP313      0.1840
     84  C          6.6900   13.3540   22.4150 C.2   313  ASP313      0.2622
     85  O          6.5210   14.4930   22.8510 O.2   313  ASP313     -0.2715
     86  CB         8.8060   12.6120   23.5980 C.3   313  ASP313      0.1450
     87  CG         9.7220   12.7600   22.3950 C.2   313  ASP313      0.3671
     88  OD1        9.4310   12.1420   21.3440 O.co2 313  ASP313     -0.2456
     89  OD2       10.7580   13.4610   22.5200 O.co2 313  ASP313     -0.2456
     90  N          6.3330   12.9820   21.1770 N.am  314  ASP314     -0.1971
     91  CA         5.7350   13.8610   20.1790 C.3   314  ASP314      0.1709
     92  C          4.2190   13.8820   20.2740 C.2   314  ASP314      0.2293
     93  O          3.5920   12.8250   20.1860 O.2   314  ASP314     -0.2864
     94  CB         6.1850   13.4300   18.7830 C.3   314  ASP314      0.1436
     95  CG         6.8590   14.5260   18.0050 C.2   314  ASP314      0.3671
     96  OD1        6.1400   15.3430   17.4000 O.co2 314  ASP314     -0.2456
     97  OD2        8.1150   14.5650   17.9950 O.co2 314  ASP314     -0.2456
     98  N          4.8380   18.1910   13.5950 N.3   360  SER360     -0.1202
     99  CA         5.0430   17.1130   14.5640 C.3   360  SER360      0.2020
    100  C          5.8320   15.9870   13.8990 C.2   360  SER360      0.2619
    101  O          5.6770   15.7500   12.6930 O.2   360  SER360     -0.2717
    102  CB         3.7110   16.5640   15.0400 C.3   360  SER360      0.2103
    103  OG         3.8820   15.5290   15.9920 O.3   360  SER360     -0.2182
    104  N          6.6610   15.2800   14.6940 N.am  361  CYS361     -0.1969
    105  CA         7.5190   14.1840   14.2440 C.3   361  CYS361      0.1712
    106  C          8.4270   14.6910   13.1100 C.2   361  CYS361      0.2296
    107  O          8.7550   13.9550   12.1730 O.2   361  CYS361     -0.2864
    108  CB         6.6940   12.9590   13.8390 C.3   361  CYS361      0.0983
    109  SG         5.7950   12.1760   15.2120 S.3   361  CYS361     -0.0798
    110  N          7.8030   16.4440   10.7240 N.3   363  SER363     -0.1217
    111  CA         7.0140   16.4400    9.4930 C.3   363  SER363      0.1889
    112  C          5.7930   17.3630    9.5520 C.2   363  SER363      0.2288
    113  O          5.4820   17.9300   10.6020 O.2   363  SER363     -0.2866
    114  CB         6.5280   15.0240    9.1980 C.3   363  SER363      0.2089
    115  OG         7.6210   14.1560    8.9730 O.3   363  SER363     -0.2183
    116  N          2.2620   13.3590    3.7690 N.3   379  LEU379     -0.1245
    117  CA         3.2360   13.8290    4.7640 C.3   379  LEU379      0.1561
    118  C          4.6260   14.0300    4.1700 C.2   379  LEU379      0.2260
    119  O          5.1650   13.1510    3.4730 O.2   379  LEU379     -0.2867
    120  CB         3.3030   12.9040    5.9900 C.3   379  LEU379      0.0270
    121  CG         2.3070   13.2210    7.0800 C.3   379  LEU379      0.0019
    122  CD1        1.7890   11.9710    7.7080 C.3   379  LEU379      0.0001
    123  CD2        2.9020   14.1750    8.1130 C.3   379  LEU379      0.0001
    124  N          8.5210   16.6060    4.9900 N.3   381  ARG381     -0.1245
    125  CA         9.3530   17.2070    6.0340 C.3   381  ARG381      0.1563
    126  C         10.4560   18.0210    5.3810 C.2   381  ARG381      0.2260
    127  O         10.6020   17.9740    4.1560 O.2   381  ARG381     -0.2867
    128  CB         9.9670   16.1240    6.9260 C.3   381  ARG381      0.0307
    129  CG        10.9900   15.2420    6.2150 C.3   381  ARG381      0.0489
    130  CD        11.8670   14.5610    7.2080 C.3   381  ARG381      0.2205
    131  NE        12.7240   15.5200    7.9000 N.pl3 381  ARG381     -0.0865
    132  CZ        13.2870   15.2830    9.0720 C.cat 381  ARG381      0.5346
    133  NH1       13.0790   14.1310    9.6950 N.pl3 381  ARG381      0.1354
    134  NH2       14.0640   16.1960    9.6360 N.pl3 381  ARG381      0.1354
    135  N         21.9820    1.1780    9.8400 N.3   400  VAL400     -0.1231
    136  CA        20.6660    1.7690    9.5830 C.3   400  VAL400      0.1692
    137  C         20.7220    2.6050    8.3020 C.2   400  VAL400      0.2592
    138  O         21.4190    3.6150    8.2500 O.2   400  VAL400     -0.2718
    139  CB        20.1430    2.5800   10.8050 C.3   400  VAL400      0.0266
    140  CG1       21.1460    3.6310   11.2960 C.3   400  VAL400      0.0020
    141  CG2       18.8030    3.2400   10.5180 C.3   400  VAL400      0.0020
    142  N         20.0200    2.1750    7.2560 N.am  401  ASN401     -0.1960
    143  CA        20.0500    2.9440    6.0230 C.3   401  ASN401      0.1819
    144  C         18.9220    3.9490    6.0420 C.2   401  ASN401      0.2622
    145  O         17.7860    3.6190    5.6990 O.2   401  ASN401     -0.2715
    146  CB        20.0540    2.0360    4.7930 C.3   401  ASN401      0.1195
    147  CG        21.2730    1.1450    4.7570 C.2   401  ASN401      0.2630
    148  OD1       22.3630    1.5580    4.3370 O.2   401  ASN401     -0.2716
    149  ND2       21.1360   -0.0690    5.2770 N.am  401  ASN401     -0.0877
    150  N         19.2420    5.1750    6.5060 N.am  402  SER402     -0.1950
    151  CA        18.2920    6.2890    6.6360 C.3   402  SER402      0.1924
    152  C         17.6470    6.6340    5.3110 C.2   402  SER402      0.2314
    153  O         16.4360    6.8400    5.2880 O.2   402  SER402     -0.2863
    154  CB        18.9530    7.5180    7.2530 C.3   402  SER402      0.2116
    155  OG        19.7230    8.2470    6.3170 O.3   402  SER402     -0.2180
    156  N         14.7940    4.2160    4.7200 N.3   405  GLY405     -0.1210
    157  CA        13.6450    4.5430    5.5490 C.3   405  GLY405      0.1956
    158  C         12.9500    5.8090    5.0760 C.2   405  GLY405      0.2611
    159  O         11.7180    5.8850    5.0960 O.2   405  GLY405     -0.2717
    160  N         13.7380    6.8000    4.6120 N.am  406  ASN406     -0.1974
    161  CA        13.2280    8.0630    4.1060 C.3   406  ASN406      0.1688
    162  C         12.4710    7.8820    2.8040 C.2   406  ASN406      0.2292
    163  O         11.4710    8.5690    2.6010 O.2   406  ASN406     -0.2864
    164  CB        14.3320    9.1070    3.9790 C.3   406  ASN406      0.1181
    165  CG        14.7800    9.7050    5.3020 C.2   406  ASN406      0.2629
    166  OD1       13.9760   10.0640    6.1920 O.2   406  ASN406     -0.2716
    167  ND2       16.0840    9.8540    5.4420 N.am  406  ASN406     -0.0877
    168  N          9.0670    6.0090    4.1620 N.3   409  MET409     -0.1230
    169  CA         8.1750    6.8700    4.9300 C.3   409  MET409      0.1702
    170  C          7.7530    8.1390    4.1960 C.2   409  MET409      0.2592
    171  O          6.6570    8.6530    4.4590 O.2   409  MET409     -0.2718
    172  CB         8.8060    7.1790    6.2980 C.3   409  MET409      0.0401
    173  CG         9.1600    5.9090    7.0780 C.3   409  MET409      0.0596
    174  SD         7.7890    4.6950    7.1760 S.3   409  MET409     -0.1393
    175  CE         7.0080    5.2090    8.6500 C.3   409  MET409      0.0692
    176  N          8.5970    8.6200    3.2540 N.am  410  TYR410     -0.1976
    177  CA         8.3400    9.8470    2.4920 C.3   410  TYR410      0.1639
    178  C          8.3030    9.6210    0.9930 C.2   410  TYR410      0.2290
    179  O          8.6370   10.5210    0.2260 O.2   410  TYR410     -0.2864
    180  CB         9.3380   10.9630    2.8710 C.3   410  TYR410      0.0560
    181  CG         9.3290   11.3210    4.3350 C.ar  410  TYR410     -0.0198
    182  CD1        8.3210   12.1190    4.8710 C.ar  410  TYR410     -0.0009
    183  CD2       10.3150   10.8470    5.1920 C.ar  410  TYR410     -0.0009
    184  CE1        8.2880   12.4260    6.2310 C.ar  410  TYR410      0.0417
    185  CE2       10.3140   11.1760    6.5450 C.ar  410  TYR410      0.0417
    186  CZ         9.2910   11.9580    7.0640 C.ar  410  TYR410      0.1957
    187  OH         9.2830   12.2910    8.3950 O.3   410  TYR410     -0.2866
    188  N         15.6050    1.3810    9.5680 N.3   441  GLN441     -0.1231
    189  CA        14.7840    1.5990   10.7570 C.3   441  GLN441      0.1698
    190  C         13.5180    2.3770   10.4770 C.2   441  GLN441      0.2592
    191  O         13.5600    3.4280    9.8440 O.2   441  GLN441     -0.2718
    192  CB        15.5830    2.2710   11.8790 C.3   441  GLN441      0.0381
    193  CG        16.3360    1.2850   12.7630 C.3   441  GLN441      0.0905
    194  CD        16.6330    1.8600   14.1260 C.2   441  GLN441      0.2608
    195  OE1       15.7620    2.4400   14.7910 O.2   441  GLN441     -0.2717
    196  NE2       17.8630    1.6750   14.5920 N.am  441  GLN441     -0.0878
    197  N         12.3920    1.8620   10.9660 N.am  442  ILE442     -0.1966
    198  CA        11.0680    2.4640   10.8110 C.3   442  ILE442      0.1727
    199  C         10.3980    2.4640   12.1840 C.2   442  ILE442      0.2616
    200  O         10.3290    1.4060   12.8190 O.2   442  ILE442     -0.2715
    201  CB        10.2410    1.7330    9.7110 C.3   442  ILE442      0.0290
    202  CG1       10.7510    2.1120    8.3090 C.3   442  ILE442      0.0022
    203  CG2        8.7270    1.9980    9.8360 C.3   442  ILE442      0.0023
    204  CD1       11.2100    0.9540    7.5100 C.3   442  ILE442      0.0001
    205  N          9.9340    3.6600   12.6500 N.am  443  TYR443     -0.1960
    206  CA         9.2950    3.8940   13.9630 C.3   443  TYR443      0.1771
    207  C         10.1920    3.4070   15.1420 C.2   443  TYR443      0.2620
    208  O          9.6850    3.0890   16.2180 O.2   443  TYR443     -0.2715
    209  CB         7.8700    3.2770   14.0280 C.3   443  TYR443      0.0574
    210  CG         6.7600    4.0340   13.3170 C.ar  443  TYR443     -0.0198
    211  CD1        7.0230    5.2080   12.6140 C.ar  443  TYR443     -0.0009
    212  CD2        5.4410    3.5760   13.3520 C.ar  443  TYR443     -0.0009
    213  CE1        6.0060    5.9030   11.9580 C.ar  443  TYR443      0.0417
    214  CE2        4.4160    4.2660   12.7010 C.ar  443  TYR443      0.0417
    215  CZ         4.7050    5.4260   12.0010 C.ar  443  TYR443      0.1957
    216  OH         3.7060    6.1250   11.3690 O.3   443  TYR443     -0.2866
    217  N         11.5100    3.3650   14.9030 N.am  444  GLY444     -0.1954
    218  CA        12.5070    2.9040   15.8580 C.3   444  GLY444      0.1869
    219  C         12.7690    1.4090   15.8090 C.2   444  GLY444      0.2309
    220  O         13.6630    0.9250   16.5090 O.2   444  GLY444     -0.2863
    221  N         11.2500    2.6120   19.3790 N.3   539  SER539     -0.1217
    222  CA        12.4100    3.5090   19.4820 C.3   539  SER539      0.1889
    223  C         13.1760    3.2810   20.7880 C.2   539  SER539      0.2288
    224  O         12.6560    3.5630   21.8750 O.2   539  SER539     -0.2866
    225  CB        11.9890    4.9680   19.3010 C.3   539  SER539      0.2089
    226  OG        13.0740    5.8700   19.4440 O.3   539  SER539     -0.2183
@<TRIPOS>BOND
     1   179   178    2
     2   178   177    1
     3   177   180    1
     4   177   176    1
     5   163   162    2
     6   162   161    1
     7   180   181    1
     8   176   170   am
     9   119   118    2
    10   116   117    1
    11   164   161    1
    12   164   165    1
    13   161   160    1
    14   127   126    2
    15   168   169    1
    16   118   117    1
    17   170   171    2
    18   170   169    1
    19   181   182   ar
    20   181   183   ar
    21   148   147    2
    22   160   158   am
    23   156   157    1
    24   147   146    1
    25   147   149   am
    26   117   120    1
    27   146   143    1
    28   182   184   ar
    29   169   172    1
    30   124   125    1
    31   158   159    2
    32   158   157    1
    33   183   185   ar
    34   153   152    2
    35   165   167   am
    36   165   166    2
    37   152   151    1
    38   126   125    1
    39   145   144    2
    40   120   121    1
    41    27    28    1
    42    27    24    1
    43   143   144    1
    44   143   142    1
    45   125   128    1
    46   144   150   am
    47    28    29    1
    48   129   128    1
    49   129   130    1
    50   184   186   ar
    51    25    26    2
    52    25    24    1
    53   172   173    1
    54   155   154    1
    55   150   151    1
    56    29    23    1
    57   185   186   ar
    58   151   154    1
    59    24    23    1
    60   186   187    1
    61   173   174    1
    62   121   122    1
    63   121   123    1
    64   174   175    1
    65   130   131    1
    66   142   137   am
    67   204   202    1
    68   131   132    2
    69   138   137    2
    70   137   136    1
    71   202   201    1
    72    30    31    1
    73   115   114    1
    74   132   134    1
    75   132   133    1
    76    32    31    1
    77    32    33    2
    78   114   111    1
    79   111   112    1
    80   111   110    1
    81   112   113    2
    82   188   189    1
    83   136   135    1
    84   136   139    1
    85    31    34    1
    86   201   203    1
    87   201   198    1
    88   191   190    2
    89    34    35    1
    90   190   189    1
    91   190   197   am
    92   141   139    1
    93   189   192    1
    94   139   140    1
    95   198   197    1
    96   198   199    1
    97    35    36    1
    98    36    37    1
    99   216   215    1
   100   192   193    1
   101   213   215   ar
   102   213   211   ar
   103   215   214   ar
   104    37    38    2
   105   107   106    2
   106   199   205   am
   107   199   200    2
   108   211   210   ar
   109   205   206    1
   110   101   100    2
   111   214   212   ar
   112   193   194    1
   113   106   105    1
   114   210   212   ar
   115   210   209    1
   116    38    39    1
   117    38    40    1
   118    98    99    1
   119   108   105    1
   120   108   109    1
   121   100    99    1
   122   100   104   am
   123   206   209    1
   124   206   207    1
   125   194   196   am
   126   194   195    2
   127   105   104    1
   128    99   102    1
   129    15    14    2
   130   217   207   am
   131   217   218    1
   132   102   103    1
   133   207   208    2
   134    14    13    1
   135   219   218    1
   136   219   220    2
   137    13    12    1
   138    13    16    1
   139    77    75   am
   140    18    20   ar
   141    18    17   ar
   142    76    75    2
   143    20    22   ar
   144    75    74    1
   145    16    17    1
   146    96    95   ar
   147    17    19   ar
   148    74    71    1
   149    97    95   ar
   150    95    94    1
   151    22    21   ar
   152    11     9    1
   153    94    91    1
   154    19    21   ar
   155   225   226    1
   156   225   222    1
   157    71    70    1
   158    71    72    1
   159   221   222    1
   160   222   223    1
   161     9     8    2
   162     9    10    1
   163     8     7    1
   164    73    72    2
   165    91    92    1
   166    91    90    1
   167    93    92    2
   168    72    78   am
   169   223   224    2
   170     6     7    1
   171     6     5    1
   172    61    60    1
   173    90    84   am
   174     5     2    1
   175    78    79    1
   176     1     2    1
   177    88    87   ar
   178    60    57    1
   179     2     3    1
   180    79    80    1
   181    87    89   ar
   182    87    86    1
   183    84    85    2
   184    84    83    1
   185     4     3    2
   186    82    80   am
   187    82    83    1
   188    80    81    2
   189    57    58    1
   190    57    56    1
   191    83    86    1
   192    58    59    2
   193    56    51   am
   194    55    53    1
   195    51    52    2
   196    51    50    1
   197    69    67   am
   198    53    50    1
   199    53    54    1
   200    66    67    1
   201    66    63    1
   202    50    49    1
   203    64    65    2
   204    64    63    1
   205    67    68    2
   206    48    46   ar
   207    47    46   ar
   208    63    62    1
   209    46    45    1
   210    41    42    1
   211    45    42    1
   212    42    43    1
   213    43    44    2
