@<TRIPOS>MOLECULE
tmp/4mibA00.pdb
 193 181 0 0 0
SMALL
GASTEIGER

@<TRIPOS>ATOM
      1  N         -0.1030    7.7900    3.6700 N.3   187  GLY187     -0.1210
      2  CA        -0.6380    8.0630    4.9990 C.3   187  GLY187      0.1956
      3  C         -1.3860    6.9600    5.7140 C.2   187  GLY187      0.2611
      4  O         -1.4350    6.9540    6.9390 O.2   187  GLY187     -0.2717
      5  N         -2.0060    6.0380    4.9810 N.am  188  PHE188     -0.1976
      6  CA        -2.8110    4.9890    5.6040 C.3   188  PHE188      0.1639
      7  C         -1.9730    3.8910    6.3200 C.2   188  PHE188      0.2290
      8  O         -2.5510    3.0640    7.0290 O.2   188  PHE188     -0.2864
      9  CB        -3.8030    4.3960    4.5830 C.3   188  PHE188      0.0560
     10  CG        -4.9430    5.3270    4.2150 C.ar  188  PHE188     -0.0200
     11  CD1       -5.6700    5.9950    5.2040 C.ar  188  PHE188     -0.0042
     12  CD2       -5.3350    5.4810    2.8890 C.ar  188  PHE188     -0.0042
     13  CE1       -6.7390    6.8330    4.8640 C.ar  188  PHE188     -0.0003
     14  CE2       -6.4210    6.2980    2.5520 C.ar  188  PHE188     -0.0003
     15  CZ        -7.1000    6.9840    3.5390 C.ar  188  PHE188     -0.0000
     16  N         -2.7920    6.9660   14.3520 N.3   192  PRO192     -0.2116
     17  CA        -2.7430    8.4150   14.6410 C.3   192  PRO192      0.1372
     18  C         -1.4190    8.8650   15.3050 C.2   192  PRO192      0.2244
     19  O         -0.9240    9.9340   14.9830 O.2   192  PRO192     -0.2868
     20  CB        -3.9490    8.6330   15.5570 C.3   192  PRO192      0.0268
     21  CG        -4.8570    7.4960   15.2790 C.3   192  PRO192      0.0207
     22  CD        -3.9630    6.3310   14.9960 C.3   192  PRO192      0.0892
     23  N          1.3380    8.9960   12.6790 N.3   195  ARG195     -0.1245
     24  CA         1.1030   10.1200   11.7630 C.3   195  ARG195      0.1563
     25  C          1.5940   11.4360   12.3970 C.2   195  ARG195      0.2260
     26  O          2.2220   12.2480   11.7020 O.2   195  ARG195     -0.2867
     27  CB        -0.3800   10.2300   11.3290 C.3   195  ARG195      0.0307
     28  CG        -0.6270   11.3610   10.3100 C.3   195  ARG195      0.0489
     29  CD        -2.0910   11.6490   10.0600 C.3   195  ARG195      0.2205
     30  NE        -2.3000   12.6120    8.9670 N.pl3 195  ARG195     -0.0865
     31  CZ        -2.4340   12.2790    7.6810 C.cat 195  ARG195      0.5346
     32  NH1       -2.3480   11.0110    7.3030 N.pl3 195  ARG195      0.1354
     33  NH2       -2.6370   13.2130    6.7640 N.pl3 195  ARG195      0.1354
     34  N        -13.4090   12.4480   -7.1730 N.3   220  ASP220     -0.1239
     35  CA       -13.9490   11.3170   -7.9470 C.3   220  ASP220      0.1674
     36  C        -14.3510   11.7330   -9.3560 C.2   220  ASP220      0.2266
     37  O        -13.9850   11.0670  -10.3250 O.2   220  ASP220     -0.2867
     38  CB       -15.1690   10.6890   -7.2290 C.3   220  ASP220      0.1410
     39  CG       -14.8710    9.8100   -6.0210 C.2   220  ASP220      0.3668
     40  OD1      -13.6690    9.6910   -5.6400 O.co2 220  ASP220     -0.2456
     41  OD2      -15.8370    9.2570   -5.4380 O.co2 220  ASP220     -0.2456
     42  N        -17.3700    5.5960   -6.4420 N.3   277  SER277     -0.1217
     43  CA       -17.0300    5.7290   -5.0340 C.3   277  SER277      0.1889
     44  C        -17.1820    4.4320   -4.2520 C.2   277  SER277      0.2288
     45  O        -16.7090    4.3650   -3.1170 O.2   277  SER277     -0.2866
     46  CB       -17.8760    6.8270   -4.4040 C.3   277  SER277      0.2089
     47  OG       -19.2450    6.5900   -4.6860 O.3   277  SER277     -0.2183
     48  N        -11.2790    2.3600   -5.0580 N.3   282  THR282     -0.1203
     49  CA       -11.5300    3.8110   -4.8650 C.3   282  THR282      0.1994
     50  C        -10.3830    4.5070   -4.1010 C.2   282  THR282      0.2618
     51  O         -9.8010    5.4720   -4.6020 O.2   282  THR282     -0.2717
     52  CB       -12.9060    4.0930   -4.2070 C.3   282  THR282      0.1784
     53  OG1      -13.9160    3.5580   -5.0460 O.3   282  THR282     -0.2211
     54  CG2      -13.1820    5.5950   -4.0170 C.3   282  THR282      0.0376
     55  N        -10.0810    4.0010   -2.8980 N.am  283  SER283     -0.1951
     56  CA        -9.0430    4.5330   -2.0260 C.3   283  SER283      0.1924
     57  C         -7.6490    4.4730   -2.6630 C.2   283  SER283      0.2314
     58  O         -6.9920    5.4960   -2.7590 O.2   283  SER283     -0.2863
     59  CB        -9.0860    3.8370   -0.6650 C.3   283  SER283      0.2116
     60  OG        -8.0330    4.3020    0.1650 O.3   283  SER283     -0.2180
     61  N         -7.4700    6.6450   -6.0330 N.3   286  ASN286     -0.1240
     62  CA        -7.4170    8.0480   -5.6530 C.3   286  ASN286      0.1653
     63  C         -6.0710    8.4370   -5.0780 C.2   286  ASN286      0.2266
     64  O         -5.5280    9.4380   -5.5190 O.2   286  ASN286     -0.2867
     65  CB        -8.5820    8.4490   -4.7160 C.3   286  ASN286      0.1155
     66  CG        -9.8890    8.6460   -5.4450 C.2   286  ASN286      0.2627
     67  OD1       -9.9480    8.6360   -6.6740 O.2   286  ASN286     -0.2716
     68  ND2      -10.9720    8.8490   -4.7120 N.am  286  ASN286     -0.0877
     69  N         -3.3410   10.2990    1.2860 N.3   311  ASN311     -0.1225
     70  CA        -4.2180    9.2120    1.6890 C.3   311  ASN311      0.1785
     71  C         -5.5740    9.4730    1.0640 C.2   311  ASN311      0.2598
     72  O         -6.2260   10.4520    1.4080 O.2   311  ASN311     -0.2718
     73  CB        -4.2700    9.0270    3.2230 C.3   311  ASN311      0.1169
     74  CG        -4.1230   10.2770    4.0210 C.2   311  ASN311      0.2627
     75  OD1       -3.1300   10.4650    4.7110 O.2   311  ASN311     -0.2716
     76  ND2       -5.0750   11.1740    3.9050 N.am  311  ASN311     -0.0877
     77  N         -5.9310    8.6520    0.0760 N.am  312  GLY312     -0.1942
     78  CA        -7.1500    8.7990   -0.7260 C.3   312  GLY312      0.2014
     79  C         -7.0620   10.0740   -1.5380 C.2   312  GLY312      0.2639
     80  O         -6.0350   10.3410   -2.1700 O.2   312  GLY312     -0.2714
     81  N         -8.0650   10.9250   -1.4280 N.am  313  ASP313     -0.1957
     82  CA        -8.0830   12.2240   -2.1130 C.3   313  ASP313      0.1840
     83  C         -7.5060   13.3730   -1.2410 C.2   313  ASP313      0.2622
     84  O         -7.5430   14.5230   -1.6670 O.2   313  ASP313     -0.2715
     85  CB        -9.5190   12.5480   -2.5640 C.3   313  ASP313      0.1450
     86  CG       -10.5950   12.5850   -1.4830 C.2   313  ASP313      0.3671
     87  OD1      -10.2740   12.3180   -0.2970 O.co2 313  ASP313     -0.2456
     88  OD2      -11.7630   12.8680   -1.8220 O.co2 313  ASP313     -0.2456
     89  N         -7.0140   13.0620   -0.0160 N.am  314  ASP314     -0.1971
     90  CA        -6.4930   14.0420    0.9270 C.3   314  ASP314      0.1709
     91  C         -4.9800   14.1730    0.8130 C.2   314  ASP314      0.2293
     92  O         -4.2610   13.1720    0.8330 O.2   314  ASP314     -0.2864
     93  CB        -6.9190   13.7110    2.3660 C.3   314  ASP314      0.1436
     94  CG        -6.6500   14.8610    3.3180 C.2   314  ASP314      0.3671
     95  OD1       -5.4920   14.9820    3.7940 O.co2 314  ASP314     -0.2456
     96  OD2       -7.5610   15.7020    3.5060 O.co2 314  ASP314     -0.2456
     97  N         -7.5470   15.8040    6.3090 N.3   361  CYS361     -0.1235
     98  CA        -8.3490   14.6920    6.8510 C.3   361  CYS361      0.1677
     99  C         -9.2570   15.3030    7.9460 C.2   361  CYS361      0.2270
    100  O         -9.5160   14.6590    8.9760 O.2   361  CYS361     -0.2867
    101  CB        -7.4680   13.5680    7.4090 C.3   361  CYS361      0.0956
    102  SG        -6.1960   12.9540    6.2680 S.3   361  CYS361     -0.0801
    103  N         -8.4880   17.2140   10.1130 N.3   363  SER363     -0.1217
    104  CA        -7.6420   17.1780   11.2970 C.3   363  SER363      0.1889
    105  C         -6.4850   18.1490   11.2940 C.2   363  SER363      0.2288
    106  O         -6.0150   18.5750   10.2410 O.2   363  SER363     -0.2866
    107  CB        -7.0680   15.7780   11.4820 C.3   363  SER363      0.2089
    108  OG        -8.0900   14.8910   11.8900 O.3   363  SER363     -0.2183
    109  N         -3.3300   14.4790   17.2850 N.3   379  LEU379     -0.1245
    110  CA        -4.2370   14.9030   16.2110 C.3   379  LEU379      0.1561
    111  C         -5.6190   15.1710   16.7630 C.2   379  LEU379      0.2260
    112  O         -6.1790   14.3540   17.4980 O.2   379  LEU379     -0.2867
    113  CB        -4.3150   13.8710   15.0470 C.3   379  LEU379      0.0270
    114  CG        -3.0480   13.7300   14.2050 C.3   379  LEU379      0.0019
    115  CD1       -2.9810   12.3980   13.5330 C.3   379  LEU379      0.0001
    116  CD2       -2.8960   14.8620   13.2090 C.3   379  LEU379      0.0001
    117  N        -19.9980    5.7790   14.6560 N.3   402  SER402     -0.1217
    118  CA       -19.0120    6.8350   14.5060 C.3   402  SER402      0.1889
    119  C        -18.4040    7.2510   15.8440 C.2   402  SER402      0.2288
    120  O        -17.2040    7.5150   15.8870 O.2   402  SER402     -0.2866
    121  CB       -19.5770    8.0150   13.7290 C.3   402  SER402      0.2089
    122  OG       -20.3290    8.8520   14.5840 O.3   402  SER402     -0.2183
    123  N        -15.4100    4.8560   16.5390 N.3   405  GLY405     -0.1210
    124  CA       -14.2610    5.1820   15.7090 C.3   405  GLY405      0.1956
    125  C        -13.6170    6.4790   16.1590 C.2   405  GLY405      0.2611
    126  O        -12.3940    6.5690   16.1840 O.2   405  GLY405     -0.2717
    127  N        -14.4390    7.4630   16.5920 N.am  406  ASN406     -0.1974
    128  CA       -13.9540    8.7630   17.0690 C.3   406  ASN406      0.1688
    129  C        -13.2180    8.6840   18.3890 C.2   406  ASN406      0.2292
    130  O        -12.2250    9.4010   18.5470 O.2   406  ASN406     -0.2864
    131  CB       -15.0570    9.8040   17.1210 C.3   406  ASN406      0.1181
    132  CG       -15.4080   10.3680   15.7740 C.2   406  ASN406      0.2629
    133  OD1      -14.5500   10.5810   14.9220 O.2   406  ASN406     -0.2716
    134  ND2      -16.6830   10.5940   15.5460 N.am  406  ASN406     -0.0877
    135  N         -9.7810    6.8420   17.3080 N.3   409  MET409     -0.1230
    136  CA        -8.8800    7.6840   16.5270 C.3   409  MET409      0.1702
    137  C         -8.5450    9.0120   17.1640 C.2   409  MET409      0.2592
    138  O         -7.4580    9.5340   16.9070 O.2   409  MET409     -0.2718
    139  CB        -9.4300    7.8630   15.1000 C.3   409  MET409      0.0401
    140  CG        -9.5930    6.5340   14.3600 C.3   409  MET409      0.0596
    141  SD        -8.0520    5.5960   14.2000 S.3   409  MET409     -0.1393
    142  CE        -7.4210    6.2560   12.6850 C.3   409  MET409      0.0692
    143  N         -9.4270    9.5400   18.0350 N.am  410  TYR410     -0.1976
    144  CA        -9.1820   10.8200   18.6960 C.3   410  TYR410      0.1639
    145  C         -9.1670   10.7030   20.1960 C.2   410  TYR410      0.2290
    146  O         -9.4770   11.6830   20.8910 O.2   410  TYR410     -0.2864
    147  CB       -10.1840   11.8860   18.2420 C.3   410  TYR410      0.0560
    148  CG       -10.1060   12.2120   16.7690 C.ar  410  TYR410     -0.0198
    149  CD1       -9.1360   13.0820   16.2790 C.ar  410  TYR410     -0.0009
    150  CD2      -11.0270   11.6800   15.8670 C.ar  410  TYR410     -0.0009
    151  CE1       -9.0660   13.3980   14.9230 C.ar  410  TYR410      0.0417
    152  CE2      -10.9800   12.0040   14.5100 C.ar  410  TYR410      0.0417
    153  CZ        -9.9930   12.8630   14.0420 C.ar  410  TYR410      0.1957
    154  OH        -9.9170   13.1930   12.7110 O.3   410  TYR410     -0.2866
    155  N        -15.5150    2.0190   11.7970 N.3   441  GLN441     -0.1231
    156  CA       -14.6100    2.0040   10.6470 C.3   441  GLN441      0.1698
    157  C        -13.2900    2.7040   10.9330 C.2   441  GLN441      0.2592
    158  O        -13.2580    3.7250   11.6250 O.2   441  GLN441     -0.2718
    159  CB       -15.2800    2.5140    9.3440 C.3   441  GLN441      0.0381
    160  CG       -15.7320    3.9720    9.3430 C.3   441  GLN441      0.0905
    161  CD       -14.6400    4.9890    9.0720 C.2   441  GLN441      0.2608
    162  OE1      -13.6390    4.7240    8.3850 O.2   441  GLN441     -0.2717
    163  NE2      -14.8240    6.2020    9.5980 N.am  441  GLN441     -0.0878
    164  N        -12.2000    2.1350   10.4160 N.am  442  ILE442     -0.1966
    165  CA       -10.8570    2.7130   10.5310 C.3   442  ILE442      0.1727
    166  C        -10.2880    2.7200    9.1110 C.2   442  ILE442      0.2616
    167  O        -10.0890    1.6510    8.5250 O.2   442  ILE442     -0.2715
    168  CB        -9.9580    2.0060   11.5960 C.3   442  ILE442      0.0290
    169  CG1      -10.5680    2.1480   13.0250 C.3   442  ILE442      0.0022
    170  CG2       -8.5240    2.5760   11.5900 C.3   442  ILE442      0.0023
    171  CD1      -10.6700    0.8990   13.7190 C.3   442  ILE442      0.0001
    172  N        -10.1220    3.9300    8.5240 N.am  443  TYR443     -0.1960
    173  CA        -9.6180    4.1500    7.1560 C.3   443  TYR443      0.1771
    174  C        -10.4810    3.4290    6.1070 C.2   443  TYR443      0.2620
    175  O         -9.9460    2.8200    5.1690 O.2   443  TYR443     -0.2715
    176  CB        -8.1310    3.7600    7.0160 C.3   443  TYR443      0.0574
    177  CG        -7.1580    4.4880    7.9270 C.ar  443  TYR443     -0.0198
    178  CD1       -7.4690    5.7330    8.4610 C.ar  443  TYR443     -0.0009
    179  CD2       -5.8710    3.9910    8.1460 C.ar  443  TYR443     -0.0009
    180  CE1       -6.5560    6.4300    9.2520 C.ar  443  TYR443      0.0417
    181  CE2       -4.9300    4.7150    8.8780 C.ar  443  TYR443      0.0417
    182  CZ        -5.2850    5.9250    9.4450 C.ar  443  TYR443      0.1957
    183  OH        -4.3940    6.6260   10.2170 O.3   443  TYR443     -0.2866
    184  N        -11.8010    3.4720    6.3000 N.am  444  GLY444     -0.1954
    185  CA       -12.7740    2.8410    5.4090 C.3   444  GLY444      0.1869
    186  C        -13.0840    1.3820    5.7000 C.2   444  GLY444      0.2309
    187  O        -14.1240    0.8880    5.2650 O.2   444  GLY444     -0.2863
    188  N        -11.9200    2.9460    1.9620 N.3   551  SER551     -0.1217
    189  CA       -13.1290    3.7840    1.8670 C.3   551  SER551      0.1889
    190  C        -13.9330    3.4280    0.6360 C.2   551  SER551      0.2288
    191  O        -13.3920    3.4500   -0.4660 O.2   551  SER551     -0.2866
    192  CB       -12.7550    5.2660    1.8190 C.3   551  SER551      0.2089
    193  OG       -12.0300    5.6690    2.9720 O.3   551  SER551     -0.2183
@<TRIPOS>BOND
     1    37    36    2
     2    36    35    1
     3    35    38    1
     4    35    34    1
     5    38    39    1
     6    67    66    2
     7    42    43    1
     8    61    62    1
     9    39    40   ar
    10    39    41   ar
    11    62    63    1
    12    62    65    1
    13    64    63    2
    14    66    65    1
    15    66    68   am
    16    48    49    1
    17    53    52    1
    18    43    46    1
    19    43    44    1
    20    49    52    1
    21    49    50    1
    22    47    46    1
    23    51    50    2
    24    44    45    2
    25    52    54    1
    26    50    55   am
    27    55    56    1
    28    58    57    2
    29    57    56    1
    30    85    82    1
    31    85    86    1
    32    80    79    2
    33    82    81    1
    34    82    83    1
    35    56    59    1
    36    88    86   ar
    37    84    83    2
    38    79    81   am
    39    79    78    1
    40    86    87   ar
    41    83    89   am
    42    78    77    1
    43    59    60    1
    44   191   190    2
    45    89    90    1
    46    77    71   am
    47   190   189    1
    48    91    92    2
    49    91    90    1
    50    90    93    1
    51    71    72    2
    52    71    70    1
    53    69    70    1
    54    70    73    1
    55   192   189    1
    56   192   193    1
    57   189   188    1
    58    93    94    1
    59    14    12   ar
    60    14    15   ar
    61    12    10   ar
    62    73    74    1
    63    94    96   ar
    64    94    95   ar
    65    15    13   ar
    66     1     2    1
    67    76    74   am
    68    74    75    2
    69    10     9    1
    70    10    11   ar
    71     9     6    1
    72    13    11   ar
    73     5     6    1
    74     5     3   am
    75     2     3    1
    76   175   174    2
    77   187   186    2
    78   185   186    1
    79   185   184    1
    80     6     7    1
    81     3     4    2
    82   174   184   am
    83   174   173    1
    84   102   101    1
    85    97    98    1
    86     7     8    2
    87    33    31    1
    88    98   101    1
    89    98    99    1
    90   176   173    1
    91   176   177    1
    92   173   172    1
    93    32    31    1
    94    31    30    2
    95   177   179   ar
    96   177   178   ar
    97    99   100    2
    98   179   181   ar
    99   162   161    2
   100   178   180   ar
   101   172   166   am
   102   167   166    2
   103   181   182   ar
   104    30    29    1
   105   161   160    1
   106   161   163   am
   107   166   165    1
   108   180   182   ar
   109   160   159    1
   110   159   156    1
   111   182   183    1
   112    29    28    1
   113   103   104    1
   114   106   105    2
   115    28    27    1
   116   164   165    1
   117   164   157   am
   118   165   168    1
   119   156   157    1
   120   156   155    1
   121   157   158    2
   122   105   104    1
   123   104   107    1
   124    27    24    1
   125   107   108    1
   126   170   168    1
   127   168   169    1
   128    26    25    2
   129    24    25    1
   130    24    23    1
   131   142   141    1
   132   154   153    1
   133   169   171    1
   134   116   114    1
   135   115   114    1
   136   121   118    1
   137   121   122    1
   138   153   152   ar
   139   153   151   ar
   140   141   140    1
   141   114   113    1
   142    16    17    1
   143    16    22    1
   144   140   139    1
   145   118   117    1
   146   118   119    1
   147   152   150   ar
   148    17    18    1
   149    17    20    1
   150   133   132    2
   151   151   149   ar
   152    19    18    2
   153    22    21    1
   154   113   110    1
   155   139   136    1
   156    21    20    1
   157   134   132   am
   158   124   125    1
   159   124   123    1
   160   132   131    1
   161   119   120    2
   162   150   148   ar
   163   125   126    2
   164   125   127   am
   165   110   111    1
   166   110   109    1
   167   149   148   ar
   168   136   137    1
   169   136   135    1
   170   127   128    1
   171   111   112    2
   172   148   147    1
   173   138   137    2
   174   128   131    1
   175   128   129    1
   176   137   143   am
   177   143   144    1
   178   147   144    1
   179   129   130    2
   180   144   145    1
   181   145   146    2
