@<TRIPOS>MOLECULE
tmp/4micA00.pdb
 215 205 0 0 0
SMALL
GASTEIGER

@<TRIPOS>ATOM
      1  N         33.1790   20.3370   39.3670 N.3    77  GLU77      -0.1245
      2  CA        31.8520   20.8120   38.9730 C.3    77  GLU77       0.1567
      3  C         30.8660   19.6760   38.6760 C.2    77  GLU77       0.2260
      4  O         31.1550   18.7650   37.8800 O.2    77  GLU77      -0.2867
      5  CB        31.9570   21.7440   37.7580 C.3    77  GLU77       0.0388
      6  CG        32.9060   22.9080   37.9780 C.3    77  GLU77       0.1160
      7  CD        32.8490   23.9550   36.8880 C.2    77  GLU77       0.3649
      8  OE1       33.8030   24.7630   36.8090 O.co2  77  GLU77      -0.2457
      9  OE2       31.8590   23.9850   36.1210 O.co2  77  GLU77      -0.2457
     10  N         29.5450   25.5850   36.0360 N.3   122  ASN122     -0.1225
     11  CA        29.5020   26.8040   35.2110 C.3   122  ASN122      0.1785
     12  C         28.7930   26.6130   33.8790 C.2   122  ASN122      0.2598
     13  O         28.1710   27.5420   33.3660 O.2   122  ASN122     -0.2718
     14  CB        30.9180   27.2970   34.9210 C.3   122  ASN122      0.1169
     15  CG        31.5290   28.0280   36.0870 C.2   122  ASN122      0.2627
     16  OD1       31.0430   29.0780   36.4950 O.2   122  ASN122     -0.2716
     17  ND2       32.6010   27.4840   36.6280 N.am  122  ASN122     -0.0877
     18  N         28.9220   25.4250   33.3040 N.am  123  GLY123     -0.1942
     19  CA        28.3520   25.1500   31.9930 C.3   123  GLY123      0.2014
     20  C         28.6890   23.7650   31.4890 C.2   123  GLY123      0.2639
     21  O         28.4340   22.7750   32.1710 O.2   123  GLY123     -0.2714
     22  N         29.2850   23.7060   30.3010 N.am  124  GLY124     -0.1939
     23  CA        29.4990   22.4590   29.5740 C.3   124  GLY124      0.2014
     24  C         30.1690   21.3410   30.3460 C.2   124  GLY124      0.2638
     25  O         29.6810   20.2130   30.3630 O.2   124  GLY124     -0.2714
     26  N         31.2940   21.6530   30.9770 N.am  125  LEU125     -0.1977
     27  CA        32.0630   20.6720   31.7500 C.3   125  LEU125      0.1596
     28  C         31.2830   20.1270   32.9610 C.2   125  LEU125      0.2287
     29  O         31.2810   18.9190   33.2230 O.2   125  LEU125     -0.2864
     30  CB        33.3890   21.3070   32.1960 C.3   125  LEU125      0.0297
     31  CG        34.3080   20.5700   33.1790 C.3   125  LEU125      0.0022
     32  CD1       35.7760   20.8800   32.8870 C.3   125  LEU125      0.0001
     33  CD2       33.9710   20.9290   34.6180 C.3   125  LEU125      0.0001
     34  N         28.2250   18.0230   31.7370 N.3   128  LEU128     -0.1245
     35  CA        28.6900   16.7320   31.2310 C.3   128  LEU128      0.1561
     36  C         28.8680   15.7450   32.3700 C.2   128  LEU128      0.2260
     37  O         28.5640   14.5720   32.2270 O.2   128  LEU128     -0.2867
     38  CB        30.0090   16.8730   30.4660 C.3   128  LEU128      0.0270
     39  CG        30.4770   15.6160   29.7200 C.3   128  LEU128      0.0019
     40  CD1       29.6710   15.4080   28.4460 C.3   128  LEU128      0.0001
     41  CD2       31.9540   15.7060   29.3870 C.3   128  LEU128      0.0001
     42  N         34.5850   31.5110   37.1180 N.3   262  ASN262     -0.1225
     43  CA        35.4560   31.8960   36.0210 C.3   262  ASN262      0.1785
     44  C         35.8210   30.6790   35.1640 C.2   262  ASN262      0.2597
     45  O         36.6070   29.8390   35.5910 O.2   262  ASN262     -0.2718
     46  CB        36.7200   32.5170   36.6160 C.3   262  ASN262      0.1169
     47  CG        37.4950   33.3480   35.6200 C.2   262  ASN262      0.2627
     48  OD1       36.9270   33.9200   34.6910 O.2   262  ASN262     -0.2716
     49  ND2       38.8030   33.4470   35.8300 N.am  262  ASN262     -0.0877
     50  N         35.2530   30.5850   33.9630 N.am  263  ASP263     -0.1974
     51  CA        35.4770   29.4230   33.0840 C.3   263  ASP263      0.1709
     52  C         36.2370   29.7600   31.7880 C.2   263  ASP263      0.2293
     53  O         36.3060   28.9400   30.8690 O.2   263  ASP263     -0.2864
     54  CB        34.1410   28.7510   32.7510 C.3   263  ASP263      0.1436
     55  CG        33.2070   29.6530   31.9590 C.2   263  ASP263      0.3671
     56  OD1       33.3480   30.8960   32.0070 O.co2 263  ASP263     -0.2456
     57  OD2       32.3110   29.1120   31.2970 O.co2 263  ASP263     -0.2456
     58  N         39.3490   32.1760   31.9940 N.3   265  PHE265     -0.1227
     59  CA        40.6640   32.7300   32.2830 C.3   265  PHE265      0.1736
     60  C         41.1860   32.1420   33.5850 C.2   265  PHE265      0.2595
     61  O         40.5070   32.1940   34.6030 O.2   265  PHE265     -0.2718
     62  CB        40.5370   34.2510   32.4000 C.3   265  PHE265      0.0547
     63  CG        41.8460   34.9820   32.3710 C.ar  265  PHE265     -0.0202
     64  CD1       42.5420   35.1360   31.1770 C.ar  265  PHE265     -0.0042
     65  CD2       42.3730   35.5440   33.5310 C.ar  265  PHE265     -0.0042
     66  CE1       43.7480   35.8200   31.1420 C.ar  265  PHE265     -0.0003
     67  CE2       43.5770   36.2280   33.5000 C.ar  265  PHE265     -0.0003
     68  CZ        44.2660   36.3650   32.3050 C.ar  265  PHE265     -0.0000
     69  N         42.3860   31.5750   33.5560 N.am  266  PHE266     -0.1962
     70  CA        42.9750   31.0130   34.7660 C.3   266  PHE266      0.1771
     71  C         43.5330   32.1140   35.6690 C.2   266  PHE266      0.2619
     72  O         44.1810   33.0510   35.2000 O.2   266  PHE266     -0.2715
     73  CB        44.0660   29.9930   34.4180 C.3   266  PHE266      0.0574
     74  CG        44.8190   29.4790   35.6160 C.ar  266  PHE266     -0.0200
     75  CD1       44.2160   28.6070   36.5070 C.ar  266  PHE266     -0.0042
     76  CD2       46.1290   29.8760   35.8540 C.ar  266  PHE266     -0.0042
     77  CE1       44.9030   28.1340   37.6120 C.ar  266  PHE266     -0.0003
     78  CE2       46.8220   29.4060   36.9550 C.ar  266  PHE266     -0.0003
     79  CZ        46.2080   28.5330   37.8360 C.ar  266  PHE266     -0.0000
     80  N         43.2640   31.9870   36.9650 N.am  267  GLU267     -0.1977
     81  CA        43.8030   32.8870   37.9800 C.3   267  GLU267      0.1602
     82  C         44.3780   32.0610   39.1260 C.2   267  GLU267      0.2287
     83  O         43.6750   31.2420   39.7160 O.2   267  GLU267     -0.2864
     84  CB        42.7060   33.8120   38.5040 C.3   267  GLU267      0.0415
     85  CG        42.1470   34.7470   37.4440 C.3   267  GLU267      0.1163
     86  CD        41.0150   35.6110   37.9620 C.2   267  GLU267      0.3649
     87  OE1       41.2160   36.8410   38.0890 O.co2 267  GLU267     -0.2457
     88  OE2       39.9290   35.0570   38.2470 O.co2 267  GLU267     -0.2457
     89  N         41.3930   28.7050   45.5260 N.3   272  ARG272     -0.1245
     90  CA        41.0480   27.7510   44.4630 C.3   272  ARG272      0.1563
     91  C         41.9340   26.5070   44.5120 C.2   272  ARG272      0.2260
     92  O         41.4540   25.3990   44.3070 O.2   272  ARG272     -0.2867
     93  CB        41.1340   28.4210   43.0880 C.3   272  ARG272      0.0307
     94  CG        41.0230   27.4870   41.8970 C.3   272  ARG272      0.0489
     95  CD        39.6850   26.7650   41.8320 C.3   272  ARG272      0.2205
     96  NE        39.5900   25.9810   40.5950 N.pl3 272  ARG272     -0.0865
     97  CZ        38.4600   25.5450   40.0390 C.cat 272  ARG272      0.5346
     98  NH1       37.2800   25.7860   40.5960 N.pl3 272  ARG272      0.1354
     99  NH2       38.5160   24.8560   38.9040 N.pl3 272  ARG272      0.1354
    100  N         39.1520   17.3150   33.3070 N.3   310  ASP310     -0.1239
    101  CA        40.1350   18.3860   33.0790 C.3   310  ASP310      0.1674
    102  C         41.2310   18.3160   34.1440 C.2   310  ASP310      0.2266
    103  O         41.3350   17.3120   34.8500 O.2   310  ASP310     -0.2867
    104  CB        39.4830   19.7790   33.0030 C.3   310  ASP310      0.1410
    105  CG        40.1810   20.6950   32.0100 C.2   310  ASP310      0.3668
    106  OD1       39.4930   21.3780   31.2200 O.co2 310  ASP310     -0.2456
    107  OD2       41.4300   20.7170   32.0180 O.co2 310  ASP310     -0.2456
    108  N         41.6100   20.0800   36.8310 N.3   312  HIS312     -0.1241
    109  CA        41.2250   20.6830   38.1080 C.3   312  HIS312      0.1621
    110  C         41.5470   19.7840   39.3170 C.2   312  HIS312      0.2264
    111  O         41.9150   20.2930   40.3730 O.2   312  HIS312     -0.2867
    112  CB        39.7550   21.1220   38.0870 C.3   312  HIS312      0.0745
    113  CG        39.4000   21.9720   36.9030 C.ar  312  HIS312      0.0817
    114  ND1       38.1400   21.9840   36.3410 N.ar  312  HIS312     -0.2268
    115  CD2       40.1510   22.8160   36.1540 C.ar  312  HIS312      0.1154
    116  CE1       38.1260   22.8160   35.3140 C.ar  312  HIS312      0.1986
    117  NE2       39.3350   23.3300   35.1770 N.ar  312  HIS312     -0.2212
    118  N         39.1510   19.5070   28.1470 N.3   348  HIS348     -0.1226
    119  CA        37.9830   20.2600   27.6840 C.3   348  HIS348      0.1752
    120  C         38.3590   21.6440   27.1630 C.2   348  HIS348      0.2596
    121  O         37.4790   22.4520   26.8480 O.2   348  HIS348     -0.2718
    122  CB        36.9900   20.4380   28.8300 C.3   348  HIS348      0.0759
    123  CG        36.5910   19.1590   29.4940 C.ar  348  HIS348      0.0818
    124  ND1       35.4250   18.4920   29.1840 N.ar  348  HIS348     -0.2268
    125  CD2       37.1910   18.4350   30.4680 C.ar  348  HIS348      0.1154
    126  CE1       35.3290   17.4080   29.9330 C.ar  348  HIS348      0.1986
    127  NE2       36.3890   17.3490   30.7190 N.ar  348  HIS348     -0.2212
    128  N         39.6580   21.9100   27.0580 N.am  349  THR349     -0.1953
    129  CA        40.1600   23.2770   26.9740 C.3   349  THR349      0.1897
    130  C         41.1130   23.4510   25.8000 C.2   349  THR349      0.2313
    131  O         42.1180   22.7480   25.6950 O.2   349  THR349     -0.2863
    132  CB        40.8890   23.6660   28.2790 C.3   349  THR349      0.1794
    133  OG1       40.1420   23.2070   29.4190 O.3   349  THR349     -0.2208
    134  CG2       41.0620   25.1750   28.3700 C.3   349  THR349      0.0378
    135  N         43.0490   29.5290   29.4450 N.3   354  ALA354     -0.1245
    136  CA        42.2000   28.7090   30.3080 C.3   354  ALA354      0.1562
    137  C         42.9650   27.5530   30.9670 C.2   354  ALA354      0.2260
    138  O         42.4480   26.9310   31.8940 O.2   354  ALA354     -0.2867
    139  CB        41.0070   28.1770   29.5200 C.3   354  ALA354      0.0290
    140  N         45.5800   25.5550   33.3210 N.3   356  GLU356     -0.1245
    141  CA        46.0970   25.7430   34.6710 C.3   356  GLU356      0.1567
    142  C         47.6170   25.7050   34.6780 C.2   356  GLU356      0.2260
    143  O         48.2180   24.6960   34.3110 O.2   356  GLU356     -0.2867
    144  CB        45.5360   24.6760   35.6130 C.3   356  GLU356      0.0388
    145  CG        44.0540   24.8530   35.8760 C.3   356  GLU356      0.1160
    146  CD        43.5490   23.9770   36.9960 C.2   356  GLU356      0.3649
    147  OE1       43.6080   22.7390   36.8600 O.co2 356  GLU356     -0.2457
    148  OE2       43.0740   24.5270   38.0080 O.co2 356  GLU356     -0.2457
    149  N         37.0560   15.4840   23.4640 N.3   426  VAL426     -0.1245
    150  CA        35.6270   15.3390   23.6440 C.3   426  VAL426      0.1561
    151  C         34.8410   15.4610   22.3330 C.2   426  VAL426      0.2260
    152  O         33.6070   15.4600   22.3400 O.2   426  VAL426     -0.2867
    153  CB        35.1340   16.3520   24.6970 C.3   426  VAL426      0.0252
    154  CG1       35.7050   15.9880   26.0610 C.3   426  VAL426      0.0019
    155  CG2       35.5100   17.7810   24.3260 C.3   426  VAL426      0.0019
    156  N         31.4810   13.6520   23.1080 N.3   455  ASN455     -0.1240
    157  CA        30.5180   13.8920   24.1730 C.3   455  ASN455      0.1653
    158  C         29.1140   13.4240   23.8160 C.2   455  ASN455      0.2266
    159  O         28.8420   13.0290   22.6790 O.2   455  ASN455     -0.2867
    160  CB        30.4850   15.3880   24.5400 C.3   455  ASN455      0.1155
    161  CG        31.6370   15.8050   25.4410 C.2   455  ASN455      0.2627
    162  OD1       31.9460   16.9930   25.5570 O.2   455  ASN455     -0.2716
    163  ND2       32.2670   14.8370   26.0940 N.am  455  ASN455     -0.0877
    164  N         34.6840   33.7620   21.9520 N.3   544  TYR544     -0.1227
    165  CA        34.8640   32.6510   21.0080 C.3   544  TYR544      0.1736
    166  C         33.5430   32.0320   20.5530 C.2   544  TYR544      0.2595
    167  O         33.4660   31.4920   19.4520 O.2   544  TYR544     -0.2718
    168  CB        35.8390   31.5830   21.5590 C.3   544  TYR544      0.0548
    169  CG        35.2600   30.4570   22.4090 C.ar  544  TYR544     -0.0200
    170  CD1       34.6440   29.3600   21.8180 C.ar  544  TYR544     -0.0009
    171  CD2       35.4020   30.4520   23.7990 C.ar  544  TYR544     -0.0009
    172  CE1       34.1420   28.3180   22.5800 C.ar  544  TYR544      0.0417
    173  CE2       34.9020   29.4110   24.5710 C.ar  544  TYR544      0.0417
    174  CZ        34.2700   28.3460   23.9530 C.ar  544  TYR544      0.1957
    175  OH        33.7620   27.3020   24.6990 O.3   544  TYR544     -0.2866
    176  N         32.5150   32.1100   21.3910 N.am  545  LYS545     -0.1980
    177  CA        31.1800   31.6150   21.0350 C.3   545  LYS545      0.1596
    178  C         30.4480   32.5930   20.0960 C.2   545  LYS545      0.2287
    179  O         29.4400   32.2350   19.4810 O.2   545  LYS545     -0.2864
    180  CB        30.3560   31.3510   22.3000 C.3   545  LYS545      0.0298
    181  CG        30.8650   30.1820   23.1360 C.3   545  LYS545      0.0038
    182  CD        30.3850   30.2850   24.5760 C.3   545  LYS545      0.0206
    183  CE        30.9450   29.1950   25.4830 C.3   545  LYS545      0.1093
    184  NZ        30.3880   27.8470   25.1700 N.3   545  LYS545     -0.1314
    185  N         35.5580   25.6740   19.9810 N.3   643  GLU643     -0.1231
    186  CA        34.6140   24.9460   20.8460 C.3   643  GLU643      0.1699
    187  C         34.9560   23.4560   20.8290 C.2   643  GLU643      0.2592
    188  O         34.6790   22.7660   19.8540 O.2   643  GLU643     -0.2718
    189  CB        33.1640   25.1710   20.3850 C.3   643  GLU643      0.0402
    190  CG        32.0940   24.6330   21.3350 C.3   643  GLU643      0.1161
    191  CD        31.9670   25.4500   22.6100 C.2   643  GLU643      0.3649
    192  OE1       32.6720   25.1420   23.5920 O.co2 643  GLU643     -0.2457
    193  OE2       31.1810   26.4180   22.6300 O.co2 643  GLU643     -0.2457
    194  N         35.5550   22.9610   21.9080 N.am  644  ALA644     -0.1966
    195  CA        36.0760   21.5890   21.9350 C.3   644  ALA644      0.1728
    196  C         35.0400   20.5920   21.4230 C.2   644  ALA644      0.2617
    197  O         35.3310   19.7620   20.5580 O.2   644  ALA644     -0.2715
    198  CB        36.5280   21.2110   23.3360 C.3   644  ALA644      0.0334
    199  N         33.8290   20.6860   21.9600 N.am  645  SER645     -0.1936
    200  CA        32.7320   19.8550   21.4950 C.3   645  SER645      0.2055
    201  C         31.4250   20.6210   21.4150 C.2   645  SER645      0.2644
    202  O         30.7990   20.6940   20.3540 O.2   645  SER645     -0.2714
    203  CB        32.5510   18.6470   22.4090 C.3   645  SER645      0.2130
    204  OG        31.3500   17.9700   22.0890 O.3   645  SER645     -0.2179
    205  N         31.0180   21.1790   22.5480 N.am  646  GLY646     -0.1939
    206  CA        29.6600   21.6730   22.7200 C.3   646  GLY646      0.2014
    207  C         28.7770   20.5160   23.1360 C.2   646  GLY646      0.2639
    208  O         29.0580   19.3600   22.8050 O.2   646  GLY646     -0.2714
    209  N         27.7240   20.8200   23.8880 N.am  647  THR647     -0.1950
    210  CA        26.7210   19.8170   24.2650 C.3   647  THR647      0.1897
    211  C         25.3020   20.3360   24.1240 C.2   647  THR647      0.2313
    212  O         24.3770   19.5620   23.8570 O.2   647  THR647     -0.2863
    213  CB        26.9290   19.3150   25.6960 C.3   647  THR647      0.1794
    214  OG1       26.9510   20.4270   26.5970 O.3   647  THR647     -0.2208
    215  CG2       28.2320   18.5480   25.7890 C.3   647  THR647      0.0378
@<TRIPOS>BOND
     1   167   166    2
     2   179   178    2
     3   188   187    2
     4   185   186    1
     5   178   177    1
     6   202   201    2
     7   189   186    1
     8   189   190    1
     9   166   165    1
    10   166   176   am
    11   197   196    2
    12   187   186    1
    13   187   194   am
    14   165   168    1
    15   165   164    1
    16   177   176    1
    17   177   180    1
    18   190   191    1
    19   201   200    1
    20   201   205   am
    21   196   195    1
    22   196   199   am
    23   200   199    1
    24   200   203    1
    25   168   169    1
    26   170   169   ar
    27   170   172   ar
    28   194   195    1
    29   195   198    1
    30   204   203    1
    31   180   181    1
    32   151   152    2
    33   151   150    1
    34   169   171   ar
    35   205   206    1
    36   172   174   ar
    37   191   193   ar
    38   191   192   ar
    39   159   158    2
    40   206   207    1
    41   208   207    2
    42   156   157    1
    43   207   209   am
    44   181   182    1
    45   149   150    1
    46   150   153    1
    47   171   173   ar
    48   158   157    1
    49   212   211    2
    50   209   210    1
    51   174   173   ar
    52   174   175    1
    53   211   210    1
    54   157   160    1
    55   210   213    1
    56   155   153    1
    57   160   161    1
    58   182   183    1
    59   153   154    1
    60   184   183    1
    61   161   162    2
    62   161   163   am
    63   131   130    2
    64   213   215    1
    65   213   214    1
    66   130   129    1
    67   121   120    2
    68   129   128    1
    69   129   132    1
    70   128   120   am
    71   120   119    1
    72   119   118    1
    73   119   122    1
    74   132   134    1
    75   132   133    1
    76    40    39    1
    77   122   123    1
    78   124   123   ar
    79   124   126   ar
    80    41    39    1
    81   135   136    1
    82   123   125   ar
    83   139   136    1
    84    23    22    1
    85    23    24    1
    86    39    38    1
    87   126   127   ar
    88    22    20   am
    89   136   137    1
    90    24    25    2
    91    24    26   am
    92    38    35    1
    93   125   127   ar
    94    53    52    2
    95   137   138    2
    96    26    27    1
    97    66    64   ar
    98    66    68   ar
    99    64    63   ar
   100   106   105   ar
   101    35    34    1
   102    35    36    1
   103    57    55   ar
   104    20    19    1
   105    20    21    2
   106    27    30    1
   107    27    28    1
   108    52    51    1
   109    55    56   ar
   110    55    54    1
   111    19    18    1
   112    58    59    1
   113   105   107   ar
   114   105   104    1
   115    30    31    1
   116    37    36    2
   117    59    62    1
   118    59    60    1
   119    68    67   ar
   120    63    62    1
   121    63    65   ar
   122    54    51    1
   123    32    31    1
   124    28    29    2
   125   104   101    1
   126   101   100    1
   127   101   102    1
   128    51    50    1
   129    31    33    1
   130    18    12   am
   131   140   141    1
   132    13    12    2
   133    67    65   ar
   134    69    60   am
   135    69    70    1
   136    60    61    2
   137    12    11    1
   138    50    44   am
   139   102   103    2
   140   143   142    2
   141    73    70    1
   142    73    74    1
   143   141   142    1
   144   141   144    1
   145    48    47    2
   146    70    71    1
   147    14    11    1
   148    14    15    1
   149    44    45    2
   150    44    43    1
   151   117   116   ar
   152   117   115   ar
   153    72    71    2
   154    11    10    1
   155   116   114   ar
   156   144   145    1
   157    74    76   ar
   158    74    75   ar
   159    47    49   am
   160    47    46    1
   161    71    80   am
   162    76    78   ar
   163   145   146    1
   164    43    46    1
   165    43    42    1
   166    15    16    2
   167    15    17   am
   168     9     7   ar
   169   115   113   ar
   170   114   113   ar
   171    75    77   ar
   172     8     7   ar
   173   108   109    1
   174   147   146   ar
   175     7     6    1
   176   113   112    1
   177    78    79   ar
   178    80    81    1
   179   146   148   ar
   180    85    86    1
   181    85    84    1
   182    77    79   ar
   183     5     6    1
   184     5     2    1
   185     4     3    2
   186    86    87   ar
   187    86    88   ar
   188    81    84    1
   189    81    82    1
   190   112   109    1
   191   109   110    1
   192     3     2    1
   193    99    97    1
   194     2     1    1
   195    82    83    2
   196   110   111    2
   197    97    96    2
   198    97    98    1
   199    96    95    1
   200    95    94    1
   201    94    93    1
   202    93    90    1
   203    92    91    2
   204    90    91    1
   205    90    89    1
