@<TRIPOS>MOLECULE
tmp/4mihF01.pdb
 121 114 0 0 0
SMALL
GASTEIGER

@<TRIPOS>ATOM
      1  N         19.3500  -92.3650  -70.8770 N.3   147  THR147     -0.1218
      2  CA        18.4920  -92.7570  -71.9840 C.3   147  THR147      0.1862
      3  C         18.1750  -94.2650  -71.9840 C.2   147  THR147      0.2287
      4  O         17.1620  -94.6730  -72.5470 O.2   147  THR147     -0.2866
      5  CB        19.1450  -92.3600  -73.3360 C.3   147  THR147      0.1770
      6  OG1       19.0890  -90.9440  -73.5000 O.3   147  THR147     -0.2211
      7  CG2       18.4530  -93.0210  -74.5390 C.3   147  THR147      0.0375
      8  N         19.8700  -96.8820  -73.3510 N.3   149  ALA149     -0.1245
      9  CA        20.1990  -97.7100  -74.4950 C.3   149  ALA149      0.1562
     10  C         21.3090  -98.6930  -74.1220 C.2   149  ALA149      0.2260
     11  O         22.3800  -98.2900  -73.6670 O.2   149  ALA149     -0.2867
     12  CB        20.5890  -96.8710  -75.6890 C.3   149  ALA149      0.0290
     13  N         30.4870  -87.1340  -81.7870 N.3   349  MET349     -0.1245
     14  CA        29.0640  -87.2770  -82.0510 C.3   349  MET349      0.1570
     15  C         28.5320  -86.2580  -83.0560 C.2   349  MET349      0.2261
     16  O         28.7610  -85.0610  -82.9180 O.2   349  MET349     -0.2867
     17  CB        28.2680  -87.1250  -80.7580 C.3   349  MET349      0.0387
     18  CG        26.7750  -87.0030  -81.0210 C.3   349  MET349      0.0595
     19  SD        25.7670  -87.2100  -79.5540 S.3   349  MET349     -0.1393
     20  CE        26.9770  -86.8240  -78.2880 C.3   349  MET349      0.0692
     21  N         21.6160  -93.8920  -83.7980 N.3   415  GLN415     -0.1245
     22  CA        20.3810  -93.9010  -83.0600 C.3   415  GLN415      0.1566
     23  C         19.4370  -92.9380  -83.7420 C.2   415  GLN415      0.2260
     24  O         19.7460  -91.7560  -83.9450 O.2   415  GLN415     -0.2867
     25  CB        20.6340  -93.5260  -81.5990 C.3   415  GLN415      0.0367
     26  CG        21.6760  -94.4410  -80.9420 C.3   415  GLN415      0.0905
     27  CD        21.7880  -94.2980  -79.4280 C.2   415  GLN415      0.2608
     28  OE1       22.3610  -95.1690  -78.7590 O.2   415  GLN415     -0.2717
     29  NE2       21.2590  -93.2030  -78.8810 N.am  415  GLN415     -0.0878
     30  N         15.5150  -88.2930  -77.9960 N.3   419  ASP419     -0.1239
     31  CA        16.1270  -88.2380  -76.6640 C.3   419  ASP419      0.1674
     32  C         15.5260  -87.1630  -75.7860 C.2   419  ASP419      0.2266
     33  O         15.1440  -86.0960  -76.2660 O.2   419  ASP419     -0.2867
     34  CB        17.6300  -87.9630  -76.7620 C.3   419  ASP419      0.1410
     35  CG        18.4250  -88.6730  -75.6840 C.2   419  ASP419      0.3668
     36  OD1       18.3410  -88.2840  -74.5000 O.co2 419  ASP419     -0.2456
     37  OD2       19.1430  -89.6340  -76.0310 O.co2 419  ASP419     -0.2456
     38  N         17.3340  -85.6610  -73.7750 N.3   421  PHE421     -0.1241
     39  CA        18.4400  -84.7090  -73.7530 C.3   421  PHE421      0.1605
     40  C         18.4400  -83.9080  -75.0580 C.2   421  PHE421      0.2264
     41  O         19.2100  -84.2000  -75.9770 O.2   421  PHE421     -0.2867
     42  CB        19.7760  -85.4430  -73.5530 C.3   421  PHE421      0.0534
     43  CG        20.9290  -84.5500  -73.1130 C.ar  421  PHE421     -0.0203
     44  CD1       22.1520  -85.1060  -72.7610 C.ar  421  PHE421     -0.0042
     45  CD2       20.7960  -83.1660  -73.0630 C.ar  421  PHE421     -0.0042
     46  CE1       23.2140  -84.3110  -72.3620 C.ar  421  PHE421     -0.0003
     47  CE2       21.8630  -82.3520  -72.6630 C.ar  421  PHE421     -0.0003
     48  CZ        23.0730  -82.9250  -72.3110 C.ar  421  PHE421     -0.0000
     49  N         19.2650  -80.6300  -77.3410 N.3   423  TYR423     -0.1241
     50  CA        20.3680  -79.6930  -77.4110 C.3   423  TYR423      0.1605
     51  C         19.8890  -78.3150  -77.8610 C.2   423  TYR423      0.2264
     52  O         19.8170  -78.0150  -79.0580 O.2   423  TYR423     -0.2867
     53  CB        21.4230  -80.2300  -78.3670 C.3   423  TYR423      0.0534
     54  CG        21.8200  -81.6470  -78.0520 C.ar  423  TYR423     -0.0201
     55  CD1       21.9470  -82.0870  -76.7330 C.ar  423  TYR423     -0.0009
     56  CD2       22.0410  -82.5590  -79.0660 C.ar  423  TYR423     -0.0009
     57  CE1       22.2950  -83.3910  -76.4440 C.ar  423  TYR423      0.0417
     58  CE2       22.4040  -83.8570  -78.7870 C.ar  423  TYR423      0.0417
     59  CZ        22.5310  -84.2710  -77.4820 C.ar  423  TYR423      0.1957
     60  OH        22.9130  -85.5750  -77.2460 O.3   423  TYR423     -0.2866
     61  N         21.4780  -89.4030  -83.8910 N.3   439  ARG439     -0.1245
     62  CA        22.7300  -89.2810  -83.1750 C.3   439  ARG439      0.1563
     63  C         23.6630  -90.3860  -83.6260 C.2   439  ARG439      0.2260
     64  O         23.4030  -91.5670  -83.3980 O.2   439  ARG439     -0.2867
     65  CB        22.5060  -89.3720  -81.6720 C.3   439  ARG439      0.0307
     66  CG        21.8840  -88.1510  -81.0760 C.3   439  ARG439      0.0489
     67  CD        21.6220  -88.3370  -79.6020 C.3   439  ARG439      0.2205
     68  NE        21.1550  -87.0950  -78.9840 N.pl3 439  ARG439     -0.0865
     69  CZ        19.8930  -86.6810  -78.9990 C.cat 439  ARG439      0.5346
     70  NH1       18.9680  -87.4170  -79.6060 N.pl3 439  ARG439      0.1354
     71  NH2       19.5590  -85.5310  -78.4150 N.pl3 439  ARG439      0.1354
     72  N         27.4140  -91.8910  -83.2590 N.3   441  PHE441     -0.1241
     73  CA        28.5900  -91.8830  -82.4110 C.3   441  PHE441      0.1605
     74  C         29.6810  -92.6600  -83.1190 C.2   441  PHE441      0.2264
     75  O         29.4510  -93.7710  -83.5820 O.2   441  PHE441     -0.2867
     76  CB        28.3130  -92.5950  -81.0910 C.3   441  PHE441      0.0534
     77  CG        27.0830  -92.1200  -80.3660 C.ar  441  PHE441     -0.0203
     78  CD1       25.8150  -92.5670  -80.7330 C.ar  441  PHE441     -0.0042
     79  CD2       27.1950  -91.2700  -79.2770 C.ar  441  PHE441     -0.0042
     80  CE1       24.6850  -92.1380  -80.0420 C.ar  441  PHE441     -0.0003
     81  CE2       26.0630  -90.8480  -78.5860 C.ar  441  PHE441     -0.0003
     82  CZ        24.8160  -91.2820  -78.9700 C.ar  441  PHE441     -0.0000
     83  N         30.4330  -84.7070  -74.9680 N.3   511  LEU511     -0.1231
     84  CA        28.9780  -84.7110  -74.7350 C.3   511  LEU511      0.1693
     85  C         28.3450  -86.1060  -74.5770 C.2   511  LEU511      0.2592
     86  O         27.3960  -86.2790  -73.8060 O.2   511  LEU511     -0.2718
     87  CB        28.2310  -83.9110  -75.8190 C.3   511  LEU511      0.0284
     88  CG        26.7020  -83.7720  -75.6700 C.3   511  LEU511      0.0019
     89  CD1       26.3150  -82.9860  -74.4500 C.3   511  LEU511      0.0001
     90  CD2       26.0880  -83.1730  -76.9060 C.3   511  LEU511      0.0001
     91  N         28.8810  -87.0930  -75.2930 N.am  512  ALA512     -0.1966
     92  CA        28.3330  -88.4500  -75.2560 C.3   512  ALA512      0.1728
     93  C         28.4700  -89.0930  -73.8860 C.2   512  ALA512      0.2616
     94  O         27.7150  -90.0010  -73.5450 O.2   512  ALA512     -0.2715
     95  CB        28.9770  -89.3220  -76.3170 C.3   512  ALA512      0.0334
     96  N         29.4220  -88.5980  -73.1020 N.am  513  LEU513     -0.1963
     97  CA        29.7180  -89.1290  -71.7730 C.3   513  LEU513      0.1728
     98  C         30.1200  -90.6150  -71.8240 C.2   513  LEU513      0.2616
     99  O         29.8270  -91.3870  -70.9100 O.2   513  LEU513     -0.2715
    100  CB        28.5400  -88.9040  -70.8230 C.3   513  LEU513      0.0311
    101  CG        28.0320  -87.4650  -70.7700 C.3   513  LEU513      0.0022
    102  CD1       26.7200  -87.4340  -70.0620 C.3   513  LEU513      0.0001
    103  CD2       29.0260  -86.5000  -70.0980 C.3   513  LEU513      0.0001
    104  N         30.8070  -90.9970  -72.8960 N.am  514  HIS514     -0.1973
    105  CA        31.1860  -92.3880  -73.0960 C.3   514  HIS514      0.1656
    106  C         32.6920  -92.5870  -72.8870 C.2   514  HIS514      0.2291
    107  O         33.3110  -93.5140  -73.4380 O.2   514  HIS514     -0.2864
    108  CB        30.7280  -92.8740  -74.4730 C.3   514  HIS514      0.0771
    109  CG        29.2490  -93.0910  -74.5690 C.ar  514  HIS514      0.0820
    110  ND1       28.6060  -93.3510  -75.7610 N.ar  514  HIS514     -0.2267
    111  CD2       28.2860  -93.0910  -73.6150 C.ar  514  HIS514      0.1154
    112  CE1       27.3120  -93.5020  -75.5350 C.ar  514  HIS514      0.1986
    113  NE2       27.0910  -93.3440  -74.2420 N.ar  514  HIS514     -0.2212
    114  N         26.9850  -97.5970  -76.8140 N.3   557  ASN557     -0.1240
    115  CA        26.8460  -97.1800  -75.4140 C.3   557  ASN557      0.1653
    116  C         27.3950  -98.2590  -74.4560 C.2   557  ASN557      0.2266
    117  O         27.0270  -99.4230  -74.5470 O.2   557  ASN557     -0.2867
    118  CB        25.3900  -96.8260  -75.0520 C.3   557  ASN557      0.1155
    119  CG        24.5330  -96.4640  -76.2630 C.2   557  ASN557      0.2627
    120  OD1       24.5930  -97.1090  -77.3020 O.2   557  ASN557     -0.2716
    121  ND2       23.7150  -95.4250  -76.1170 N.am  557  ASN557     -0.0877
@<TRIPOS>BOND
     1    24    23    2
     2    61    62    1
     3    21    22    1
     4    23    22    1
     5    63    64    2
     6    63    62    1
     7    75    74    2
     8    72    73    1
     9    62    65    1
    10    74    73    1
    11    22    25    1
    12    15    16    2
    13    15    14    1
    14    73    76    1
    15    14    13    1
    16    14    17    1
    17    65    66    1
    18    25    26    1
    19    76    77    1
    20    66    67    1
    21    18    17    1
    22    18    19    1
    23    26    27    1
    24    78    77   ar
    25    78    80   ar
    26    77    79   ar
    27    80    82   ar
    28    70    69    1
    29    67    68    1
    30    19    20    1
    31    27    29   am
    32    27    28    2
    33    79    81   ar
    34    56    58   ar
    35    56    54   ar
    36    52    51    2
    37    69    68    2
    38    69    71    1
    39    82    81   ar
    40    58    59   ar
    41    53    54    1
    42    53    50    1
    43    54    55   ar
    44    30    31    1
    45    51    50    1
    46    59    60    1
    47    59    57   ar
    48    50    49    1
    49   120   119    2
    50    90    88    1
    51   114   115    1
    52    34    31    1
    53    34    35    1
    54    55    57   ar
    55    31    32    1
    56    95    92    1
    57    33    32    2
    58   119   121   am
    59   119   118    1
    60    37    35   ar
    61    41    40    2
    62    87    88    1
    63    87    84    1
    64   110   112   ar
    65   110   109   ar
    66    12     9    1
    67    35    36   ar
    68    88    89    1
    69   112   113   ar
    70   115   118    1
    71   115   116    1
    72    91    92    1
    73    91    85   am
    74    92    93    1
    75    40    39    1
    76    83    84    1
    77    84    85    1
    78    85    86    2
    79   109   108    1
    80   109   111   ar
    81   117   116    2
    82     7     5    1
    83     9    10    1
    84     9     8    1
    85   108   105    1
    86   113   111   ar
    87    10    11    2
    88    93    94    2
    89    93    96   am
    90    38    39    1
    91    39    42    1
    92    42    43    1
    93     6     5    1
    94   107   106    2
    95     5     2    1
    96    43    45   ar
    97    43    44   ar
    98    96    97    1
    99   105   104    1
   100   105   106    1
   101    45    47   ar
   102   104    98   am
   103    44    46   ar
   104    47    48   ar
   105     4     3    2
   106    46    48   ar
   107     3     2    1
   108     2     1    1
   109    98    97    1
   110    98    99    2
   111    97   100    1
   112   100   101    1
   113   101   103    1
   114   101   102    1
