@<TRIPOS>MOLECULE
tmp/4mijA00.pdb
 137 127 0 0 0
SMALL
GASTEIGER

@<TRIPOS>ATOM
      1  N         11.6210   26.7520   49.3150 N.3     8  THR8       -0.1203
      2  CA        11.7660   28.1090   49.8000 C.3     8  THR8        0.1994
      3  C         11.7960   29.1610   48.6880 C.2     8  THR8        0.2617
      4  O         11.4850   30.3120   48.9470 O.2     8  THR8       -0.2717
      5  CB        13.0520   28.2170   50.6510 C.3     8  THR8        0.1784
      6  OG1       13.0160   29.4150   51.4310 O.3     8  THR8       -0.2211
      7  CG2       14.3260   28.2030   49.8120 C.3     8  THR8        0.0376
      8  N         12.1900   28.8030   47.4680 N.am    9  HIS9       -0.1975
      9  CA        12.4280   29.8190   46.4410 C.3     9  HIS9        0.1656
     10  C         11.1380   30.4720   45.9710 C.2     9  HIS9        0.2291
     11  O         10.1080   29.8210   45.8040 O.2     9  HIS9       -0.2864
     12  CB        13.1830   29.2290   45.2490 C.3     9  HIS9        0.0771
     13  CG        14.5980   28.8900   45.5610 C.ar    9  HIS9        0.0820
     14  ND1       15.5570   29.8530   45.7930 N.ar    9  HIS9       -0.2267
     15  CD2       15.2020   27.6920   45.7150 C.ar    9  HIS9        0.1154
     16  CE1       16.7020   29.2500   46.0700 C.ar    9  HIS9        0.1986
     17  NE2       16.5160   27.9440   46.0160 N.ar    9  HIS9       -0.2212
     18  N         11.7750   28.4470   39.2940 N.3    14  TYR14      -0.1241
     19  CA        13.1220   28.1650   39.7790 C.3    14  TYR14       0.1605
     20  C         13.4360   26.6960   39.4710 C.2    14  TYR14       0.2264
     21  O         12.5580   25.8480   39.5660 O.2    14  TYR14      -0.2867
     22  CB        13.2430   28.4210   41.2780 C.3    14  TYR14       0.0534
     23  CG        14.6780   28.6290   41.6930 C.ar   14  TYR14      -0.0201
     24  CD1       15.3270   29.8130   41.3700 C.ar   14  TYR14      -0.0009
     25  CD2       15.3870   27.6540   42.3890 C.ar   14  TYR14      -0.0009
     26  CE1       16.6410   30.0270   41.7230 C.ar   14  TYR14       0.0417
     27  CE2       16.7210   27.8610   42.7440 C.ar   14  TYR14       0.0417
     28  CZ        17.3270   29.0600   42.4120 C.ar   14  TYR14       0.1957
     29  OH        18.6250   29.3480   42.7680 O.3    14  TYR14      -0.2866
     30  N         13.1240   26.3560   55.4600 N.3    48  GLU48      -0.1245
     31  CA        13.6880   25.0350   55.2490 C.3    48  GLU48       0.1567
     32  C         13.6730   24.2290   56.5430 C.2    48  GLU48       0.2260
     33  O         13.2210   23.0860   56.5470 O.2    48  GLU48      -0.2867
     34  CB        15.0990   25.1220   54.6550 C.3    48  GLU48       0.0388
     35  CG        15.0750   25.7280   53.2660 C.3    48  GLU48       0.1160
     36  CD        16.2430   25.3610   52.3630 C.2    48  GLU48       0.3649
     37  OE1       17.4100   25.2240   52.8150 O.co2  48  GLU48      -0.2457
     38  OE2       16.0040   25.2670   51.1500 O.co2  48  GLU48      -0.2457
     39  N         12.0650   19.9240   49.4710 N.3    64  ARG64      -0.1245
     40  CA        13.2470   20.1220   48.6570 C.3    64  ARG64       0.1563
     41  C         14.0480   21.1960   49.3720 C.2    64  ARG64       0.2260
     42  O         13.6240   22.3560   49.3890 O.2    64  ARG64      -0.2867
     43  CB        12.8410   20.5790   47.2510 C.3    64  ARG64       0.0307
     44  CG        13.9440   20.5220   46.1890 C.3    64  ARG64       0.0489
     45  CD        15.1750   21.3930   46.4820 C.3    64  ARG64       0.2205
     46  NE        14.8350   22.7960   46.6610 N.pl3  64  ARG64      -0.0865
     47  CZ        15.5990   23.6910   47.2720 C.cat  64  ARG64       0.5346
     48  NH1       16.7740   23.3590   47.7760 N.pl3  64  ARG64       0.1354
     49  NH2       15.1960   24.9380   47.3850 N.pl3  64  ARG64       0.1354
     50  N         18.3250   22.4630   50.7880 N.3    66  ASN66      -0.1240
     51  CA        19.7460   22.2300   50.5880 C.3    66  ASN66       0.1653
     52  C         20.2510   21.2380   51.6250 C.2    66  ASN66       0.2266
     53  O         19.6610   21.0920   52.7050 O.2    66  ASN66      -0.2867
     54  CB        20.4910   23.5670   50.6620 C.3    66  ASN66       0.1155
     55  CG        21.9350   23.4670   50.2470 C.2    66  ASN66       0.2627
     56  OD1       22.8250   23.3980   51.0940 O.2    66  ASN66      -0.2716
     57  ND2       22.1840   23.4800   48.9570 N.am   66  ASN66      -0.0877
     58  N         23.0040   22.6050   42.6770 N.3   121  SER121     -0.1217
     59  CA        22.9650   23.9480   43.2290 C.3   121  SER121      0.1889
     60  C         24.2570   24.7130   42.9000 C.2   121  SER121      0.2288
     61  O         24.6110   25.6800   43.5790 O.2   121  SER121     -0.2866
     62  CB        22.7320   23.8700   44.7400 C.3   121  SER121      0.2089
     63  OG        22.2110   25.0760   45.2710 O.3   121  SER121     -0.2183
     64  N         28.9330   27.6030   45.6410 N.3   124  ARG124     -0.1245
     65  CA        28.6460   28.7600   46.4690 C.3   124  ARG124      0.1563
     66  C         29.8930   29.6270   46.6120 C.2   124  ARG124      0.2260
     67  O         30.9880   29.1220   46.8550 O.2   124  ARG124     -0.2867
     68  CB        28.1520   28.3020   47.8430 C.3   124  ARG124      0.0307
     69  CG        26.9330   27.3880   47.7700 C.3   124  ARG124      0.0489
     70  CD        26.4940   26.8780   49.1110 C.3   124  ARG124      0.2205
     71  NE        25.9550   27.8870   50.0240 N.pl3 124  ARG124     -0.0865
     72  CZ        24.6600   28.1080   50.2330 C.cat 124  ARG124      0.5346
     73  NH1       23.7370   27.4500   49.5490 N.pl3 124  ARG124      0.1354
     74  NH2       24.2920   29.0010   51.1420 N.pl3 124  ARG124      0.1354
     75  N         26.6080   35.9070   56.5480 N.3   144  ARG144     -0.1245
     76  CA        25.5620   34.9420   56.8460 C.3   144  ARG144      0.1563
     77  C         25.9140   33.5880   56.2770 C.2   144  ARG144      0.2260
     78  O         26.4200   33.4810   55.1480 O.2   144  ARG144     -0.2867
     79  CB        24.2240   35.3880   56.2580 C.3   144  ARG144      0.0307
     80  CG        23.0760   34.3970   56.4420 C.3   144  ARG144      0.0489
     81  CD        22.9970   33.4170   55.2920 C.3   144  ARG144      0.2205
     82  NE        21.8860   32.4900   55.4790 N.pl3 144  ARG144     -0.0865
     83  CZ        21.5460   31.5850   54.5720 C.cat 144  ARG144      0.5346
     84  NH1       22.1800   31.5310   53.4130 N.pl3 144  ARG144      0.1354
     85  NH2       20.5370   30.7540   54.7940 N.pl3 144  ARG144      0.1354
     86  N         24.0330   29.3970   56.3200 N.3   146  GLN146     -0.1245
     87  CA        22.9330   28.5430   56.7070 C.3   146  GLN146      0.1566
     88  C         23.0680   28.0650   58.1540 C.2   146  GLN146      0.2260
     89  O         24.1160   28.1680   58.7780 O.2   146  GLN146     -0.2867
     90  CB        22.8640   27.3420   55.7790 C.3   146  GLN146      0.0367
     91  CG        22.5080   27.6760   54.3520 C.3   146  GLN146      0.0905
     92  CD        22.9580   26.6000   53.3940 C.2   146  GLN146      0.2608
     93  OE1       24.1030   26.1520   53.4650 O.2   146  GLN146     -0.2717
     94  NE2       22.0970   26.2170   52.4650 N.am  146  GLN146     -0.0878
     95  N         17.2970   31.5920   55.2400 N.3   167  TYR167     -0.1241
     96  CA        17.4780   32.2050   53.9320 C.3   167  TYR167      0.1605
     97  C         16.6150   33.4310   53.7360 C.2   167  TYR167      0.2264
     98  O         17.0490   34.4220   53.1340 O.2   167  TYR167     -0.2867
     99  CB        17.1610   31.1710   52.8590 C.3   167  TYR167      0.0534
    100  CG        17.4360   31.5590   51.4310 C.ar  167  TYR167     -0.0201
    101  CD1       18.6880   31.9950   51.0180 C.ar  167  TYR167     -0.0009
    102  CD2       16.4570   31.3810   50.4710 C.ar  167  TYR167     -0.0009
    103  CE1       18.9330   32.2780   49.6900 C.ar  167  TYR167      0.0417
    104  CE2       16.6930   31.6680   49.1460 C.ar  167  TYR167      0.0417
    105  CZ        17.9340   32.1170   48.7580 C.ar  167  TYR167      0.1957
    106  OH        18.2190   32.3710   47.4440 O.3   167  TYR167     -0.2866
    107  N         26.5420   32.0890   48.1970 N.3   184  ASN184     -0.1225
    108  CA        25.5770   31.2720   47.4790 C.3   184  ASN184      0.1785
    109  C         25.9620   31.1930   46.0210 C.2   184  ASN184      0.2597
    110  O         26.9270   31.8190   45.5780 O.2   184  ASN184     -0.2718
    111  CB        24.1510   31.8290   47.6190 C.3   184  ASN184      0.1169
    112  CG        23.1450   30.7310   47.8370 C.2   184  ASN184      0.2627
    113  OD1       23.1210   29.7420   47.1000 O.2   184  ASN184     -0.2716
    114  ND2       22.3450   30.8640   48.8860 N.am  184  ASN184     -0.0877
    115  N         25.2020   30.4050   45.2850 N.am  185  ASN185     -0.1974
    116  CA        25.3000   30.3800   43.8480 C.3   185  ASN185      0.1688
    117  C         24.7080   31.6540   43.2410 C.2   185  ASN185      0.2292
    118  O         24.0880   32.4730   43.9420 O.2   185  ASN185     -0.2864
    119  CB        24.6590   29.0900   43.3070 C.3   185  ASN185      0.1181
    120  CG        23.2110   28.9570   43.6990 C.2   185  ASN185      0.2629
    121  OD1       22.4220   29.8930   43.5320 O.2   185  ASN185     -0.2716
    122  ND2       22.8470   27.8010   44.2400 N.am  185  ASN185     -0.0877
    123  N         20.7690   32.1700   43.2150 N.3   188  SER188     -0.1217
    124  CA        20.2330   32.5850   44.5020 C.3   188  SER188      0.1889
    125  C         20.5420   34.0670   44.7570 C.2   188  SER188      0.2288
    126  O         19.6550   34.8490   45.1450 O.2   188  SER188     -0.2866
    127  CB        20.8160   31.7120   45.6180 C.3   188  SER188      0.2089
    128  OG        20.3780   30.3700   45.5030 O.3   188  SER188     -0.2183
    129  N         21.2980   20.2620   46.5640 N.3   211  GLU211     -0.1245
    130  CA        19.9770   20.1150   47.1540 C.3   211  GLU211      0.1567
    131  C         19.6780   18.6390   47.3730 C.2   211  GLU211      0.2260
    132  O         20.1850   17.7720   46.6640 O.2   211  GLU211     -0.2867
    133  CB        18.8680   20.6640   46.2570 C.3   211  GLU211      0.0388
    134  CG        19.1810   21.9390   45.4750 C.3   211  GLU211      0.1160
    135  CD        19.5080   23.1520   46.3210 C.2   211  GLU211      0.3649
    136  OE1       19.6770   23.0490   47.5560 O.co2 211  GLU211     -0.2457
    137  OE2       19.6050   24.2450   45.6980 O.co2 211  GLU211     -0.2457
@<TRIPOS>BOND
     1    18    19    1
     2    20    21    2
     3    20    19    1
     4    19    22    1
     5    22    23    1
     6    24    23   ar
     7    24    26   ar
     8    23    25   ar
     9    26    28   ar
    10    25    27   ar
    11    28    27   ar
    12    28    29    1
    13    58    59    1
    14    60    59    1
    15    60    61    2
    16   123   124    1
    17    59    62    1
    18   117   116    1
    19   117   118    2
    20   119   120    1
    21   119   116    1
    22   121   120    2
    23   120   122   am
    24   116   115    1
    25   124   125    1
    26   124   127    1
    27    62    63    1
    28   125   126    2
    29    12    13    1
    30    12     9    1
    31   115   109   am
    32   134   133    1
    33   134   135    1
    34   128   127    1
    35    13    15   ar
    36    13    14   ar
    37   110   109    2
    38    64    65    1
    39   137   135   ar
    40    15    17   ar
    41    14    16   ar
    42    11    10    2
    43    10     9    1
    44    17    16   ar
    45   109   108    1
    46    44    45    1
    47    44    43    1
    48   133   130    1
    49   135   136   ar
    50     9     8    1
    51    65    66    1
    52    65    68    1
    53    45    46    1
    54   129   130    1
    55    66    67    2
    56    46    47    2
    57   132   131    2
    58   113   112    2
    59   130   131    1
    60    43    40    1
    61    47    49    1
    62    47    48    1
    63   106   105    1
    64     8     3   am
    65   108   111    1
    66   108   107    1
    67   111   112    1
    68    69    68    1
    69    69    70    1
    70   112   114   am
    71    40    41    1
    72    40    39    1
    73     3     4    2
    74     3     2    1
    75   105   104   ar
    76   105   103   ar
    77    57    55   am
    78    70    71    1
    79   104   102   ar
    80     1     2    1
    81    41    42    2
    82    73    72    1
    83   103   101   ar
    84     2     5    1
    85     7     5    1
    86    71    72    2
    87    72    74    1
    88    55    54    1
    89    55    56    2
    90   102   100   ar
    91    51    54    1
    92    51    50    1
    93    51    52    1
    94     5     6    1
    95   101   100   ar
    96    38    36   ar
    97   100    99    1
    98    52    53    2
    99    36    37   ar
   100    36    35    1
   101    94    92   am
   102    99    96    1
   103    98    97    2
   104    35    34    1
   105    92    93    2
   106    92    91    1
   107    84    83    1
   108    97    96    1
   109    96    95    1
   110    91    90    1
   111    83    85    1
   112    83    82    2
   113    34    31    1
   114    78    77    2
   115    31    30    1
   116    31    32    1
   117    81    82    1
   118    81    80    1
   119    90    87    1
   120    79    80    1
   121    79    76    1
   122    77    76    1
   123    86    87    1
   124    32    33    2
   125    75    76    1
   126    87    88    1
   127    88    89    2
