@<TRIPOS>MOLECULE
tmp/4mikB01.pdb
 111 111 0 0 0
SMALL
GASTEIGER

@<TRIPOS>ATOM
      1  N        -12.1790  -10.8070  -72.2270 N.3    20  TYR20      -0.1241
      2  CA       -11.8090  -12.1970  -72.4290 C.3    20  TYR20       0.1605
      3  C        -11.4750  -12.8770  -71.0900 C.2    20  TYR20       0.2264
      4  O        -11.9660  -13.9670  -70.7830 O.2    20  TYR20      -0.2867
      5  CB       -10.6060  -12.2830  -73.3310 C.3    20  TYR20       0.0534
      6  CG       -10.1630  -13.6880  -73.5360 C.ar   20  TYR20      -0.0201
      7  CD1      -10.8120  -14.4980  -74.4420 C.ar   20  TYR20      -0.0009
      8  CD2       -9.1000  -14.2180  -72.8130 C.ar   20  TYR20      -0.0009
      9  CE1      -10.4370  -15.7920  -74.6440 C.ar   20  TYR20       0.0417
     10  CE2       -8.7070  -15.5230  -73.0030 C.ar   20  TYR20       0.0417
     11  CZ        -9.3810  -16.3070  -73.9310 C.ar   20  TYR20       0.1957
     12  OH        -9.0160  -17.6010  -74.1610 O.3    20  TYR20      -0.2866
     13  N        -11.9830  -16.7180  -67.3830 N.3    25  TYR25      -0.1241
     14  CA       -11.2000  -16.9730  -66.2070 C.3    25  TYR25       0.1605
     15  C        -11.7260  -16.3760  -64.8700 C.2    25  TYR25       0.2264
     16  O        -11.1030  -16.5280  -63.8660 O.2    25  TYR25      -0.2867
     17  CB        -9.7580  -16.6570  -66.5510 C.3    25  TYR25       0.0534
     18  CG        -9.3020  -17.5440  -67.6970 C.ar   25  TYR25      -0.0201
     19  CD1       -8.9920  -18.8640  -67.4960 C.ar   25  TYR25      -0.0009
     20  CD2       -9.2780  -17.0830  -68.9830 C.ar   25  TYR25      -0.0009
     21  CE1       -8.6140  -19.6740  -68.5320 C.ar   25  TYR25       0.0417
     22  CE2       -8.8980  -17.8900  -70.0230 C.ar   25  TYR25       0.0417
     23  CZ        -8.5800  -19.1790  -69.7960 C.ar   25  TYR25       0.1957
     24  OH        -8.2200  -19.9740  -70.8140 O.3    25  TYR25      -0.2866
     25  N          5.1470  -21.3770  -75.4770 N.3    62  ASP62      -0.1225
     26  CA         3.6960  -21.2920  -75.3910 C.3    62  ASP62       0.1805
     27  C          3.2060  -20.4850  -76.6060 C.2    62  ASP62       0.2598
     28  O          3.5770  -19.3090  -76.7830 O.2    62  ASP62      -0.2718
     29  CB         3.2770  -20.5950  -74.1150 C.3    62  ASP62       0.1424
     30  CG         1.8000  -20.5660  -73.9170 C.2    62  ASP62       0.3668
     31  OD1        1.0990  -21.5030  -74.3550 O.co2  62  ASP62      -0.2456
     32  OD2        1.3270  -19.6000  -73.2820 O.co2  62  ASP62      -0.2456
     33  N          2.3760  -21.1380  -77.4130 N.am   63  ILE63      -0.1966
     34  CA         1.8810  -20.5890  -78.7030 C.3    63  ILE63       0.1727
     35  C          0.5350  -19.9480  -78.4780 C.2    63  ILE63       0.2617
     36  O         -0.4240  -20.6380  -78.0890 O.2    63  ILE63      -0.2715
     37  CB         1.7070  -21.7280  -79.7350 C.3    63  ILE63       0.0290
     38  CG1        3.0040  -22.4970  -79.9510 C.3    63  ILE63       0.0022
     39  CG2        1.1350  -21.2170  -81.0650 C.3    63  ILE63       0.0023
     40  CD1        4.1480  -21.6620  -80.5040 C.3    63  ILE63       0.0001
     41  N          0.4610  -18.6290  -78.6580 N.am   64  GLY64      -0.1940
     42  CA        -0.7820  -17.8970  -78.4990 C.3    64  GLY64       0.2014
     43  C         -1.2450  -17.8240  -77.0640 C.2    64  GLY64       0.2640
     44  O         -2.4150  -18.1190  -76.7570 O.2    64  GLY64      -0.2714
     45  N         -0.3350  -17.3840  -76.1740 N.am   65  SER65      -0.1935
     46  CA        -0.6480  -17.2380  -74.7600 C.3    65  SER65       0.2055
     47  C         -1.8100  -16.3340  -74.4890 C.2    65  SER65       0.2644
     48  O         -2.4230  -16.4370  -73.4430 O.2    65  SER65      -0.2714
     49  CB         0.5530  -16.6320  -74.0400 C.3    65  SER65       0.2130
     50  OG         1.7430  -17.3000  -74.4200 O.3    65  SER65      -0.2179
     51  N         -2.1080  -15.3910  -75.3900 N.am   66  GLY66      -0.1940
     52  CA        -3.0590  -14.3630  -75.0240 C.3    66  GLY66       0.1999
     53  C         -2.6410  -13.7380  -73.6830 C.2    66  GLY66       0.2481
     54  O         -1.4490  -13.6060  -73.4100 O.2    66  GLY66      -0.2729
     55  N         -3.6090  -13.3660  -72.8450 N.am   67  PRO67      -0.2715
     56  CA        -3.2920  -12.7030  -71.5780 C.3    67  PRO67       0.1536
     57  C         -3.2640  -13.6780  -70.3920 C.2    67  PRO67       0.2599
     58  O         -3.4550  -13.2320  -69.2530 O.2    67  PRO67      -0.2715
     59  CB        -4.4630  -11.7280  -71.4210 C.3    67  PRO67       0.0310
     60  CG        -5.6160  -12.5040  -71.9410 C.3    67  PRO67       0.0237
     61  CD        -5.0540  -13.3350  -73.1090 C.3    67  PRO67       0.0939
     62  N         -3.0230  -14.9680  -70.6400 N.am   68  THR68      -0.1951
     63  CA        -3.1610  -15.9760  -69.5880 C.3    68  THR68       0.1897
     64  C         -1.8660  -16.7230  -69.2880 C.2    68  THR68       0.2313
     65  O         -1.0170  -16.8700  -70.1650 O.2    68  THR68      -0.2863
     66  CB        -4.2790  -16.9870  -69.9190 C.3    68  THR68       0.1794
     67  OG1       -3.8340  -17.9130  -70.9060 O.3    68  THR68      -0.2208
     68  CG2       -5.5500  -16.2530  -70.3860 C.3    68  THR68       0.0378
     69  N         -2.0540  -19.6370  -66.8630 N.3    70  TYR70      -0.1227
     70  CA        -2.4510  -20.8720  -66.2440 C.3    70  TYR70       0.1736
     71  C         -1.8950  -22.0800  -66.9710 C.2    70  TYR70       0.2595
     72  O         -1.6120  -23.0640  -66.3550 O.2    70  TYR70      -0.2718
     73  CB        -3.9690  -20.9670  -66.1270 C.3    70  TYR70       0.0548
     74  CG        -4.6080  -21.3280  -67.4410 C.ar   70  TYR70      -0.0200
     75  CD1       -4.7690  -22.6240  -67.7970 C.ar   70  TYR70      -0.0009
     76  CD2       -4.9390  -20.3610  -68.3580 C.ar   70  TYR70      -0.0009
     77  CE1       -5.2870  -22.9650  -69.0170 C.ar   70  TYR70       0.0417
     78  CE2       -5.4590  -20.6930  -69.5790 C.ar   70  TYR70       0.0417
     79  CZ        -5.6260  -21.9920  -69.9060 C.ar   70  TYR70       0.1957
     80  OH        -6.1290  -22.3210  -71.1100 O.3    70  TYR70      -0.2866
     81  N         -1.7720  -21.9940  -68.2970 N.am   71  GLN71      -0.1979
     82  CA        -1.3430  -23.1410  -69.0940 C.3    71  GLN71       0.1601
     83  C          0.1200  -23.5200  -68.8440 C.2    71  GLN71       0.2287
     84  O          0.5940  -24.5670  -69.3350 O.2    71  GLN71      -0.2864
     85  CB        -1.5950  -22.8990  -70.6140 C.3    71  GLN71       0.0394
     86  CG        -0.7840  -21.7810  -71.1740 C.3    71  GLN71       0.0908
     87  CD        -1.3650  -20.3960  -71.0180 C.2    71  GLN71       0.2608
     88  OE1       -2.1620  -20.1130  -70.1170 O.2    71  GLN71      -0.2717
     89  NE2       -0.9660  -19.4990  -71.9370 N.am   71  GLN71      -0.0878
     90  N         -2.9980  -23.2800  -75.9880 N.3   166  ALA166     -0.1231
     91  CA        -4.3590  -23.4290  -75.5340 C.3   166  ALA166      0.1694
     92  C         -5.2800  -22.4280  -76.2400 C.2   166  ALA166      0.2592
     93  O         -5.0750  -21.2140  -76.1780 O.2   166  ALA166     -0.2718
     94  CB        -4.4240  -23.2570  -74.0180 C.3   166  ALA166      0.0304
     95  N         -6.2800  -22.9650  -76.9320 N.am  167  PHE167     -0.1962
     96  CA        -7.3580  -22.1630  -77.4980 C.3   167  PHE167      0.1771
     97  C         -6.8170  -21.1520  -78.4880 C.2   167  PHE167      0.2619
     98  O         -7.3580  -20.0650  -78.6320 O.2   167  PHE167     -0.2715
     99  CB        -8.1550  -21.4510  -76.4260 C.3   167  PHE167      0.0574
    100  CG        -8.7950  -22.3690  -75.4430 C.ar  167  PHE167     -0.0200
    101  CD1       -9.9570  -23.0520  -75.7720 C.ar  167  PHE167     -0.0042
    102  CD2       -8.2240  -22.5680  -74.1810 C.ar  167  PHE167     -0.0042
    103  CE1      -10.5380  -23.9170  -74.8760 C.ar  167  PHE167     -0.0003
    104  CE2       -8.8020  -23.4210  -73.2880 C.ar  167  PHE167     -0.0003
    105  CZ        -9.9700  -24.0910  -73.6140 C.ar  167  PHE167     -0.0000
    106  N         -5.7380  -21.4900  -79.1590 N.am  168  CYS168     -0.1968
    107  CA        -5.2270  -20.6470  -80.2130 C.3   168  CYS168      0.1712
    108  C         -5.5780  -21.0810  -81.6480 C.2   168  CYS168      0.2296
    109  O         -6.1890  -20.3380  -82.3720 O.2   168  CYS168     -0.2864
    110  CB        -3.7340  -20.5820  -80.1370 C.3   168  CYS168      0.0983
    111  SG        -2.9990  -19.4210  -81.2950 S.3   168  CYS168     -0.0798
@<TRIPOS>BOND
     1   109   108    2
     2   108   107    1
     3   111   110    1
     4    39    37    1
     5    40    38    1
     6   107   110    1
     7   107   106    1
     8    38    37    1
     9    37    34    1
    10   106    97   am
    11    34    35    1
    12    34    33    1
    13    41    42    1
    14    41    35   am
    15    98    97    2
    16    42    43    1
    17    97    96    1
    18    35    36    2
    19    96    95    1
    20    96    99    1
    21    33    27   am
    22    43    44    2
    23    43    45   am
    24    95    92   am
    25    28    27    2
    26    27    26    1
    27    99   100    1
    28    92    93    2
    29    92    91    1
    30    45    46    1
    31    90    91    1
    32   101   100   ar
    33   101   103   ar
    34    91    94    1
    35    25    26    1
    36   100   102   ar
    37    26    29    1
    38    51    52    1
    39    51    47   am
    40    52    53    1
    41   103   105   ar
    42    46    47    1
    43    46    49    1
    44     9     7   ar
    45     9    11   ar
    46    47    48    2
    47     7     6   ar
    48    50    49    1
    49    31    30   ar
    50   102   104   ar
    51    12    11    1
    52    29    30    1
    53    11    10   ar
    54    30    32   ar
    55    53    54    2
    56    53    55   am
    57   105   104   ar
    58     6     5    1
    59     6     8   ar
    60     5     2    1
    61    61    55    1
    62    61    60    1
    63    10     8   ar
    64    55    56    1
    65     2     1    1
    66     2     3    1
    67    60    59    1
    68    89    87   am
    69    56    59    1
    70    56    57    1
    71    86    87    1
    72    86    85    1
    73    80    79    1
    74     3     4    2
    75    87    88    2
    76    67    66    1
    77    24    23    1
    78    62    57   am
    79    62    63    1
    80    85    82    1
    81    57    58    2
    82    68    66    1
    83    65    64    2
    84    22    23   ar
    85    22    20   ar
    86    66    63    1
    87    79    78   ar
    88    79    77   ar
    89    23    21   ar
    90    63    64    1
    91    78    76   ar
    92    84    83    2
    93    82    83    1
    94    82    81    1
    95    77    75   ar
    96    20    18   ar
    97    21    19   ar
    98    76    74   ar
    99    81    71   am
   100    75    74   ar
   101    18    19   ar
   102    18    17    1
   103    74    73    1
   104    13    14    1
   105    71    72    2
   106    71    70    1
   107    69    70    1
   108    17    14    1
   109    70    73    1
   110    14    15    1
   111    15    16    2
