@<TRIPOS>MOLECULE
tmp/4mitC00.pdb
 181 178 0 0 0
SMALL
GASTEIGER

@<TRIPOS>ATOM
      1  N         74.0820  -85.1920   74.5630 N.3    14  GLY14      -0.1210
      2  CA        73.1560  -84.6130   73.6220 C.3    14  GLY14       0.1956
      3  C         72.8140  -85.6640   72.5920 C.2    14  GLY14       0.2612
      4  O         73.6930  -86.4300   72.1720 O.2    14  GLY14      -0.2717
      5  N         71.5240  -85.7360   72.2620 N.am   15  ALA15      -0.1965
      6  CA        70.9980  -86.5540   71.1700 C.3    15  ALA15       0.1728
      7  C         71.0150  -88.0730   71.3830 C.2    15  ALA15       0.2616
      8  O         70.7180  -88.8210   70.4520 O.2    15  ALA15      -0.2715
      9  CB        71.6840  -86.1770   69.8310 C.3    15  ALA15       0.0334
     10  N         71.2820  -88.5350   72.6050 N.am   16  VAL16      -0.1963
     11  CA        71.2010  -89.9790   72.8670 C.3    16  VAL16       0.1727
     12  C         69.7550  -90.4210   72.8480 C.2    16  VAL16       0.2617
     13  O         69.4700  -91.6070   72.7080 O.2    16  VAL16      -0.2715
     14  CB        71.8330  -90.4140   74.2130 C.3    16  VAL16       0.0290
     15  CG1       73.3350  -90.2190   74.2090 C.3    16  VAL16       0.0023
     16  CG2       71.2050  -89.6480   75.3680 C.3    16  VAL16       0.0023
     17  N         68.8370  -89.4700   73.0030 N.am   17  GLY17      -0.1940
     18  CA        67.4240  -89.7860   72.9080 C.3    17  GLY17       0.2014
     19  C         66.6290  -89.7390   74.1980 C.2    17  GLY17       0.2639
     20  O         65.6230  -90.4400   74.3380 O.2    17  GLY17      -0.2714
     21  N         67.0530  -88.8830   75.1210 N.am   18  LYS18      -0.1963
     22  CA        66.4180  -88.7710   76.4190 C.3    18  LYS18       0.1728
     23  C         65.0030  -88.2480   76.2680 C.2    18  LYS18       0.2617
     24  O         64.0570  -88.7760   76.8630 O.2    18  LYS18      -0.2715
     25  CB        67.2370  -87.8370   77.3190 C.3    18  LYS18       0.0311
     26  CG        68.6700  -88.2900   77.5610 C.3    18  LYS18       0.0038
     27  CD        69.4030  -87.3580   78.5300 C.3    18  LYS18       0.0206
     28  CE        69.6110  -86.0010   77.9280 C.3    18  LYS18       0.1093
     29  NZ        70.3570  -86.0890   76.6500 N.3    18  LYS18      -0.1314
     30  N         64.8610  -87.2000   75.4640 N.am   19  THR19      -0.1937
     31  CA        63.5610  -86.5870   75.2760 C.3    19  THR19       0.2028
     32  C         62.6090  -87.5220   74.5420 C.2    19  THR19       0.2642
     33  O         61.4230  -87.5980   74.9010 O.2    19  THR19      -0.2714
     34  CB        63.6700  -85.2440   74.5370 C.3    19  THR19       0.1808
     35  OG1       64.4810  -84.3400   75.3020 O.3    19  THR19      -0.2208
     36  CG2       62.2840  -84.6350   74.3330 C.3    19  THR19       0.0379
     37  N         63.0980  -88.2110   73.5080 N.am   20  CYS20      -0.1967
     38  CA        62.2190  -89.1430   72.7650 C.3    20  CYS20       0.1712
     39  C         61.7440  -90.2850   73.6240 C.2    20  CYS20       0.2296
     40  O         60.5920  -90.6990   73.5480 O.2    20  CYS20      -0.2864
     41  CB        62.9010  -89.6940   71.5170 C.3    20  CYS20       0.0983
     42  SG        62.9720  -88.4650   70.2050 S.3    20  CYS20      -0.0798
     43  N         56.4010  -90.3360   68.6930 N.3    30  PHE30      -0.1228
     44  CA        57.8430  -90.2820   68.4910 C.3    30  PHE30       0.1721
     45  C         58.2410  -89.0410   67.7090 C.2    30  PHE30       0.2437
     46  O         57.9790  -88.9550   66.5110 O.2    30  PHE30      -0.2733
     47  CB        58.3250  -91.5380   67.7830 C.3    30  PHE30       0.0547
     48  CG        59.8020  -91.5720   67.5470 C.ar   30  PHE30      -0.0202
     49  CD1       60.3100  -91.4740   66.2570 C.ar   30  PHE30      -0.0042
     50  CD2       60.6840  -91.7060   68.6020 C.ar   30  PHE30      -0.0042
     51  CE1       61.6690  -91.5130   66.0270 C.ar   30  PHE30      -0.0003
     52  CE2       62.0510  -91.7470   68.3790 C.ar   30  PHE30      -0.0003
     53  CZ        62.5450  -91.6470   67.0940 C.ar   30  PHE30      -0.0000
     54  N         58.8830  -88.0790   68.3900 N.am   31  PRO31      -0.2718
     55  CA        59.2360  -86.7450   67.8770 C.3    31  PRO31       0.1535
     56  C         59.9800  -86.6720   66.5270 C.2    31  PRO31       0.2598
     57  O         59.5760  -85.8610   65.6710 O.2    31  PRO31      -0.2715
     58  CB        60.1090  -86.1780   68.9990 C.3    31  PRO31       0.0310
     59  CG        59.5250  -86.7900   70.2380 C.3    31  PRO31       0.0237
     60  CD        59.1610  -88.2000   69.8330 C.3    31  PRO31       0.0939
     61  N         61.0260  -87.4790   66.3450 N.am   32  GLU32      -0.1964
     62  CA        61.8290  -87.5000   65.0960 C.3    32  GLU32       0.1733
     63  C         62.7420  -86.2860   64.8250 C.2    32  GLU32       0.2616
     64  O         63.9460  -86.4700   64.6120 O.2    32  GLU32      -0.2715
     65  CB        60.9780  -87.8170   63.8470 C.3    32  GLU32       0.0429
     66  CG        61.0340  -89.2820   63.3900 C.3    32  GLU32       0.1163
     67  CD        60.2040  -89.5580   62.1310 C.2    32  GLU32       0.3649
     68  OE1       59.2730  -88.7690   61.8380 O.co2  32  GLU32      -0.2457
     69  OE2       60.4890  -90.5630   61.4320 O.co2  32  GLU32      -0.2457
     70  N         62.2040  -85.0620   64.8210 N.am   33  ASP33      -0.1957
     71  CA        63.0890  -83.8890   64.7190 C.3    33  ASP33       0.1840
     72  C         63.8610  -83.7260   66.0250 C.2    33  ASP33       0.2622
     73  O         63.2970  -83.8600   67.1050 O.2    33  ASP33      -0.2715
     74  CB        62.3170  -82.5920   64.4190 C.3    33  ASP33       0.1450
     75  CG        61.8980  -82.4640   62.9540 C.2    33  ASP33       0.3671
     76  OD1       62.4980  -83.1460   62.0950 O.co2  33  ASP33      -0.2456
     77  OD2       60.9980  -81.6440   62.6530 O.co2  33  ASP33      -0.2456
     78  N         65.1370  -83.3760   65.9270 N.am   34  TYR34      -0.1960
     79  CA        65.9480  -83.1620   67.1160 C.3    34  TYR34       0.1771
     80  C         65.9580  -81.7140   67.5010 C.2    34  TYR34       0.2619
     81  O         66.4680  -80.8810   66.7660 O.2    34  TYR34      -0.2715
     82  CB        67.3760  -83.6300   66.8830 C.3    34  TYR34       0.0574
     83  CG        68.3840  -83.3050   67.9810 C.ar   34  TYR34      -0.0198
     84  CD1       68.1050  -83.5220   69.3290 C.ar   34  TYR34      -0.0009
     85  CD2       69.6380  -82.8120   67.6500 C.ar   34  TYR34      -0.0009
     86  CE1       69.0620  -83.2380   70.3140 C.ar   34  TYR34       0.0417
     87  CE2       70.5810  -82.5240   68.6130 C.ar   34  TYR34       0.0417
     88  CZ        70.2960  -82.7410   69.9360 C.ar   34  TYR34       0.1957
     89  OH        71.2660  -82.4410   70.8510 O.3    34  TYR34      -0.2866
     90  N         65.3830  -81.4120   68.6570 N.am   35  ILE35      -0.1964
     91  CA        65.5190  -80.0840   69.2330 C.3    35  ILE35       0.1712
     92  C         66.1920  -80.2330   70.5930 C.2    35  ILE35       0.2458
     93  O         65.6050  -80.7860   71.5390 O.2    35  ILE35      -0.2730
     94  CB        64.1550  -79.4070   69.3970 C.3    35  ILE35       0.0289
     95  CG1       63.4050  -79.4210   68.0560 C.3    35  ILE35       0.0022
     96  CG2       64.3280  -77.9930   69.9210 C.3    35  ILE35       0.0023
     97  CD1       62.0790  -78.7110   68.0800 C.3    35  ILE35       0.0001
     98  N         67.4340  -79.7490   70.6940 N.am   36  PRO36      -0.2716
     99  CA        68.1800  -79.8400   71.9500 C.3    36  PRO36       0.1536
    100  C         67.3990  -79.2380   73.1120 C.2    36  PRO36       0.2599
    101  O         66.8160  -78.1530   73.0100 O.2    36  PRO36      -0.2715
    102  CB        69.4360  -79.0130   71.6740 C.3    36  PRO36       0.0310
    103  CG        69.6120  -79.0810   70.1880 C.3    36  PRO36       0.0237
    104  CD        68.2170  -79.1040   69.6260 C.3    36  PRO36       0.0939
    105  N         67.3650  -79.9840   74.2080 N.am   37  THR37      -0.1951
    106  CA        66.6640  -79.5670   75.4070 C.3    37  THR37       0.1897
    107  C         67.4840  -78.5570   76.1960 C.2    37  THR37       0.2313
    108  O         68.7120  -78.6450   76.2580 O.2    37  THR37      -0.2863
    109  CB        66.3730  -80.7790   76.2830 C.3    37  THR37       0.1794
    110  OG1       65.5690  -81.6950   75.5310 O.3    37  THR37      -0.2208
    111  CG2       65.6190  -80.3800   77.5440 C.3    37  THR37       0.0378
    112  N         66.8140  -83.2090   80.9840 N.3    60  THR60      -0.1218
    113  CA        67.9570  -82.3160   81.1070 C.3    60  THR60       0.1862
    114  C         68.6680  -82.1010   79.7800 C.2    60  THR60       0.2287
    115  O         68.3870  -82.7780   78.7890 O.2    60  THR60      -0.2866
    116  CB        68.9760  -82.8220   82.1430 C.3    60  THR60       0.1770
    117  OG1       69.5270  -84.0700   81.7010 O.3    60  THR60      -0.2211
    118  CG2       68.2970  -83.0360   83.4840 C.3    60  THR60       0.0375
    119  N         71.7350  -82.3550   77.3720 N.3    62  GLY62      -0.1210
    120  CA        72.9380  -83.1350   77.1380 C.3    62  GLY62       0.1956
    121  C         74.0930  -82.2520   76.6990 C.2    62  GLY62       0.2611
    122  O         75.2570  -82.5870   76.9450 O.2    62  GLY62      -0.2717
    123  N         73.7760  -81.1260   76.0560 N.am   63  LEU63      -0.1979
    124  CA        74.8050  -80.1980   75.5670 C.3    63  LEU63       0.1596
    125  C         75.5450  -79.5220   76.7260 C.2    63  LEU63       0.2287
    126  O         74.9360  -79.1850   77.7490 O.2    63  LEU63      -0.2864
    127  CB        74.1800  -79.1330   74.6570 C.3    63  LEU63       0.0297
    128  CG        73.4670  -79.5890   73.3740 C.3    63  LEU63       0.0022
    129  CD1       72.8980  -78.4120   72.5770 C.3    63  LEU63       0.0001
    130  CD2       74.4240  -80.3940   72.5190 C.3    63  LEU63       0.0001
    131  N         69.7490  -96.7100   74.8910 N.3   117  THR117     -0.1203
    132  CA        68.6680  -96.1750   74.0680 C.3   117  THR117      0.1994
    133  C         68.8850  -96.5110   72.6030 C.2   117  THR117      0.2617
    134  O         69.9980  -96.8750   72.2120 O.2   117  THR117     -0.2717
    135  CB        68.5490  -94.6460   74.1970 C.3   117  THR117      0.1784
    136  OG1       69.7920  -94.0440   73.8100 O.3   117  THR117     -0.2211
    137  CG2       68.1930  -94.2550   75.6280 C.3   117  THR117      0.0376
    138  N         67.8430  -96.3150   71.7960 N.am  118  LYS118     -0.1979
    139  CA        67.9240  -96.5250   70.3490 C.3   118  LYS118      0.1596
    140  C         68.2870  -97.9750   70.0150 C.2   118  LYS118      0.2287
    141  O         69.1940  -98.2300   69.2100 O.2   118  LYS118     -0.2864
    142  CB        68.9310  -95.5600   69.7000 C.3   118  LYS118      0.0298
    143  CG        68.6150  -94.0870   69.8840 C.3   118  LYS118      0.0038
    144  CD        69.6940  -93.2390   69.2190 C.3   118  LYS118      0.0206
    145  CE        69.4150  -91.7540   69.3640 C.3   118  LYS118      0.1093
    146  NZ        70.4720  -90.9370   68.7030 N.3   118  LYS118     -0.1314
    147  N         66.6290 -100.1040   68.3430 N.3   120  ASP120     -0.1225
    148  CA        66.2650 -100.4630   66.9740 C.3   120  ASP120      0.1805
    149  C         67.3710 -100.1100   65.9950 C.2   120  ASP120      0.2598
    150  O         67.4210 -100.6480   64.8890 O.2   120  ASP120     -0.2718
    151  CB        64.9790  -99.7550   66.5600 C.3   120  ASP120      0.1424
    152  CG        65.1210  -98.2450   66.5870 C.2   120  ASP120      0.3668
    153  OD1       65.0510  -97.6160   65.5040 O.co2 120  ASP120     -0.2456
    154  OD2       65.3400  -97.6940   67.6940 O.co2 120  ASP120     -0.2456
    155  N         68.2980  -99.2630   66.4310 N.am  121  THR121     -0.1953
    156  CA        69.3540  -98.7960   65.5450 C.3   121  THR121      0.1897
    157  C         70.5110  -99.7930   65.5050 C.2   121  THR121      0.2313
    158  O         71.3750  -99.7180   64.6240 O.2   121  THR121     -0.2863
    159  CB        69.8900  -97.4010   65.9680 C.3   121  THR121      0.1794
    160  OG1       70.4760  -97.4780   67.2840 O.3   121  THR121     -0.2208
    161  CG2       68.7630  -96.3600   65.9330 C.3   121  THR121      0.0378
    162  N         63.9580  -98.9610   72.7020 N.3   160  SER160     -0.1202
    163  CA        63.8160  -98.0700   71.5550 C.3   160  SER160      0.2020
    164  C         62.5950  -97.2000   71.7270 C.2   160  SER160      0.2619
    165  O         61.4870  -97.6900   71.9410 O.2   160  SER160     -0.2717
    166  CB        63.6650  -98.8360   70.2450 C.3   160  SER160      0.2103
    167  OG        63.4380  -97.9240   69.1790 O.3   160  SER160     -0.2182
    168  N         62.8080  -95.8990   71.6210 N.am  161  ALA161     -0.1965
    169  CA        61.7080  -94.9750   71.6970 C.3   161  ALA161      0.1728
    170  C         60.9460  -94.9630   70.3810 C.2   161  ALA161      0.2616
    171  O         59.7620  -94.6330   70.3640 O.2   161  ALA161     -0.2715
    172  CB        62.2150  -93.5850   72.0330 C.3   161  ALA161      0.0334
    173  N         61.6200  -95.2910   69.2780 N.am  162  LYS162     -0.1977
    174  CA        60.9520  -95.2920   67.9750 C.3   162  LYS162      0.1596
    175  C         59.8820  -96.3890   67.8660 C.2   162  LYS162      0.2287
    176  O         58.7550  -96.1190   67.4450 O.2   162  LYS162     -0.2864
    177  CB        61.9640  -95.4410   66.8420 C.3   162  LYS162      0.0298
    178  CG        61.2970  -95.7430   65.5140 C.3   162  LYS162      0.0038
    179  CD        62.2920  -95.8580   64.3750 C.3   162  LYS162      0.0206
    180  CE        62.6550  -94.4900   63.8150 C.3   162  LYS162      0.1093
    181  NZ        63.3280  -94.6260   62.4880 N.3   162  LYS162     -0.1314
@<TRIPOS>BOND
     1    69    67   ar
     2    68    67   ar
     3    76    75   ar
     4    67    66    1
     5   181   180    1
     6    77    75   ar
     7    75    74    1
     8    66    65    1
     9   180   179    1
    10    65    62    1
    11   179   178    1
    12    74    71    1
    13    64    63    2
    14   158   157    2
    15    71    70    1
    16    71    72    1
    17    70    63   am
    18    63    62    1
    19   150   149    2
    20    62    61    1
    21   153   152   ar
    22   157   156    1
    23   178   177    1
    24   156   159    1
    25   156   155    1
    26    57    56    2
    27    78    72   am
    28    78    79    1
    29   161   159    1
    30   159   160    1
    31   149   155   am
    32   149   148    1
    33    72    73    2
    34    51    49   ar
    35    51    53   ar
    36    49    48   ar
    37    61    56   am
    38    46    45    2
    39    56    55    1
    40   151   152    1
    41   151   148    1
    42   152   154   ar
    43    81    80    2
    44   177   174    1
    45    82    79    1
    46    82    83    1
    47   148   147    1
    48    53    52   ar
    49    79    80    1
    50   176   175    2
    51    80    90   am
    52    48    47    1
    53    48    50   ar
    54    85    83   ar
    55    85    87   ar
    56    45    54   am
    57    45    44    1
    58    47    44    1
    59   175   174    1
    60    55    54    1
    61    55    58    1
    62   174   173    1
    63    83    84   ar
    64    95    97    1
    65    95    94    1
    66    52    50   ar
    67    54    60    1
    68    44    43    1
    69    87    88   ar
    70    90    91    1
    71   146   145    1
    72    58    59    1
    73   167   166    1
    74   141   140    2
    75   144   145    1
    76   144   143    1
    77    91    94    1
    78    91    92    1
    79   173   170   am
    80    84    86   ar
    81    94    96    1
    82   104   103    1
    83   104    98    1
    84   142   143    1
    85   142   139    1
    86     9     6    1
    87    60    59    1
    88    88    86   ar
    89    88    89    1
    90   140   139    1
    91   103   102    1
    92    42    41    1
    93   166   163    1
    94   139   138    1
    95   171   170    2
    96   170   169    1
    97     8     7    2
    98    92    98   am
    99    92    93    2
   100    98    99    1
   101     6     7    1
   102     6     5    1
   103     7    10   am
   104    41    38    1
   105   163   164    1
   106   163   162    1
   107   168   169    1
   108   168   164   am
   109   102    99    1
   110   169   172    1
   111   164   165    2
   112   138   133   am
   113    99   100    1
   114     4     3    2
   115   134   133    2
   116     5     3   am
   117   130   128    1
   118   129   128    1
   119     3     2    1
   120   133   132    1
   121    10    11    1
   122    13    12    2
   123    38    37    1
   124    38    39    1
   125    12    11    1
   126    12    17   am
   127    11    14    1
   128    18    17    1
   129    18    19    1
   130   101   100    2
   131   100   105   am
   132   128   127    1
   133    37    32   am
   134    40    39    2
   135     2     1    1
   136   136   135    1
   137   132   135    1
   138   132   131    1
   139   135   137    1
   140    19    20    2
   141    19    21   am
   142   105   106    1
   143    15    14    1
   144    14    16    1
   145    36    34    1
   146    34    31    1
   147    34    35    1
   148    32    33    2
   149    32    31    1
   150   127   124    1
   151    21    22    1
   152    31    30    1
   153   106   107    1
   154   106   109    1
   155    30    23   am
   156   110   109    1
   157   124   123    1
   158   124   125    1
   159   123   121   am
   160   107   108    2
   161    23    22    1
   162    23    24    2
   163   109   111    1
   164    22    25    1
   165    29    28    1
   166   121   122    2
   167   121   120    1
   168   125   126    2
   169   120   119    1
   170    25    26    1
   171    26    27    1
   172    28    27    1
   173   115   114    2
   174   114   113    1
   175   112   113    1
   176   113   116    1
   177   117   116    1
   178   116   118    1
