@<TRIPOS>MOLECULE
tmp/4mivG01.pdb
 96 92 0 0 0
SMALL
GASTEIGER

@<TRIPOS>ATOM
      1  N         50.0150   63.0600   47.4050 N.3   124  GLN124     -0.1245
      2  CA        48.6910   63.0390   48.0170 C.3   124  GLN124      0.1566
      3  C         48.1780   64.4410   48.3240 C.2   124  GLN124      0.2260
      4  O         47.0760   64.8100   47.9160 O.2   124  GLN124     -0.2867
      5  CB        48.7160   62.2130   49.3030 C.3   124  GLN124      0.0367
      6  CG        48.8890   60.7220   49.0710 C.3   124  GLN124      0.0905
      7  CD        47.8260   60.1560   48.1490 C.2   124  GLN124      0.2608
      8  OE1       46.6520   60.5160   48.2380 O.2   124  GLN124     -0.2717
      9  NE2       48.2330   59.2680   47.2530 N.am  124  GLN124     -0.0878
     10  N         46.3390   64.8160   44.8030 N.3   128  ASN128     -0.1240
     11  CA        45.0890   64.1340   45.1190 C.3   128  ASN128      0.1653
     12  C         44.0810   65.1270   45.6970 C.2   128  ASN128      0.2266
     13  O         44.0370   65.3490   46.9050 O.2   128  ASN128     -0.2867
     14  CB        45.3450   62.9790   46.0910 C.3   128  ASN128      0.1155
     15  CG        44.0950   62.1690   46.3890 C.2   128  ASN128      0.2627
     16  OD1       42.9760   62.6150   46.1370 O.2   128  ASN128     -0.2716
     17  ND2       44.2850   60.9680   46.9310 N.am  128  ASN128     -0.0877
     18  N         41.0180   65.0710   46.2590 N.3   130  THR130     -0.1203
     19  CA        40.0960   64.5420   47.2570 C.3   130  THR130      0.1994
     20  C         40.7270   64.6390   48.6420 C.2   130  THR130      0.2617
     21  O         40.0910   65.0840   49.5970 O.2   130  THR130     -0.2717
     22  CB        39.7250   63.0780   46.9690 C.3   130  THR130      0.1784
     23  OG1       38.9380   63.0100   45.7740 O.3   130  THR130     -0.2211
     24  CG2       38.9330   62.4910   48.1260 C.3   130  THR130      0.0376
     25  N         41.9830   64.2170   48.7400 N.am  131  ARG131     -0.1979
     26  CA        42.7360   64.3330   49.9780 C.3   131  ARG131      0.1597
     27  C         42.8210   65.7950   50.3980 C.2   131  ARG131      0.2287
     28  O         42.6390   66.1290   51.5690 O.2   131  ARG131     -0.2864
     29  CB        44.1410   63.7660   49.7910 C.3   131  ARG131      0.0334
     30  CG        45.0610   63.9860   50.9770 C.3   131  ARG131      0.0492
     31  CD        44.6790   63.1140   52.1590 C.3   131  ARG131      0.2205
     32  NE        45.5840   63.3200   53.2820 N.pl3 131  ARG131     -0.0865
     33  CZ        45.2440   63.1600   54.5550 C.cat 131  ARG131      0.5346
     34  NH1       44.0100   62.7980   54.8700 N.pl3 131  ARG131      0.1354
     35  NH2       46.1350   63.3730   55.5130 N.pl3 131  ARG131      0.1354
     36  N         39.4950   67.1400   51.7610 N.3   134  LEU134     -0.1245
     37  CA        39.2050   66.6500   53.1020 C.3   134  LEU134      0.1561
     38  C         40.0780   67.3350   54.1460 C.2   134  LEU134      0.2260
     39  O         39.6520   67.5330   55.2830 O.2   134  LEU134     -0.2867
     40  CB        39.3950   65.1330   53.1700 C.3   134  LEU134      0.0270
     41  CG        38.3710   64.3190   52.3740 C.3   134  LEU134      0.0019
     42  CD1       38.7180   62.8380   52.4130 C.3   134  LEU134      0.0001
     43  CD2       36.9630   64.5560   52.8980 C.3   134  LEU134      0.0001
     44  N         47.7430   59.7750   37.0550 N.3   174  PHE174     -0.1227
     45  CA        47.5910   59.4880   38.4740 C.3   174  PHE174      0.1736
     46  C         46.1430   59.6750   38.9160 C.2   174  PHE174      0.2596
     47  O         45.5830   60.7640   38.7920 O.2   174  PHE174     -0.2718
     48  CB        48.5130   60.3940   39.2930 C.3   174  PHE174      0.0547
     49  CG        48.2280   60.3810   40.7680 C.ar  174  PHE174     -0.0202
     50  CD1       48.4880   59.2530   41.5300 C.ar  174  PHE174     -0.0042
     51  CD2       47.7090   61.5030   41.3940 C.ar  174  PHE174     -0.0042
     52  CE1       48.2280   59.2430   42.8890 C.ar  174  PHE174     -0.0003
     53  CE2       47.4480   61.4990   42.7510 C.ar  174  PHE174     -0.0003
     54  CZ        47.7080   60.3670   43.5010 C.ar  174  PHE174     -0.0000
     55  N         45.5400   58.6020   39.4210 N.am  175  GLY175     -0.1957
     56  CA        44.1810   58.6550   39.9560 C.3   175  GLY175      0.1869
     57  C         43.0990   58.6690   38.8910 C.2   175  GLY175      0.2309
     58  O         41.9540   59.0290   39.1670 O.2   175  GLY175     -0.2863
     59  N         47.0110   53.0850   38.6700 N.3   181  MET181     -0.1230
     60  CA        46.9340   54.5370   38.7780 C.3   181  MET181      0.1702
     61  C         46.1770   54.9800   40.0280 C.2   181  MET181      0.2593
     62  O         46.4010   56.0730   40.5430 O.2   181  MET181     -0.2718
     63  CB        46.2610   55.1200   37.5330 C.3   181  MET181      0.0401
     64  CG        46.9320   54.7260   36.2260 C.3   181  MET181      0.0596
     65  SD        48.6640   55.2130   36.1460 S.3   181  MET181     -0.1393
     66  CE        49.1990   54.3040   34.6990 C.3   181  MET181      0.0692
     67  N         45.2820   54.1270   40.5140 N.am  182  GLY182     -0.1942
     68  CA        44.4460   54.4680   41.6590 C.3   182  GLY182      0.2014
     69  C         43.2620   55.3110   41.2250 C.2   182  GLY182      0.2639
     70  O         43.0580   55.5380   40.0320 O.2   182  GLY182     -0.2714
     71  N         42.4810   55.7800   42.1930 N.am  183  ARG183     -0.1963
     72  CA        41.3030   56.5860   41.8900 C.3   183  ARG183      0.1729
     73  C         41.1830   57.8100   42.8030 C.2   183  ARG183      0.2616
     74  O         41.3820   57.7210   44.0170 O.2   183  ARG183     -0.2715
     75  CB        40.0360   55.7300   41.9960 C.3   183  ARG183      0.0348
     76  CG        38.7530   56.4810   41.7030 C.3   183  ARG183      0.0492
     77  CD        38.7090   56.9250   40.2470 C.3   183  ARG183      0.2205
     78  NE        37.3790   57.3820   39.8700 N.pl3 183  ARG183     -0.0865
     79  CZ        37.1290   58.5250   39.2480 C.cat 183  ARG183      0.5346
     80  NH1       38.1310   59.2730   38.8140 N.pl3 183  ARG183      0.1354
     81  NH2       35.8740   58.9000   39.0330 N.pl3 183  ARG183      0.1354
     82  N         40.8690   58.9540   42.2010 N.am  184  ILE184     -0.1964
     83  CA        40.5250   60.1570   42.9480 C.3   184  ILE184      0.1712
     84  C         39.0520   60.4620   42.7030 C.2   184  ILE184      0.2458
     85  O         38.6980   61.0750   41.6980 O.2   184  ILE184     -0.2730
     86  CB        41.3800   61.3580   42.5120 C.3   184  ILE184      0.0289
     87  CG1       42.8630   61.0530   42.7220 C.3   184  ILE184      0.0022
     88  CG2       40.9860   62.6050   43.2900 C.3   184  ILE184      0.0023
     89  CD1       43.7860   62.1010   42.1410 C.3   184  ILE184      0.0001
     90  N         38.1860   60.0260   43.6290 N.am  185  PRO185     -0.2727
     91  CA        36.7310   60.0590   43.4600 C.3   185  PRO185      0.1402
     92  C         36.1850   61.4050   42.9840 C.2   185  PRO185      0.2269
     93  O         35.2630   61.4400   42.1690 O.2   185  PRO185     -0.2865
     94  CB        36.1940   59.7260   44.8640 C.3   185  PRO185      0.0296
     95  CG        37.3710   59.7510   45.7860 C.3   185  PRO185      0.0237
     96  CD        38.5770   59.4870   44.9410 C.3   185  PRO185      0.0939
@<TRIPOS>BOND
     1    66    65    1
     2    65    64    1
     3    64    63    1
     4    44    45    1
     5    63    60    1
     6    45    46    1
     7    45    48    1
     8    59    60    1
     9    60    61    1
    10    47    46    2
    11    80    79    1
    12    57    58    2
    13    57    56    1
    14    46    55   am
    15    81    79    1
    16    79    78    2
    17    48    49    1
    18    55    56    1
    19    78    77    1
    20    61    67   am
    21    61    62    2
    22    70    69    2
    23    77    76    1
    24    67    68    1
    25    49    51   ar
    26    49    50   ar
    27    69    68    1
    28    69    71   am
    29    51    53   ar
    30    50    52   ar
    31    85    84    2
    32    76    75    1
    33    72    75    1
    34    72    71    1
    35    72    73    1
    36    89    87    1
    37    93    92    2
    38    82    73   am
    39    82    83    1
    40    86    87    1
    41    86    83    1
    42    86    88    1
    43    84    83    1
    44    84    90   am
    45    53    54   ar
    46    73    74    2
    47    52    54   ar
    48    92    91    1
    49    91    90    1
    50    91    94    1
    51    90    96    1
    52    10    11    1
    53    94    95    1
    54    96    95    1
    55    11    12    1
    56    11    14    1
    57    12    13    2
    58    23    22    1
    59    14    15    1
    60    16    15    2
    61    18    19    1
    62    15    17   am
    63    22    19    1
    64    22    24    1
    65     9     7   am
    66    19    20    1
    67     1     2    1
    68     4     3    2
    69     2     3    1
    70     2     5    1
    71     7     8    2
    72     7     6    1
    73    20    25   am
    74    20    21    2
    75    25    26    1
    76     6     5    1
    77    29    26    1
    78    29    30    1
    79    26    27    1
    80    27    28    2
    81    30    31    1
    82    36    37    1
    83    31    32    1
    84    41    42    1
    85    41    43    1
    86    41    40    1
    87    37    40    1
    88    37    38    1
    89    32    33    2
    90    38    39    2
    91    33    34    1
    92    33    35    1
