@<TRIPOS>MOLECULE
tmp/4mivA01.pdb
 96 92 0 0 0
SMALL
GASTEIGER

@<TRIPOS>ATOM
      1  N         22.4070  116.6930   59.2550 N.3   125  GLN125     -0.1245
      2  CA        21.3900  116.8750   60.2880 C.3   125  GLN125      0.1566
      3  C         20.9930  118.3370   60.4580 C.2   125  GLN125      0.2260
      4  O         19.8100  118.6770   60.4280 O.2   125  GLN125     -0.2867
      5  CB        21.8870  116.3260   61.6280 C.3   125  GLN125      0.0367
      6  CG        21.9890  114.8140   61.6650 C.3   125  GLN125      0.0905
      7  CD        20.6760  114.1460   61.3260 C.2   125  GLN125      0.2608
      8  OE1       19.6090  114.5860   61.7590 O.2   125  GLN125     -0.2717
      9  NE2       20.7460  113.0760   60.5480 N.am  125  GLN125     -0.0878
     10  N         17.9920  118.1590   57.8770 N.3   129  ASN129     -0.1240
     11  CA        16.9570  117.6250   58.7570 C.3   129  ASN129      0.1653
     12  C         16.2060  118.7580   59.4540 C.2   129  ASN129      0.2266
     13  O         16.5990  119.2100   60.5260 O.2   129  ASN129     -0.2867
     14  CB        17.5720  116.6710   59.7810 C.3   129  ASN129      0.1155
     15  CG        16.5370  116.0160   60.6690 C.2   129  ASN129      0.2627
     16  OD1       15.3970  116.4740   60.7700 O.2   129  ASN129     -0.2716
     17  ND2       16.9350  114.9320   61.3230 N.am  129  ASN129     -0.0877
     18  N         13.5620  119.0120   61.1020 N.3   131  THR131     -0.1203
     19  CA        13.0890  118.7600   62.4550 C.3   131  THR131      0.1994
     20  C         14.1880  119.0920   63.4680 C.2   131  THR131      0.2617
     21  O         13.9430  119.7590   64.4770 O.2   131  THR131     -0.2717
     22  CB        12.6570  117.2960   62.6380 C.3   131  THR131      0.1784
     23  OG1       11.4840  117.0380   61.8520 O.3   131  THR131     -0.2211
     24  CG2       12.3530  117.0100   64.0980 C.3   131  THR131      0.0376
     25  N         15.3990  118.6180   63.1910 N.am  132  ARG132     -0.1979
     26  CA        16.5550  118.9150   64.0250 C.3   132  ARG132      0.1597
     27  C         16.7590  120.4240   64.0690 C.2   132  ARG132      0.2287
     28  O         16.9990  121.0010   65.1320 O.2   132  ARG132     -0.2864
     29  CB        17.7970  118.2300   63.4440 C.3   132  ARG132      0.0334
     30  CG        19.1320  118.6240   64.0550 C.3   132  ARG132      0.0492
     31  CD        19.5560  117.7260   65.2070 C.3   132  ARG132      0.2205
     32  NE        19.0440  118.1470   66.5030 N.pl3 132  ARG132     -0.0865
     33  CZ        19.8130  118.5600   67.5090 C.cat 132  ARG132      0.5346
     34  NH1       21.1340  118.6240   67.3700 N.pl3 132  ARG132      0.1354
     35  NH2       19.2530  118.9100   68.6610 N.pl3 132  ARG132      0.1354
     36  N         14.1160  122.2220   66.2470 N.3   135  LEU135     -0.1245
     37  CA        14.3620  122.0430   67.6720 C.3   135  LEU135      0.1561
     38  C         15.5560  122.8700   68.1520 C.2   135  LEU135      0.2260
     39  O         15.5830  123.3210   69.2970 O.2   135  LEU135     -0.2867
     40  CB        14.5890  120.5640   67.9840 C.3   135  LEU135      0.0270
     41  CG        13.3540  119.6760   67.8060 C.3   135  LEU135      0.0019
     42  CD1       13.7070  118.2120   68.0180 C.3   135  LEU135      0.0001
     43  CD2       12.2360  120.1040   68.7510 C.3   135  LEU135      0.0001
     44  N         16.5210  111.5330   51.4320 N.3   175  PHE175     -0.1227
     45  CA        16.9020  111.5440   52.8330 C.3   175  PHE175      0.1736
     46  C         15.7100  111.9220   53.7120 C.2   175  PHE175      0.2596
     47  O         15.1420  113.0040   53.5690 O.2   175  PHE175     -0.2718
     48  CB        18.0560  112.5270   53.0400 C.3   175  PHE175      0.0547
     49  CG        18.3360  112.8400   54.4760 C.ar  175  PHE175     -0.0202
     50  CD1       18.8740  111.8780   55.3130 C.ar  175  PHE175     -0.0042
     51  CD2       18.0710  114.0990   54.9870 C.ar  175  PHE175     -0.0042
     52  CE1       19.1350  112.1650   56.6370 C.ar  175  PHE175     -0.0003
     53  CE2       18.3290  114.3930   56.3090 C.ar  175  PHE175     -0.0003
     54  CZ        18.8630  113.4250   57.1350 C.ar  175  PHE175     -0.0000
     55  N         15.3350  111.0190   54.6140 N.am  176  GLY176     -0.1957
     56  CA        14.2760  111.2840   55.5800 C.3   176  GLY176      0.1869
     57  C         12.8800  111.1660   54.9980 C.2   176  GLY176      0.2309
     58  O         11.9160  111.6550   55.5840 O.2   176  GLY176     -0.2863
     59  N         16.4110  105.3610   54.6050 N.3   182  MET182     -0.1230
     60  CA        16.4030  106.8080   54.4110 C.3   182  MET182      0.1702
     61  C         16.1510  107.5470   55.7200 C.2   182  MET182      0.2593
     62  O         16.5560  108.7010   55.8840 O.2   182  MET182     -0.2718
     63  CB        15.3330  107.1930   53.3890 C.3   182  MET182      0.0401
     64  CG        15.4910  106.4990   52.0450 C.3   182  MET182      0.0596
     65  SD        17.1010  106.8040   51.2870 S.3   182  MET182     -0.1393
     66  CE        17.0710  105.5970   49.9640 C.3   182  MET182      0.0692
     67  N         15.4810  106.8740   56.6500 N.am  183  GLY183     -0.1942
     68  CA        15.1340  107.4800   57.9220 C.3   183  GLY183      0.2014
     69  C         13.8930  108.3290   57.7690 C.2   183  GLY183      0.2639
     70  O         13.2630  108.3350   56.7130 O.2   183  GLY183     -0.2714
     71  N         13.5440  109.0560   58.8230 N.am  184  ARG184     -0.1963
     72  CA        12.3350  109.8640   58.8120 C.3   184  ARG184      0.1729
     73  C         12.5670  111.2420   59.4220 C.2   184  ARG184      0.2616
     74  O         13.2250  111.3800   60.4580 O.2   184  ARG184     -0.2715
     75  CB        11.2080  109.1470   59.5650 C.3   184  ARG184      0.0348
     76  CG         9.9040  109.9180   59.6110 C.3   184  ARG184      0.0492
     77  CD         9.3100  110.0550   58.2160 C.3   184  ARG184      0.2205
     78  NE         7.9320  110.5250   58.2690 N.pl3 184  ARG184     -0.0865
     79  CZ         7.4570  111.5310   57.5500 C.cat 184  ARG184      0.5346
     80  NH1        8.2150  112.0950   56.6220 N.pl3 184  ARG184      0.1354
     81  NH2        6.2110  111.9490   57.7390 N.pl3 184  ARG184      0.1354
     82  N         12.0240  112.2560   58.7560 N.am  185  ILE185     -0.1964
     83  CA        11.9680  113.6010   59.3020 C.3   185  ILE185      0.1712
     84  C         10.5010  113.9420   59.5500 C.2   185  ILE185      0.2458
     85  O          9.7940  114.3600   58.6330 O.2   185  ILE185     -0.2730
     86  CB        12.5900  114.6270   58.3390 C.3   185  ILE185      0.0289
     87  CG1       14.0520  114.2730   58.0530 C.3   185  ILE185      0.0022
     88  CG2       12.4930  116.0240   58.9260 C.3   185  ILE185      0.0023
     89  CD1       14.6830  115.1200   56.9700 C.3   185  ILE185      0.0001
     90  N         10.0370  113.7540   60.7960 N.am  186  PRO186     -0.2727
     91  CA         8.6200  113.8410   61.1740 C.3   186  PRO186      0.1402
     92  C          7.9070  115.0950   60.6710 C.2   186  PRO186      0.2269
     93  O          6.7420  115.0240   60.2830 O.2   186  PRO186     -0.2865
     94  CB         8.6510  113.8290   62.7120 C.3   186  PRO186      0.0296
     95  CG        10.0850  113.9650   63.1060 C.3   186  PRO186      0.0237
     96  CD        10.8970  113.4640   61.9540 C.3   186  PRO186      0.0939
@<TRIPOS>BOND
     1    66    65    1
     2    65    64    1
     3    44    45    1
     4    64    63    1
     5    45    48    1
     6    45    46    1
     7    48    49    1
     8    63    60    1
     9    47    46    2
    10    46    55   am
    11    60    59    1
    12    60    61    1
    13    49    51   ar
    14    49    50   ar
    15    55    56    1
    16    51    53   ar
    17    57    56    1
    18    57    58    2
    19    50    52   ar
    20    61    62    2
    21    61    67   am
    22    53    54   ar
    23    80    79    1
    24    52    54   ar
    25    67    68    1
    26    70    69    2
    27    89    87    1
    28    79    81    1
    29    79    78    2
    30    69    68    1
    31    69    71   am
    32    10    11    1
    33    87    86    1
    34    77    78    1
    35    77    76    1
    36    86    88    1
    37    86    83    1
    38    85    84    2
    39    82    83    1
    40    82    73   am
    41    11    12    1
    42    11    14    1
    43    72    71    1
    44    72    73    1
    45    72    75    1
    46     1     2    1
    47    83    84    1
    48    73    74    2
    49    12    13    2
    50    84    90   am
    51    75    76    1
    52    14    15    1
    53    93    92    2
    54     2     3    1
    55     2     5    1
    56     4     3    2
    57     9     7   am
    58    15    16    2
    59    15    17   am
    60    92    91    1
    61    90    91    1
    62    90    96    1
    63    18    19    1
    64    91    94    1
    65     7     6    1
    66     7     8    2
    67     5     6    1
    68    23    22    1
    69    96    95    1
    70    19    22    1
    71    19    20    1
    72    22    24    1
    73    94    95    1
    74    25    20   am
    75    25    26    1
    76    29    26    1
    77    29    30    1
    78    20    21    2
    79    26    27    1
    80    30    31    1
    81    27    28    2
    82    31    32    1
    83    36    37    1
    84    32    33    2
    85    34    33    1
    86    33    35    1
    87    37    40    1
    88    37    38    1
    89    41    40    1
    90    41    42    1
    91    41    43    1
    92    38    39    2
