@<TRIPOS>MOLECULE
tmp/4mixB00.pdb
 179 174 0 0 0
SMALL
GASTEIGER

@<TRIPOS>ATOM
      1  N         14.7040   21.1990  -13.9740 N.3    37  ILE37      -0.1231
      2  CA        16.1310   21.0970  -13.6280 C.3    37  ILE37       0.1692
      3  C         16.6900   22.4770  -13.3320 C.2    37  ILE37       0.2592
      4  O         16.5950   23.3980  -14.1620 O.2    37  ILE37      -0.2718
      5  CB        16.9460   20.4330  -14.7690 C.3    37  ILE37       0.0266
      6  CG1       16.6060   18.9380  -14.8980 C.3    37  ILE37       0.0019
      7  CG2       18.4660   20.6500  -14.5800 C.3    37  ILE37       0.0020
      8  CD1       17.1190   18.3020  -16.2070 C.3    37  ILE37       0.0001
      9  N         17.2900   22.6130  -12.1530 N.am   38  TRP38      -0.1962
     10  CA        18.1640   23.7360  -11.8940 C.3    38  TRP38       0.1771
     11  C         19.4110   23.2280  -11.1820 C.2    38  TRP38       0.2619
     12  O         19.4580   23.0640   -9.9340 O.2    38  TRP38      -0.2715
     13  CB        17.4640   24.8750  -11.1200 C.3    38  TRP38       0.0590
     14  CG        18.2660   26.1380  -11.1630 C.ar   38  TRP38       0.0006
     15  CD1       18.9300   26.7270  -10.1190 C.ar   38  TRP38       0.0946
     16  CD2       18.5450   26.9420  -12.3210 C.ar   38  TRP38       0.0152
     17  NE1       19.5820   27.8530  -10.5560 N.ar   38  TRP38      -0.2442
     18  CE2       19.3690   28.0010  -11.9050 C.ar   38  TRP38       0.0810
     19  CE3       18.1820   26.8570  -13.6720 C.ar   38  TRP38       0.0012
     20  CZ2       19.8330   28.9890  -12.7900 C.ar   38  TRP38       0.0191
     21  CZ3       18.6560   27.8300  -14.5600 C.ar   38  TRP38       0.0001
     22  CH2       19.4740   28.8830  -14.1140 C.ar   38  TRP38       0.0015
     23  N         20.4220   22.9650  -11.9960 N.am   39  ILE39      -0.1963
     24  CA        21.6880   22.4600  -11.5230 C.3    39  ILE39       0.1727
     25  C         22.7290   23.5760  -11.6070 C.2    39  ILE39       0.2616
     26  O         22.5460   24.5600  -12.3090 O.2    39  ILE39      -0.2715
     27  CB        22.2040   21.2540  -12.3720 C.3    39  ILE39       0.0290
     28  CG1       22.2910   21.6190  -13.8760 C.3    39  ILE39       0.0022
     29  CG2       21.3410   20.0080  -12.1870 C.3    39  ILE39       0.0023
     30  CD1       22.9210   20.5190  -14.7160 C.3    39  ILE39       0.0001
     31  N         23.8550   23.4110  -10.9280 N.am   40  GLY40      -0.1955
     32  CA        24.9350   24.3750  -11.1240 C.3    40  GLY40       0.1869
     33  C         25.2070   25.1720   -9.8650 C.2    40  GLY40       0.2309
     34  O         24.9900   24.6880   -8.7650 O.2    40  GLY40      -0.2863
     35  N         24.7050   28.9590   -9.7320 N.3    42  LYS42      -0.1245
     36  CA        24.0720   30.2550   -9.6170 C.3    42  LYS42       0.1561
     37  C         22.6510   30.0890   -9.0810 C.2    42  LYS42       0.2260
     38  O         22.0010   29.0680   -9.3050 O.2    42  LYS42      -0.2867
     39  CB        24.1460   31.0640  -10.9260 C.3    42  LYS42       0.0271
     40  CG        23.1760   30.6660  -12.0270 C.3    42  LYS42       0.0035
     41  CD        23.2260   31.7140  -13.1290 C.3    42  LYS42       0.0206
     42  CE        22.4160   31.3150  -14.3480 C.3    42  LYS42       0.1093
     43  NZ        22.9440   32.0090  -15.5590 N.3    42  LYS42      -0.1314
     44  N         26.2900   23.8850  -17.6890 N.3   122  TYR122     -0.1227
     45  CA        25.0540   23.3730  -17.0990 C.3   122  TYR122      0.1736
     46  C         23.9020   23.2450  -18.0690 C.2   122  TYR122      0.2595
     47  O         23.1920   22.2670  -18.0150 O.2   122  TYR122     -0.2718
     48  CB        24.6650   24.1700  -15.8500 C.3   122  TYR122      0.0548
     49  CG        25.8450   24.2920  -14.9100 C.ar  122  TYR122     -0.0200
     50  CD1       26.4970   23.1520  -14.4380 C.ar  122  TYR122     -0.0009
     51  CD2       26.3230   25.5450  -14.5070 C.ar  122  TYR122     -0.0009
     52  CE1       27.5980   23.2540  -13.5860 C.ar  122  TYR122      0.0417
     53  CE2       27.4430   25.6520  -13.6610 C.ar  122  TYR122      0.0417
     54  CZ        28.0640   24.5080  -13.2090 C.ar  122  TYR122      0.1957
     55  OH        29.1500   24.5730  -12.3810 O.3   122  TYR122     -0.2866
     56  N         23.7300   24.2240  -18.9540 N.am  123  ALA123     -0.1966
     57  CA        22.6400   24.1850  -19.9460 C.3   123  ALA123      0.1728
     58  C         22.7670   22.9610  -20.8850 C.2   123  ALA123      0.2616
     59  O         21.8080   22.1820  -21.0400 O.2   123  ALA123     -0.2715
     60  CB        22.5750   25.4840  -20.7080 C.3   123  ALA123      0.0334
     61  N         23.9660   22.7640  -21.4350 N.am  124  GLN124     -0.1977
     62  CA        24.3310   21.5650  -22.2020 C.3   124  GLN124      0.1601
     63  C         24.1040   20.2290  -21.4620 C.2   124  GLN124      0.2287
     64  O         23.5420   19.2780  -22.0050 O.2   124  GLN124     -0.2864
     65  CB        25.8020   21.6620  -22.6710 C.3   124  GLN124      0.0394
     66  CG        26.2460   20.5140  -23.5710 C.3   124  GLN124      0.0908
     67  CD        27.6860   20.6990  -24.0390 C.2   124  GLN124      0.2608
     68  OE1       28.1500   21.8260  -24.1730 O.2   124  GLN124     -0.2717
     69  NE2       28.3940   19.6010  -24.2620 N.am  124  GLN124     -0.0878
     70  N         22.0370   19.6000  -19.0760 N.3   126  SER126     -0.1202
     71  CA        20.5800   19.3960  -18.8650 C.3   126  SER126      0.2020
     72  C         19.8920   18.7190  -20.0540 C.2   126  SER126      0.2618
     73  O         18.8140   18.1550  -19.8900 O.2   126  SER126     -0.2717
     74  CB        19.8910   20.7290  -18.5350 C.3   126  SER126      0.2103
     75  OG        19.6100   21.4480  -19.7390 O.3   126  SER126     -0.2182
     76  N         20.4930   18.7950  -21.2530 N.am  127  ASP127     -0.1973
     77  CA        19.9780   18.0680  -22.4140 C.3   127  ASP127      0.1709
     78  C         20.1220   16.5420  -22.2140 C.2   127  ASP127      0.2293
     79  O         19.2460   15.7770  -22.6360 O.2   127  ASP127     -0.2864
     80  CB        20.7040   18.4690  -23.7080 C.3   127  ASP127      0.1436
     81  CG        20.2880   19.8300  -24.2360 C.2   127  ASP127      0.3671
     82  OD1       19.2800   20.4080  -23.7450 O.co2 127  ASP127     -0.2456
     83  OD2       20.9990   20.3430  -25.1490 O.co2 127  ASP127     -0.2456
     84  N         17.9030   15.5620  -18.6240 N.3   130  ARG130     -0.1245
     85  CA        16.4280   15.4530  -18.8130 C.3   130  ARG130      0.1563
     86  C         16.0160   14.0940  -19.3980 C.2   130  ARG130      0.2260
     87  O         14.9680   13.5430  -19.0350 O.2   130  ARG130     -0.2867
     88  CB        15.8800   16.5930  -19.6730 C.3   130  ARG130      0.0307
     89  CG        16.2300   16.4590  -21.1590 C.3   130  ARG130      0.0489
     90  CD        15.7930   17.6920  -21.9250 C.3   130  ARG130      0.2205
     91  NE        16.5570   18.8570  -21.5020 N.pl3 130  ARG130     -0.0865
     92  CZ        16.3090   20.1120  -21.8740 C.cat 130  ARG130      0.5346
     93  NH1       15.2960   20.3960  -22.7060 N.pl3 130  ARG130      0.1354
     94  NH2       17.0630   21.0900  -21.4130 N.pl3 130  ARG130      0.1354
     95  N          8.8110   16.5380  -18.6180 N.3   141  TYR141     -0.1241
     96  CA         9.8880   17.5030  -18.4640 C.3   141  TYR141      0.1605
     97  C          9.4370   18.8570  -18.9900 C.2   141  TYR141      0.2264
     98  O          8.8880   18.9360  -20.0870 O.2   141  TYR141     -0.2867
     99  CB        11.1850   17.0830  -19.1870 C.3   141  TYR141      0.0534
    100  CG        12.2330   18.1540  -19.0640 C.ar  141  TYR141     -0.0201
    101  CD1       13.0060   18.2630  -17.8980 C.ar  141  TYR141     -0.0009
    102  CD2       12.4240   19.0920  -20.0740 C.ar  141  TYR141     -0.0009
    103  CE1       13.9640   19.2690  -17.7620 C.ar  141  TYR141      0.0417
    104  CE2       13.3770   20.0990  -19.9430 C.ar  141  TYR141      0.0417
    105  CZ        14.1370   20.1820  -18.7820 C.ar  141  TYR141      0.1957
    106  OH        15.0680   21.1750  -18.6450 O.3   141  TYR141     -0.2866
    107  N         10.9650   23.1380  -19.0330 N.3   143  ASP143     -0.1225
    108  CA        12.0160   24.1440  -18.7680 C.3   143  ASP143      0.1805
    109  C         11.6580   25.0190  -17.5850 C.2   143  ASP143      0.2598
    110  O         10.4860   25.3340  -17.3750 O.2   143  ASP143     -0.2718
    111  CB        12.2200   25.0580  -19.9700 C.3   143  ASP143      0.1424
    112  CG        13.2470   24.5280  -20.9560 C.2   143  ASP143      0.3668
    113  OD1       13.9710   23.5390  -20.6640 O.co2 143  ASP143     -0.2456
    114  OD2       13.3300   25.1310  -22.0440 O.co2 143  ASP143     -0.2456
    115  N         12.6740   25.4150  -16.8190 N.am  144  ILE144     -0.1966
    116  CA        12.4870   26.2340  -15.6230 C.3   144  ILE144      0.1727
    117  C         11.9760   27.6600  -15.9300 C.2   144  ILE144      0.2616
    118  O         11.3180   28.2910  -15.0920 O.2   144  ILE144     -0.2715
    119  CB        13.7870   26.2550  -14.7650 C.3   144  ILE144      0.0290
    120  CG1       13.4770   26.5750  -13.3040 C.3   144  ILE144      0.0022
    121  CG2       14.8420   27.1970  -15.3240 C.3   144  ILE144      0.0023
    122  CD1       13.1730   25.3610  -12.4670 C.3   144  ILE144      0.0001
    123  N         12.2710   28.1560  -17.1340 N.am  145  ASP145     -0.1971
    124  CA        11.9610   29.5390  -17.4940 C.3   145  ASP145      0.1709
    125  C         10.6640   29.6560  -18.2850 C.2   145  ASP145      0.2293
    126  O         10.3190   30.7410  -18.7570 O.2   145  ASP145     -0.2864
    127  CB        13.1290   30.1910  -18.2500 C.3   145  ASP145      0.1436
    128  CG        13.6130   29.3550  -19.4200 C.2   145  ASP145      0.3671
    129  OD1       14.1760   28.2590  -19.2000 O.co2 145  ASP145     -0.2456
    130  OD2       13.4470   29.8030  -20.5710 O.co2 145  ASP145     -0.2456
    131  N          9.1030   23.2730  -34.8540 N.3   166  TYR166     -0.1241
    132  CA         9.4080   24.6860  -35.0410 C.3   166  TYR166      0.1605
    133  C          8.8550   25.1630  -36.3790 C.2   166  TYR166      0.2264
    134  O          8.8780   24.4110  -37.3550 O.2   166  TYR166     -0.2867
    135  CB        10.9220   24.9110  -35.0030 C.3   166  TYR166      0.0534
    136  CG        11.5420   24.7130  -33.6330 C.ar  166  TYR166     -0.0201
    137  CD1       11.2560   25.5890  -32.5840 C.ar  166  TYR166     -0.0009
    138  CD2       12.4270   23.6620  -33.3920 C.ar  166  TYR166     -0.0009
    139  CE1       11.8210   25.4140  -31.3310 C.ar  166  TYR166      0.0417
    140  CE2       13.0020   23.4780  -32.1440 C.ar  166  TYR166      0.0417
    141  CZ        12.6910   24.3550  -31.1200 C.ar  166  TYR166      0.1957
    142  OH        13.2550   24.1860  -29.8830 O.3   166  TYR166     -0.2866
    143  N         12.9270   19.8680  -27.6000 N.3   174  ASN174     -0.1225
    144  CA        13.1700   18.8390  -26.5790 C.3   174  ASN174      0.1785
    145  C         12.6350   19.2970  -25.2180 C.2   174  ASN174      0.2597
    146  O         13.1190   18.8810  -24.1680 O.2   174  ASN174     -0.2718
    147  CB        14.6620   18.4330  -26.5180 C.3   174  ASN174      0.1169
    148  CG        15.5810   19.5750  -26.0890 C.2   174  ASN174      0.2627
    149  OD1       15.2360   20.7700  -26.1930 O.2   174  ASN174     -0.2716
    150  ND2       16.7630   19.2100  -25.5870 N.am  174  ASN174     -0.0877
    151  N         11.6190   20.1630  -25.2690 N.am  175  THR175     -0.1953
    152  CA        10.8640   20.6390  -24.1080 C.3   175  THR175      0.1897
    153  C          9.5860   21.3620  -24.5890 C.2   175  THR175      0.2313
    154  O          9.6190   22.0270  -25.6150 O.2   175  THR175     -0.2863
    155  CB        11.7070   21.5600  -23.1870 C.3   175  THR175      0.1794
    156  OG1       10.9250   21.9290  -22.0410 O.3   175  THR175     -0.2208
    157  CG2       12.1940   22.8300  -23.9290 C.3   175  THR175      0.0378
    158  N         26.6750   22.2710  -30.2030 N.3   204  VAL204     -0.1231
    159  CA        26.0120   21.8540  -28.9570 C.3   204  VAL204      0.1692
    160  C         24.5890   21.3310  -29.1710 C.2   204  VAL204      0.2591
    161  O         24.2120   20.3220  -28.5630 O.2   204  VAL204     -0.2718
    162  CB        26.0730   22.9690  -27.8780 C.3   204  VAL204      0.0266
    163  CG1       25.4250   22.5230  -26.5880 C.3   204  VAL204      0.0020
    164  CG2       27.5200   23.3820  -27.6260 C.3   204  VAL204      0.0020
    165  N         23.8190   21.9640  -30.0620 N.am  205  LEU205     -0.1980
    166  CA        22.4890   21.4670  -30.3990 C.3   205  LEU205      0.1596
    167  C         22.5280   20.0940  -31.0780 C.2   205  LEU205      0.2287
    168  O         21.5410   19.3730  -31.0460 O.2   205  LEU205     -0.2864
    169  CB        21.6980   22.4660  -31.2690 C.3   205  LEU205      0.0297
    170  CG        21.2130   23.8020  -30.6730 C.3   205  LEU205      0.0022
    171  CD1       20.0140   24.2900  -31.4720 C.3   205  LEU205      0.0001
    172  CD2       20.8480   23.7330  -29.1890 C.3   205  LEU205      0.0001
    173  N         17.4880   19.3750  -29.7690 N.3   210  PRO210     -0.2116
    174  CA        16.2490   19.1830  -30.5360 C.3   210  PRO210      0.1372
    175  C         16.4530   18.4460  -31.8600 C.2   210  PRO210      0.2244
    176  O         15.5860   17.6800  -32.2700 O.2   210  PRO210     -0.2868
    177  CB        15.7970   20.6200  -30.8210 C.3   210  PRO210      0.0268
    178  CG        16.3540   21.4070  -29.6940 C.3   210  PRO210      0.0207
    179  CD        17.6860   20.7910  -29.4000 C.3   210  PRO210      0.0892
@<TRIPOS>BOND
     1   134   133    2
     2   133   132    1
     3   132   135    1
     4   132   131    1
     5   135   136    1
     6   136   138   ar
     7   136   137   ar
     8   138   140   ar
     9   137   139   ar
    10   176   175    2
    11   140   141   ar
    12   175   174    1
    13   171   170    1
    14   139   141   ar
    15   169   170    1
    16   169   166    1
    17   141   142    1
    18   167   168    2
    19   167   166    1
    20   177   174    1
    21   177   178    1
    22   170   172    1
    23   174   173    1
    24   166   165    1
    25   158   159    1
    26   165   160   am
    27   173   179    1
    28   178   179    1
    29   160   159    1
    30   160   161    2
    31   159   162    1
    32   162   164    1
    33   162   163    1
    34   143   144    1
    35   144   147    1
    36   144   145    1
    37   147   148    1
    38   149   148    2
    39   148   150   am
    40   154   153    2
    41   151   145   am
    42   151   152    1
    43   145   146    2
    44    83    81   ar
    45   153   152    1
    46    69    67   am
    47    81    82   ar
    48    81    80    1
    49    68    67    2
    50   152   155    1
    51    67    66    1
    52   157   155    1
    53    80    77    1
    54    66    65    1
    55   155   156    1
    56    93    92    1
    57    65    62    1
    58    79    78    2
    59    77    78    1
    60    77    76    1
    61    62    63    1
    62    62    61    1
    63   114   112   ar
    64    64    63    2
    65    90    91    1
    66    90    89    1
    67    92    91    2
    68    92    94    1
    69    61    58   am
    70    76    72   am
    71    89    88    1
    72    59    58    2
    73   112   113   ar
    74   112   111    1
    75    58    57    1
    76    60    57    1
    77   130   128   ar
    78    98    97    2
    79   102   104   ar
    80   102   100   ar
    81    72    73    2
    82    72    71    1
    83   111   108    1
    84    57    56    1
    85   104   105   ar
    86    75    74    1
    87    88    85    1
    88   128   129   ar
    89   128   127    1
    90    86    87    2
    91    86    85    1
    92    99   100    1
    93    99    96    1
    94    70    71    1
    95   100   101   ar
    96   107   108    1
    97    97    96    1
    98    56    46   am
    99    71    74    1
   100    85    84    1
   101   105   106    1
   102   105   103   ar
   103   108   109    1
   104   126   125    2
   105    95    96    1
   106   125   124    1
   107   127   124    1
   108    46    47    2
   109    46    45    1
   110   101   103   ar
   111    44    45    1
   112   109   110    2
   113   109   115   am
   114   124   123    1
   115   123   117   am
   116    45    48    1
   117   115   116    1
   118     8     6    1
   119   117   116    1
   120   117   118    2
   121    48    49    1
   122   116   119    1
   123    43    42    1
   124   121   119    1
   125    49    51   ar
   126    49    50   ar
   127     6     5    1
   128     5     7    1
   129     5     2    1
   130   119   120    1
   131    30    28    1
   132    21    22   ar
   133    21    19   ar
   134    51    53   ar
   135    50    52   ar
   136    42    41    1
   137     4     3    2
   138    22    20   ar
   139     1     2    1
   140    28    27    1
   141    19    16   ar
   142    53    54   ar
   143     2     3    1
   144    52    54   ar
   145     3     9   am
   146   120   122    1
   147    54    55    1
   148    41    40    1
   149    20    18   ar
   150    27    29    1
   151    27    24    1
   152    16    18   ar
   153    16    14   ar
   154    26    25    2
   155     9    10    1
   156    40    39    1
   157    23    24    1
   158    23    11   am
   159    18    17   ar
   160    10    11    1
   161    10    13    1
   162    25    24    1
   163    25    31   am
   164    11    12    2
   165    14    13    1
   166    14    15   ar
   167    32    31    1
   168    32    33    1
   169    39    36    1
   170    17    15   ar
   171    33    34    2
   172    35    36    1
   173    36    37    1
   174    38    37    2
