@<TRIPOS>MOLECULE
tmp/4mj0A00.pdb
 102 96 0 0 0
SMALL
GASTEIGER

@<TRIPOS>ATOM
      1  N         29.9940   51.8520   35.1330 N.3    27  PRO27      -0.2102
      2  CA        29.3050   52.0190   36.4260 C.3    27  PRO27       0.1504
      3  C         29.6660   53.2530   37.2450 C.2    27  PRO27       0.2575
      4  O         28.8950   53.6480   38.1280 O.2    27  PRO27      -0.2718
      5  CB        29.6590   50.7320   37.1780 C.3    27  PRO27       0.0282
      6  CG        30.9630   50.2910   36.5850 C.3    27  PRO27       0.0208
      7  CD        30.8740   50.6690   35.1320 C.3    27  PRO27       0.0893
      8  N         30.8200   53.8570   36.9870 N.am   28  ASP28      -0.1974
      9  CA        31.1320   55.1470   37.5820 C.3    28  ASP28       0.1708
     10  C         32.1000   55.8880   36.6800 C.2    28  ASP28       0.2293
     11  O         32.4910   55.3560   35.6430 O.2    28  ASP28      -0.2864
     12  CB        31.6400   54.9950   39.0290 C.3    28  ASP28       0.1436
     13  CG        33.0260   54.3720   39.1360 C.2    28  ASP28       0.3671
     14  OD1       33.8120   54.4540   38.1780 O.co2  28  ASP28      -0.2456
     15  OD2       33.3310   53.8230   40.2220 O.co2  28  ASP28      -0.2456
     16  N         35.3440   53.9300   35.6220 N.3    31  LEU31      -0.1245
     17  CA        35.2920   52.5390   35.1310 C.3    31  LEU31       0.1561
     18  C         34.6630   52.4000   33.7330 C.2    31  LEU31       0.2260
     19  O         33.9840   51.4150   33.4070 O.2    31  LEU31      -0.2867
     20  CB        34.6000   51.6450   36.1680 C.3    31  LEU31       0.0270
     21  CG        35.3900   51.4910   37.4670 C.3    31  LEU31       0.0019
     22  CD1       34.6210   50.6400   38.4700 C.3    31  LEU31       0.0001
     23  CD2       36.7680   50.8900   37.2090 C.3    31  LEU31       0.0001
     24  N         34.0570   49.0050   31.5020 N.3    34  PHE34      -0.1241
     25  CA        33.6350   47.8990   32.3510 C.3    34  PHE34       0.1605
     26  C         32.1380   47.9880   32.5990 C.2    34  PHE34       0.2264
     27  O         31.5380   49.0490   32.4260 O.2    34  PHE34      -0.2867
     28  CB        34.3290   47.9740   33.7130 C.3    34  PHE34       0.0534
     29  CG        35.8390   47.8040   33.6660 C.ar   34  PHE34      -0.0203
     30  CD1       36.6660   48.8560   33.2960 C.ar   34  PHE34      -0.0042
     31  CD2       36.4200   46.6080   34.0640 C.ar   34  PHE34      -0.0042
     32  CE1       38.0540   48.7130   33.2740 C.ar   34  PHE34      -0.0003
     33  CE2       37.8010   46.4480   34.0510 C.ar   34  PHE34      -0.0003
     34  CZ        38.6210   47.5050   33.6560 C.ar   34  PHE34      -0.0000
     35  N         28.9850   47.3200   35.6360 N.3    36  LEU36      -0.1231
     36  CA        28.7150   47.1350   37.0520 C.3    36  LEU36       0.1693
     37  C         28.9900   45.6710   37.3940 C.2    36  LEU36       0.2591
     38  O         28.8570   44.7780   36.5360 O.2    36  LEU36      -0.2718
     39  CB        27.2460   47.4420   37.3360 C.3    36  LEU36       0.0284
     40  CG        26.8120   47.5580   38.7940 C.3    36  LEU36       0.0019
     41  CD1       27.3170   48.8610   39.3950 C.3    36  LEU36       0.0001
     42  CD2       25.2960   47.4670   38.8840 C.3    36  LEU36       0.0001
     43  N         29.3220   45.4180   38.6520 N.am   37  LYS37      -0.1980
     44  CA        29.5020   44.0400   39.0780 C.3    37  LYS37       0.1596
     45  C         28.2390   43.2000   38.8210 C.2    37  LYS37       0.2287
     46  O         27.0900   43.6940   38.9270 O.2    37  LYS37      -0.2864
     47  CB        29.9220   43.9700   40.5330 C.3    37  LYS37       0.0298
     48  CG        28.8200   44.2760   41.4860 C.3    37  LYS37       0.0038
     49  CD        29.2990   44.1670   42.9260 C.3    37  LYS37       0.0206
     50  CE        28.2140   43.6360   43.8140 C.3    37  LYS37       0.1093
     51  NZ        27.8630   42.2290   43.4210 N.3    37  LYS37      -0.1314
     52  N         43.7810   45.5480   40.6660 N.3   100  GLY100     -0.1225
     53  CA        42.3870   45.2120   40.9460 C.3   100  GLY100      0.1811
     54  C         41.9830   43.7480   40.9640 C.2   100  GLY100      0.2280
     55  O         41.0290   43.4070   41.6540 O.2   100  GLY100     -0.2866
     56  N         36.2910   40.3860   34.3020 N.3   239  PHE239     -0.1241
     57  CA        37.3230   40.8410   35.2160 C.3   239  PHE239      0.1605
     58  C         36.9000   40.4390   36.6180 C.2   239  PHE239      0.2264
     59  O         35.7630   40.6980   37.0090 O.2   239  PHE239     -0.2867
     60  CB        37.4480   42.3800   35.1090 C.3   239  PHE239      0.0534
     61  CG        38.5040   42.9750   36.0000 C.ar  239  PHE239     -0.0203
     62  CD1       38.2000   43.3550   37.2940 C.ar  239  PHE239     -0.0042
     63  CD2       39.8010   43.1760   35.5320 C.ar  239  PHE239     -0.0042
     64  CE1       39.1780   43.9100   38.1130 C.ar  239  PHE239     -0.0003
     65  CE2       40.7630   43.7130   36.3350 C.ar  239  PHE239     -0.0003
     66  CZ        40.4650   44.0850   37.6310 C.ar  239  PHE239     -0.0000
     67  N         37.4730   40.9260   40.4950 N.3   241  ASN241     -0.1225
     68  CA        38.0300   41.7430   41.5840 C.3   241  ASN241      0.1785
     69  C         38.5370   40.8900   42.7290 C.2   241  ASN241      0.2598
     70  O         38.1140   39.7430   42.8930 O.2   241  ASN241     -0.2718
     71  CB        36.9660   42.7000   42.1320 C.3   241  ASN241      0.1169
     72  CG        36.6140   43.7970   41.1570 C.2   241  ASN241      0.2627
     73  OD1       37.4140   44.6910   40.9320 O.2   241  ASN241     -0.2716
     74  ND2       35.3960   43.7570   40.5970 N.am  241  ASN241     -0.0877
     75  N         39.3900   41.4820   43.5620 N.am  242  SER242     -0.1938
     76  CA        39.9510   40.7880   44.7200 C.3   242  SER242      0.2055
     77  C         38.8660   40.1920   45.6250 C.2   242  SER242      0.2643
     78  O         39.0550   39.1250   46.2030 O.2   242  SER242     -0.2714
     79  CB        40.8820   41.7140   45.5230 C.3   242  SER242      0.2130
     80  OG        40.3530   43.0240   45.6280 O.3   242  SER242     -0.2179
     81  N         37.7260   40.8760   45.7170 N.am  243  SER243     -0.1949
     82  CA        36.5800   40.4140   46.4990 C.3   243  SER243      0.1924
     83  C         35.9030   39.1490   45.9660 C.2   243  SER243      0.2314
     84  O         35.1770   38.4720   46.7230 O.2   243  SER243     -0.2863
     85  CB        35.5210   41.5200   46.5450 C.3   243  SER243      0.2116
     86  OG        35.0750   41.7920   45.2310 O.3   243  SER243     -0.2180
     87  N         33.9820   39.5820   43.1490 N.3   245  THR245     -0.1218
     88  CA        32.9740   40.1370   42.2460 C.3   245  THR245      0.1862
     89  C         33.5110   40.1910   40.8260 C.2   245  THR245      0.2287
     90  O         34.7400   40.2870   40.5970 O.2   245  THR245     -0.2866
     91  CB        32.5000   41.5410   42.6390 C.3   245  THR245      0.1770
     92  OG1       33.6140   42.4370   42.6190 O.3   245  THR245     -0.2211
     93  CG2       31.8410   41.5270   44.0330 C.3   245  THR245      0.0375
     94  N         33.0750   41.7460   36.6900 N.3   247  GLN247     -0.1245
     95  CA        32.5860   42.7980   35.7950 C.3   247  GLN247      0.1566
     96  C         32.9530   42.4660   34.3690 C.2   247  GLN247      0.2260
     97  O         34.0540   42.0190   34.1040 O.2   247  GLN247     -0.2867
     98  CB        33.2490   44.1430   36.1310 C.3   247  GLN247      0.0367
     99  CG        33.0130   44.6800   37.5190 C.3   247  GLN247      0.0905
    100  CD        33.9110   45.8530   37.8470 C.2   247  GLN247      0.2608
    101  OE1       34.8390   45.7330   38.6490 O.2   247  GLN247     -0.2717
    102  NE2       33.6530   46.9920   37.2160 N.am  247  GLN247     -0.0878
@<TRIPOS>BOND
     1    24    25    1
     2    25    26    1
     3    25    28    1
     4    27    26    2
     5    32    30   ar
     6    32    34   ar
     7    30    29   ar
     8    19    18    2
     9    34    33   ar
    10    29    28    1
    11    29    31   ar
    12    18    17    1
    13    33    31   ar
    14    97    96    2
    15    56    57    1
    16    96    95    1
    17    60    57    1
    18    60    61    1
    19    17    16    1
    20    17    20    1
    21     7     1    1
    22     7     6    1
    23     1     2    1
    24    57    58    1
    25    63    61   ar
    26    63    65   ar
    27    35    36    1
    28    11    10    2
    29    95    98    1
    30    95    94    1
    31    61    62   ar
    32    98    99    1
    33    20    21    1
    34    65    66   ar
    35     2     5    1
    36     2     3    1
    37    38    37    2
    38     6     5    1
    39    58    59    2
    40    10     9    1
    41     8     3   am
    42     8     9    1
    43    36    39    1
    44    36    37    1
    45    23    21    1
    46   102   100   am
    47     3     4    2
    48    62    64   ar
    49    39    40    1
    50    37    43   am
    51    21    22    1
    52    99   100    1
    53     9    12    1
    54    66    64   ar
    55   100   101    2
    56    14    13   ar
    57    43    44    1
    58    40    42    1
    59    40    41    1
    60    45    46    2
    61    45    44    1
    62    12    13    1
    63    44    47    1
    64    13    15   ar
    65    67    68    1
    66    47    48    1
    67    90    89    2
    68    74    72   am
    69    52    53    1
    70    89    88    1
    71    73    72    2
    72    53    54    1
    73    54    55    2
    74    72    71    1
    75    48    49    1
    76    68    71    1
    77    68    69    1
    78    88    91    1
    79    88    87    1
    80    92    91    1
    81    91    93    1
    82    69    70    2
    83    69    75   am
    84    49    50    1
    85    51    50    1
    86    75    76    1
    87    76    79    1
    88    76    77    1
    89    86    85    1
    90    79    80    1
    91    77    81   am
    92    77    78    2
    93    81    82    1
    94    83    82    1
    95    83    84    2
    96    82    85    1
