@<TRIPOS>MOLECULE
tmp/4mj0C00.pdb
 102 96 0 0 0
SMALL
GASTEIGER

@<TRIPOS>ATOM
      1  N         65.9310    5.1680   31.7910 N.3    19  PRO19      -0.2102
      2  CA        66.5400    5.0990   33.1190 C.3    19  PRO19       0.1504
      3  C         67.0020    3.7020   33.5760 C.2    19  PRO19       0.2575
      4  O         67.8840    3.5790   34.4480 O.2    19  PRO19      -0.2718
      5  CB        65.4440    5.6590   34.0330 C.3    19  PRO19       0.0282
      6  CG        64.1870    5.4250   33.3200 C.3    19  PRO19       0.0208
      7  CD        64.5050    5.5450   31.8600 C.3    19  PRO19       0.0893
      8  N         66.4220    2.6560   32.9970 N.am   20  ASP20      -0.1974
      9  CA        66.9090    1.3000   33.2040 C.3    20  ASP20       0.1708
     10  C         66.5790    0.4350   31.9970 C.2    20  ASP20       0.2293
     11  O         65.9790    0.9190   31.0500 O.2    20  ASP20      -0.2864
     12  CB        66.4110    0.7000   34.5380 C.3    20  ASP20       0.1436
     13  CG        64.9130    0.4520   34.5760 C.2    20  ASP20       0.3671
     14  OD1       64.2920    0.2470   33.5190 O.co2  20  ASP20      -0.2456
     15  OD2       64.3610    0.4370   35.6960 O.co2  20  ASP20      -0.2456
     16  N         62.8480    0.3490   30.8810 N.3    23  LEU23      -0.1245
     17  CA        62.1020    1.5710   30.6540 C.3    23  LEU23       0.1561
     18  C         62.5910    2.3500   29.4250 C.2    23  LEU23       0.2260
     19  O         62.5720    3.5770   29.4020 O.2    23  LEU23      -0.2867
     20  CB        62.0760    2.4330   31.9190 C.3    23  LEU23       0.0270
     21  CG        61.3050    1.8010   33.0860 C.3    23  LEU23       0.0019
     22  CD1       61.4410    2.6540   34.3450 C.3    23  LEU23       0.0001
     23  CD2       59.8310    1.5990   32.7340 C.3    23  LEU23       0.0001
     24  N         61.1130    5.9370   27.9880 N.3    26  PHE26      -0.1241
     25  CA        60.7750    6.8170   29.1010 C.3    26  PHE26       0.1605
     26  C         62.0310    7.5310   29.6120 C.2    26  PHE26       0.2264
     27  O         63.1500    7.0910   29.3650 O.2    26  PHE26      -0.2867
     28  CB        60.2060    6.0140   30.2840 C.3    26  PHE26       0.0534
     29  CG        58.8950    5.3030   29.9930 C.ar   26  PHE26      -0.0203
     30  CD1       58.8870    4.1060   29.2900 C.ar   26  PHE26      -0.0042
     31  CD2       57.6920    5.8100   30.4650 C.ar   26  PHE26      -0.0042
     32  CE1       57.6900    3.4380   29.0180 C.ar   26  PHE26      -0.0003
     33  CE2       56.4940    5.1530   30.2080 C.ar   26  PHE26      -0.0003
     34  CZ        56.4990    3.9490   29.4750 C.ar   26  PHE26      -0.0000
     35  N         64.0270    9.0620   33.2070 N.3    28  LEU28      -0.1231
     36  CA        64.0620    9.0630   34.6540 C.3    28  LEU28       0.1693
     37  C         62.9880    9.9990   35.1930 C.2    28  LEU28       0.2591
     38  O         62.6290   11.0030   34.5490 O.2    28  LEU28      -0.2718
     39  CB        65.4430    9.5310   35.1330 C.3    28  LEU28       0.0284
     40  CG        65.8070    9.3470   36.6040 C.3    28  LEU28       0.0019
     41  CD1       66.2460    7.9050   36.8720 C.3    28  LEU28       0.0001
     42  CD2       66.9270   10.3400   37.0120 C.3    28  LEU28       0.0001
     43  N         62.4800    9.6840   36.3810 N.am   29  LYS29      -0.1980
     44  CA        61.5130   10.5630   37.0340 C.3    29  LYS29       0.1596
     45  C         62.0410   12.0010   37.1680 C.2    29  LYS29       0.2287
     46  O         63.2420   12.2280   37.4320 O.2    29  LYS29      -0.2864
     47  CB        61.0890   10.0030   38.4040 C.3    29  LYS29       0.0298
     48  CG        62.1270   10.0990   39.5090 C.3    29  LYS29       0.0038
     49  CD        61.5930    9.5350   40.8260 C.3    29  LYS29       0.0206
     50  CE        62.2260   10.2100   42.0320 C.3    29  LYS29       0.1093
     51  NZ        63.7090   10.1480   42.0140 N.3    29  LYS29      -0.1314
     52  N         50.8800    0.8560   35.7160 N.3    83  GLY83      -0.1225
     53  CA        51.7910    1.8070   36.3450 C.3    83  GLY83       0.1811
     54  C         51.2810    3.1950   36.6860 C.2    83  GLY83       0.2280
     55  O         51.8140    3.8360   37.5990 O.2    83  GLY83      -0.2866
     56  N         54.0790   10.7510   31.8290 N.3   222  PHE222     -0.1241
     57  CA        53.4800    9.5890   32.4670 C.3   222  PHE222      0.1605
     58  C         53.5420    9.8090   33.9830 C.2   222  PHE222      0.2264
     59  O         54.6170   10.1170   34.5360 O.2   222  PHE222     -0.2867
     60  CB        54.2780    8.3560   32.0480 C.3   222  PHE222      0.0534
     61  CG        53.7610    7.0680   32.6080 C.ar  222  PHE222     -0.0203
     62  CD1       54.2240    6.5960   33.8300 C.ar  222  PHE222     -0.0042
     63  CD2       52.8400    6.3060   31.8970 C.ar  222  PHE222     -0.0042
     64  CE1       53.7610    5.3990   34.3380 C.ar  222  PHE222     -0.0003
     65  CE2       52.3640    5.1050   32.4150 C.ar  222  PHE222     -0.0003
     66  CZ        52.8250    4.6570   33.6290 C.ar  222  PHE222     -0.0000
     67  N         53.2250    8.0850   37.4840 N.3   224  ASN224     -0.1225
     68  CA        53.1870    6.8600   38.2770 C.3   224  ASN224      0.1785
     69  C         52.1980    6.9400   39.4280 C.2   224  ASN224      0.2598
     70  O         51.8320    8.0270   39.8640 O.2   224  ASN224     -0.2718
     71  CB        54.5720    6.5740   38.8450 C.3   224  ASN224      0.1169
     72  CG        55.5630    6.1730   37.7780 C.2   224  ASN224      0.2627
     73  OD1       55.4620    5.0840   37.2130 O.2   224  ASN224     -0.2716
     74  ND2       56.5500    7.0290   37.5210 N.am  224  ASN224     -0.0877
     75  N         51.8080    5.7780   39.9510 N.am  225  SER225     -0.1938
     76  CA        50.8690    5.7380   41.0680 C.3   225  SER225      0.2055
     77  C         51.3750    6.5560   42.2530 C.2   225  SER225      0.2643
     78  O         50.5760    7.1720   42.9540 O.2   225  SER225     -0.2714
     79  CB        50.5290    4.2950   41.4850 C.3   225  SER225      0.2130
     80  OG        51.6770    3.4700   41.5570 O.3   225  SER225     -0.2179
     81  N         52.6980    6.5910   42.4490 N.am  226  SER226     -0.1949
     82  CA        53.3150    7.3620   43.5340 C.3   226  SER226      0.1924
     83  C         53.2040    8.8780   43.3880 C.2   226  SER226      0.2314
     84  O         53.4060    9.6030   44.3610 O.2   226  SER226     -0.2863
     85  CB        54.8040    7.0260   43.6260 C.3   226  SER226      0.2116
     86  OG        55.4850    7.5180   42.4900 O.3   226  SER226     -0.2180
     87  N         55.1280   10.4020   40.9590 N.3   228  THR228     -0.1218
     88  CA        56.3210   10.7760   40.1670 C.3   228  THR228      0.1862
     89  C         55.9610   10.7870   38.6860 C.2   228  THR228      0.2287
     90  O         55.0130   10.1130   38.2790 O.2   228  THR228     -0.2866
     91  CB        57.5240    9.8310   40.3950 C.3   228  THR228      0.1770
     92  OG1       57.2110    8.5120   39.9340 O.3   228  THR228     -0.2211
     93  CG2       57.9100    9.7810   41.8800 C.3   228  THR228      0.0375
     94  N         57.3870   10.9050   34.4430 N.3   230  GLN230     -0.1245
     95  CA        58.4480   10.5860   33.5010 C.3   230  GLN230      0.1566
     96  C         57.9940   11.0080   32.1200 C.2   230  GLN230      0.2260
     97  O         56.8280   10.8340   31.7730 O.2   230  GLN230     -0.2867
     98  CB        58.7130    9.0700   33.4710 C.3   230  GLN230      0.0367
     99  CG        59.1160    8.4390   34.7970 C.3   230  GLN230      0.0905
    100  CD        59.1090    6.9310   34.7250 C.2   230  GLN230      0.2608
    101  OE1       58.2560    6.2770   35.3310 O.2   230  GLN230     -0.2717
    102  NE2       60.0590    6.3590   33.9590 N.am  230  GLN230     -0.0878
@<TRIPOS>BOND
     1    24    25    1
     2    32    30   ar
     3    32    34   ar
     4    25    26    1
     5    25    28    1
     6    30    29   ar
     7    27    26    2
     8    19    18    2
     9    18    17    1
    10    34    33   ar
    11    29    28    1
    12    29    31   ar
    13    33    31   ar
    14    17    16    1
    15    17    20    1
    16    11    10    2
    17    97    96    2
    18     1     7    1
    19     1     2    1
    20    56    57    1
    21     7     6    1
    22    63    65   ar
    23    63    61   ar
    24    20    21    1
    25    10     9    1
    26    60    57    1
    27    60    61    1
    28    96    95    1
    29    65    66   ar
    30    57    58    1
    31    61    62   ar
    32    23    21    1
    33     8     9    1
    34     8     3   am
    35    21    22    1
    36     2     3    1
    37     2     5    1
    38     9    12    1
    39    35    36    1
    40     6     5    1
    41    98    95    1
    42    98    99    1
    43    95    94    1
    44    14    13   ar
    45     3     4    2
    46    66    64   ar
    47    62    64   ar
    48   102   100   am
    49    58    59    2
    50    12    13    1
    51    38    37    2
    52    13    15   ar
    53    36    39    1
    54    36    37    1
    55   100    99    1
    56   100   101    2
    57    39    40    1
    58    37    43   am
    59    52    53    1
    60    53    54    1
    61    43    44    1
    62    40    41    1
    63    40    42    1
    64    54    55    2
    65    44    45    1
    66    44    47    1
    67    45    46    2
    68    73    72    2
    69    67    68    1
    70    74    72   am
    71    72    71    1
    72    68    71    1
    73    68    69    1
    74    90    89    2
    75    47    48    1
    76    89    88    1
    77    69    70    2
    78    69    75   am
    79    48    49    1
    80    92    91    1
    81    75    76    1
    82    88    91    1
    83    88    87    1
    84    91    93    1
    85    49    50    1
    86    76    79    1
    87    76    77    1
    88    79    80    1
    89    51    50    1
    90    77    81   am
    91    77    78    2
    92    81    82    1
    93    86    85    1
    94    83    82    1
    95    83    84    2
    96    82    85    1
