@<TRIPOS>MOLECULE
tmp/4mj0D00.pdb
 110 104 0 0 0
SMALL
GASTEIGER

@<TRIPOS>ATOM
      1  N         31.5870   -6.7760   28.2750 N.3    27  PRO27      -0.2102
      2  CA        31.8340   -7.5250   29.5080 C.3    27  PRO27       0.1504
      3  C         30.6860   -8.3810   30.0350 C.2    27  PRO27       0.2575
      4  O         30.9280   -9.2910   30.8380 O.2    27  PRO27      -0.2718
      5  CB        32.1950   -6.4260   30.5130 C.3    27  PRO27       0.0282
      6  CG        31.5010   -5.2300   30.0290 C.3    27  PRO27       0.0208
      7  CD        31.5590   -5.3240   28.5200 C.3    27  PRO27       0.0893
      8  N         29.4530   -8.0520   29.6550 N.am   28  ASP28      -0.1974
      9  CA        28.3170   -8.9310   29.8540 C.3    28  ASP28       0.1708
     10  C         27.3320   -8.8050   28.6870 C.2    28  ASP28       0.2293
     11  O         27.5350   -7.9850   27.7820 O.2    28  ASP28      -0.2864
     12  CB        27.6710   -8.7450   31.2430 C.3    28  ASP28       0.1436
     13  CG        26.8240   -7.4750   31.3830 C.2    28  ASP28       0.3671
     14  OD1       26.3760   -6.8930   30.3670 O.co2  28  ASP28      -0.2456
     15  OD2       26.5530   -7.0820   32.5500 O.co2  28  ASP28      -0.2456
     16  N         24.5230   -7.5320   28.4290 N.3    30  ASN30      -0.1225
     17  CA        23.8390   -6.2360   28.2840 C.3    30  ASN30       0.1785
     18  C         24.7390   -5.0840   27.8840 C.2    30  ASN30       0.2597
     19  O         24.2310   -4.0100   27.5450 O.2    30  ASN30      -0.2718
     20  CB        23.1500   -5.8480   29.5930 C.3    30  ASN30       0.1169
     21  CG        22.0580   -6.8090   29.9860 C.2    30  ASN30       0.2627
     22  OD1       21.3470   -7.3540   29.1400 O.2    30  ASN30      -0.2716
     23  ND2       21.9080   -7.0110   31.2810 N.am   30  ASN30      -0.0877
     24  N         26.0610   -5.2830   27.9310 N.am   31  LEU31      -0.1980
     25  CA        26.9990   -4.1690   27.8130 C.3    31  LEU31       0.1596
     26  C         27.7760   -4.2050   26.5090 C.2    31  LEU31       0.2287
     27  O         28.9430   -3.8060   26.4430 O.2    31  LEU31      -0.2864
     28  CB        27.9190   -4.1210   29.0450 C.3    31  LEU31       0.0297
     29  CG        27.1830   -3.7400   30.3290 C.3    31  LEU31       0.0022
     30  CD1       28.0980   -3.8910   31.5560 C.3    31  LEU31       0.0001
     31  CD2       26.6130   -2.3310   30.2240 C.3    31  LEU31       0.0001
     32  N         30.6530   -1.5060   25.2490 N.3    34  PHE34      -0.1241
     33  CA        31.4330   -1.0110   26.3770 C.3    34  PHE34       0.1605
     34  C         32.5380   -2.0300   26.6770 C.2    34  PHE34       0.2264
     35  O         32.4190   -3.2120   26.3080 O.2    34  PHE34      -0.2867
     36  CB        30.5820   -0.8810   27.6380 C.3    34  PHE34       0.0534
     37  CG        29.4900    0.1610   27.5830 C.ar   34  PHE34      -0.0203
     38  CD1       28.3000   -0.0870   26.9250 C.ar   34  PHE34      -0.0042
     39  CD2       29.6240    1.3640   28.2820 C.ar   34  PHE34      -0.0042
     40  CE1       27.2700    0.8610   26.9030 C.ar   34  PHE34      -0.0003
     41  CE2       28.6080    2.3190   28.2680 C.ar   34  PHE34      -0.0003
     42  CZ        27.4140    2.0600   27.5820 C.ar   34  PHE34      -0.0000
     43  N         34.8630   -3.9190   29.9220 N.3    36  LEU36      -0.1231
     44  CA        35.0030   -4.1610   31.3430 C.3    36  LEU36       0.1693
     45  C         35.5950   -2.9210   32.0090 C.2    36  LEU36       0.2591
     46  O         36.3930   -2.2070   31.3960 O.2    36  LEU36      -0.2718
     47  CB        35.9460   -5.3510   31.5720 C.3    36  LEU36       0.0284
     48  CG        35.9800   -6.0130   32.9500 C.3    36  LEU36       0.0019
     49  CD1       34.7380   -6.8420   33.2140 C.3    36  LEU36       0.0001
     50  CD2       37.2340   -6.8870   33.0720 C.3    36  LEU36       0.0001
     51  N         35.2400   -2.6820   33.2660 N.am   37  LYS37      -0.1980
     52  CA        35.8130   -1.5680   34.0080 C.3    37  LYS37       0.1596
     53  C         37.3490   -1.6270   33.9950 C.2    37  LYS37       0.2287
     54  O         37.9730   -2.7180   33.9950 O.2    37  LYS37      -0.2864
     55  CB        35.2850   -1.5290   35.4410 C.3    37  LYS37       0.0298
     56  CG        35.7360   -2.6890   36.3000 C.3    37  LYS37       0.0038
     57  CD        35.3430   -2.5100   37.7650 C.3    37  LYS37       0.0206
     58  CE        35.7580   -3.7060   38.5820 C.3    37  LYS37       0.1093
     59  NZ        35.2330   -3.6490   39.9630 N.3    37  LYS37      -0.1314
     60  N         23.1810    5.4820   34.6060 N.3   100  GLY100     -0.1225
     61  CA        24.4270    4.8580   35.0240 C.3   100  GLY100      0.1811
     62  C         25.6190    5.7310   35.3960 C.2   100  GLY100      0.2280
     63  O         26.4730    5.2930   36.1630 O.2   100  GLY100     -0.2866
     64  N         33.2710    6.0880   29.9990 N.3   239  PHE239     -0.1241
     65  CA        32.0130    6.2070   30.7420 C.3   239  PHE239      0.1605
     66  C         32.3520    6.0270   32.2130 C.2   239  PHE239      0.2264
     67  O         33.0040    5.0400   32.5820 O.2   239  PHE239     -0.2867
     68  CB        31.0570    5.1010   30.2910 C.3   239  PHE239      0.0534
     69  CG        29.6900    5.1470   30.9420 C.ar  239  PHE239     -0.0203
     70  CD1       29.4300    4.4520   32.1170 C.ar  239  PHE239     -0.0042
     71  CD2       28.6560    5.8740   30.3770 C.ar  239  PHE239     -0.0042
     72  CE1       28.1810    4.4850   32.7190 C.ar  239  PHE239     -0.0003
     73  CE2       27.3890    5.9180   30.9830 C.ar  239  PHE239     -0.0003
     74  CZ        27.1500    5.2170   32.1560 C.ar  239  PHE239     -0.0000
     75  N         30.8870    5.2850   35.7990 N.3   241  ASN241     -0.1225
     76  CA        29.7900    4.8430   36.6680 C.3   241  ASN241      0.1785
     77  C         29.6950    5.6360   37.9620 C.2   241  ASN241      0.2598
     78  O         30.6570    6.2680   38.3900 O.2   241  ASN241     -0.2718
     79  CB        29.9640    3.3700   37.0230 C.3   241  ASN241      0.1169
     80  CG        29.7780    2.4840   35.8370 C.2   241  ASN241      0.2627
     81  OD1       28.6740    2.4010   35.3100 O.2   241  ASN241     -0.2716
     82  ND2       30.8440    1.8240   35.3910 N.am  241  ASN241     -0.0877
     83  N         28.5380    5.5530   38.6130 N.am  242  SER242     -0.1938
     84  CA        28.3210    6.2690   39.8570 C.3   242  SER242      0.2055
     85  C         29.3410    5.8780   40.9280 C.2   242  SER242      0.2643
     86  O         29.7400    6.7080   41.7370 O.2   242  SER242     -0.2714
     87  CB        26.8960    6.0580   40.3750 C.3   242  SER242      0.2130
     88  OG        26.6220    4.6870   40.5830 O.3   242  SER242     -0.2179
     89  N         29.7980    4.6280   40.8910 N.am  243  SER243     -0.1949
     90  CA        30.8220    4.1360   41.8220 C.3   243  SER243      0.1924
     91  C         32.2050    4.7650   41.6290 C.2   243  SER243      0.2314
     92  O         33.0540    4.6910   42.5330 O.2   243  SER243     -0.2863
     93  CB        30.9920    2.6290   41.6330 C.3   243  SER243      0.2116
     94  OG        31.4950    2.3680   40.3360 O.3   243  SER243     -0.2180
     95  N         33.9680    3.7220   38.8250 N.3   245  THR245     -0.1218
     96  CA        34.6130    2.8260   37.8640 C.3   245  THR245      0.1862
     97  C         34.3870    3.3700   36.4630 C.2   245  THR245      0.2287
     98  O         33.3820    4.0560   36.2000 O.2   245  THR245     -0.2866
     99  CB        34.1220    1.3780   37.9570 C.3   245  THR245      0.1770
    100  OG1       32.7300    1.3190   37.6550 O.3   245  THR245     -0.2211
    101  CG2       34.4010    0.7770   39.3370 C.3   245  THR245      0.0375
    102  N         34.6190    2.6950   32.0830 N.3   247  GLN247     -0.1245
    103  CA        34.5430    1.7510   30.9790 C.3   247  GLN247      0.1566
    104  C         34.7110    2.5040   29.6690 C.2   247  GLN247      0.2260
    105  O         34.1380    3.5780   29.4770 O.2   247  GLN247     -0.2867
    106  CB        33.1730    1.0300   30.9390 C.3   247  GLN247      0.0367
    107  CG        32.7930    0.2520   32.1860 C.3   247  GLN247      0.0905
    108  CD        31.3480   -0.1740   32.1530 C.2   247  GLN247      0.2608
    109  OE1       30.5220    0.3430   32.9070 O.2   247  GLN247     -0.2717
    110  NE2       31.0240   -1.1220   31.2700 N.am  247  GLN247     -0.0878
@<TRIPOS>BOND
     1    32    33    1
     2    35    34    2
     3    33    34    1
     4    33    36    1
     5    27    26    2
     6    26    25    1
     7    40    38   ar
     8    40    42   ar
     9    38    37   ar
    10    19    18    2
    11    42    41   ar
    12    37    36    1
    13    37    39   ar
    14    11    10    2
    15    25    24    1
    16    25    28    1
    17    18    24   am
    18    18    17    1
    19    41    39   ar
    20     1     7    1
    21     1     2    1
    22    17    16    1
    23    17    20    1
    24     7     6    1
    25    10     9    1
    26    28    29    1
    27    22    21    2
    28   105   104    2
    29     2     3    1
    30     2     5    1
    31    20    21    1
    32     8     9    1
    33     8     3   am
    34   104   103    1
    35     9    12    1
    36    43    44    1
    37    21    23   am
    38    64    65    1
    39     6     5    1
    40     3     4    2
    41    31    29    1
    42    68    65    1
    43    68    69    1
    44    29    30    1
    45    14    13   ar
    46    71    69   ar
    47    71    73   ar
    48    65    66    1
    49   106   103    1
    50   106   107    1
    51    69    70   ar
    52   103   102    1
    53    73    74   ar
    54    12    13    1
    55   110   108   am
    56    44    47    1
    57    44    45    1
    58    13    15   ar
    59    46    45    2
    60    47    48    1
    61    45    51   am
    62    70    72   ar
    63   108   107    1
    64   108   109    2
    65    74    72   ar
    66    66    67    2
    67    48    50    1
    68    48    49    1
    69    51    52    1
    70    53    54    2
    71    53    52    1
    72    52    55    1
    73    60    61    1
    74    61    62    1
    75    81    80    2
    76    82    80   am
    77    62    63    2
    78    55    56    1
    79    75    76    1
    80    80    79    1
    81    98    97    2
    82    56    57    1
    83    97    96    1
    84    76    79    1
    85    76    77    1
    86   100    99    1
    87    57    58    1
    88    96    99    1
    89    96    95    1
    90    99   101    1
    91    77    78    2
    92    77    83   am
    93    58    59    1
    94    83    84    1
    95    84    87    1
    96    84    85    1
    97    94    93    1
    98    87    88    1
    99    89    85   am
   100    89    90    1
   101    85    86    2
   102    91    90    1
   103    91    92    2
   104    93    90    1
