@<TRIPOS>MOLECULE
tmp/4mj2A02.pdb
 82 82 0 0 0
SMALL
GASTEIGER

@<TRIPOS>ATOM
      1  N       -136.2490  291.5280   -0.3900 N.3   314  HIS314     -0.1227
      2  CA      -135.7840  290.1500   -0.4910 C.3   314  HIS314      0.1737
      3  C       -134.9410  289.9590   -1.7560 C.2   314  HIS314      0.2438
      4  O       -135.2990  290.4780   -2.8130 O.2   314  HIS314     -0.2733
      5  CB      -137.0000  289.2120   -0.5180 C.3   314  HIS314      0.0758
      6  CG      -136.6570  287.7670   -0.7110 C.ar  314  HIS314      0.0818
      7  ND1     -136.1930  286.9690    0.3120 N.ar  314  HIS314     -0.2268
      8  CD2     -136.7170  286.9750   -1.8090 C.ar  314  HIS314      0.1154
      9  CE1     -135.9780  285.7490   -0.1470 C.ar  314  HIS314      0.1986
     10  NE2     -136.2880  285.7270   -1.4320 N.ar  314  HIS314     -0.2212
     11  N       -133.8260  289.2080   -1.6650 N.am  315  PRO315     -0.2729
     12  CA      -133.2620  288.4940   -0.5240 C.3   315  PRO315      0.1401
     13  C       -132.0860  289.2270    0.1460 C.2   315  PRO315      0.2269
     14  O       -131.1080  288.5850    0.5310 O.2   315  PRO315     -0.2865
     15  CB      -132.7790  287.1950   -1.1730 C.3   315  PRO315      0.0296
     16  CG      -132.3050  287.6370   -2.5210 C.3   315  PRO315      0.0237
     17  CD      -133.0930  288.8680   -2.8990 C.3   315  PRO315      0.0939
     18  N       -145.9460  284.3550    6.1310 N.3   331  ASN331     -0.1240
     19  CA      -146.6260  283.1460    6.6050 C.3   331  ASN331      0.1653
     20  C       -147.4830  283.3440    7.8620 C.2   331  ASN331      0.2266
     21  O       -148.0260  282.3730    8.3890 O.2   331  ASN331     -0.2867
     22  CB      -145.6170  282.0090    6.8200 C.3   331  ASN331      0.1155
     23  CG      -144.6410  282.2950    7.9430 C.2   331  ASN331      0.2627
     24  OD1     -144.1830  283.4250    8.1070 O.2   331  ASN331     -0.2716
     25  ND2     -144.3130  281.2690    8.7200 N.am  331  ASN331     -0.0877
     26  N       -128.5470  282.7600   13.5910 N.3   448  LEU448     -0.1231
     27  CA      -129.8280  282.0510   13.6460 C.3   448  LEU448      0.1693
     28  C       -130.1010  281.2230   12.3830 C.2   448  LEU448      0.2593
     29  O       -131.0750  280.4760   12.3390 O.2   448  LEU448     -0.2718
     30  CB      -130.9770  283.0440   13.8600 C.3   448  LEU448      0.0284
     31  CG      -130.9860  283.8310   15.1740 C.3   448  LEU448      0.0019
     32  CD1     -131.9230  285.0260   15.0730 C.3   448  LEU448      0.0001
     33  CD2     -131.3830  282.9360   16.3380 C.3   448  LEU448      0.0001
     34  N       -129.2540  281.3680   11.3630 N.am  449  GLY449     -0.1942
     35  CA      -129.3670  280.5980   10.1240 C.3   449  GLY449      0.2014
     36  C       -130.0630  281.3310    8.9890 C.2   449  GLY449      0.2639
     37  O       -130.5410  280.7000    8.0460 O.2   449  GLY449     -0.2714
     38  N       -130.1180  282.6610    9.0800 N.am  450  ARG450     -0.1963
     39  CA      -130.7310  283.5140    8.0530 C.3   450  ARG450      0.1714
     40  C       -132.2050  283.1720    7.7680 C.2   450  ARG450      0.2458
     41  O       -132.5780  282.9470    6.6150 O.2   450  ARG450     -0.2730
     42  CB      -129.9260  283.4580    6.7400 C.3   450  ARG450      0.0347
     43  CG      -128.4850  283.9410    6.8290 C.3   450  ARG450      0.0492
     44  CD      -127.6400  283.3750    5.6920 C.3   450  ARG450      0.2205
     45  NE      -128.3990  283.3180    4.4440 N.pl3 450  ARG450     -0.0865
     46  CZ      -128.2730  282.3860    3.4990 C.cat 450  ARG450      0.5346
     47  NH1     -127.4000  281.3940    3.6130 N.pl3 450  ARG450      0.1354
     48  NH2     -129.0430  282.4480    2.4220 N.pl3 450  ARG450      0.1354
     49  N       -133.0490  283.1370    8.8130 N.am  451  PRO451     -0.2716
     50  CA      -134.4740  282.8710    8.5840 C.3   451  PRO451      0.1536
     51  C       -135.1280  283.9200    7.6860 C.2   451  PRO451      0.2598
     52  O       -134.9840  285.1170    7.9370 O.2   451  PRO451     -0.2715
     53  CB      -135.0780  282.9230    9.9940 C.3   451  PRO451      0.0310
     54  CG      -134.0980  283.7030   10.8060 C.3   451  PRO451      0.0237
     55  CD      -132.7560  283.3560   10.2400 C.3   451  PRO451      0.0939
     56  N       -135.8330  283.4660    6.6490 N.am  452  VAL452     -0.1964
     57  CA      -136.4920  284.3750    5.7070 C.3   452  VAL452      0.1727
     58  C       -137.7210  285.0460    6.3260 C.2   452  VAL452      0.2616
     59  O       -137.9620  286.2270    6.0870 O.2   452  VAL452     -0.2715
     60  CB      -136.8640  283.6710    4.3760 C.3   452  VAL452      0.0290
     61  CG1     -137.9810  282.6520    4.5610 C.3   452  VAL452      0.0023
     62  CG2     -137.2620  284.6950    3.3230 C.3   452  VAL452      0.0023
     63  N       -138.4880  284.2890    7.1110 N.am  453  PHE453     -0.1974
     64  CA      -139.6410  284.8160    7.8440 C.3   453  PHE453      0.1639
     65  C       -139.3990  284.6260    9.3390 C.2   453  PHE453      0.2290
     66  O       -139.8650  283.6440    9.9160 O.2   453  PHE453     -0.2864
     67  CB      -140.9260  284.0790    7.4470 C.3   453  PHE453      0.0560
     68  CG      -141.2660  284.1560    5.9800 C.ar  453  PHE453     -0.0200
     69  CD1     -141.0370  285.3100    5.2410 C.ar  453  PHE453     -0.0042
     70  CD2     -141.8610  283.0680    5.3460 C.ar  453  PHE453     -0.0042
     71  CE1     -141.3700  285.3660    3.8950 C.ar  453  PHE453     -0.0003
     72  CE2     -142.1950  283.1210    4.0040 C.ar  453  PHE453     -0.0003
     73  CZ      -141.9480  284.2700    3.2770 C.ar  453  PHE453     -0.0000
     74  N       -136.9140  284.9750   17.2010 N.3   458  GLN458     -0.1245
     75  CA      -135.7840  285.3260   16.3530 C.3   458  GLN458      0.1566
     76  C       -135.6420  286.8440   16.2060 C.2   458  GLN458      0.2260
     77  O       -134.5290  287.3560   16.1640 O.2   458  GLN458     -0.2867
     78  CB      -135.9120  284.6470   14.9910 C.3   458  GLN458      0.0367
     79  CG      -135.6980  283.1420   15.0580 C.3   458  GLN458      0.0905
     80  CD      -136.0810  282.4220   13.7810 C.2   458  GLN458      0.2608
     81  OE1     -136.9430  282.8750   13.0330 O.2   458  GLN458     -0.2717
     82  NE2     -135.4500  281.2800   13.5340 N.am  458  GLN458     -0.0878
@<TRIPOS>BOND
     1    17    16    1
     2    17    11    1
     3     4     3    2
     4    16    15    1
     5     8    10   ar
     6     8     6   ar
     7     3    11   am
     8     3     2    1
     9    11    12    1
    10    10     9   ar
    11    15    12    1
    12     6     5    1
    13     6     7   ar
    14    12    13    1
    15     5     2    1
    16     2     1    1
    17     9     7   ar
    18    13    14    2
    19    48    46    1
    20    73    71   ar
    21    73    72   ar
    22    62    60    1
    23    46    47    1
    24    46    45    2
    25    71    69   ar
    26    72    70   ar
    27    60    61    1
    28    60    57    1
    29    45    44    1
    30    69    68   ar
    31    70    68   ar
    32    44    43    1
    33    57    58    1
    34    57    56    1
    35    68    67    1
    36    59    58    2
    37    18    19    1
    38    58    63   am
    39    19    22    1
    40    19    20    1
    41    41    40    2
    42    56    51   am
    43    42    43    1
    44    42    39    1
    45    22    23    1
    46    63    64    1
    47    67    64    1
    48    51    52    2
    49    51    50    1
    50    40    39    1
    51    40    49   am
    52    64    65    1
    53    20    21    2
    54    23    24    2
    55    23    25   am
    56    37    36    2
    57    39    38    1
    58    50    49    1
    59    50    53    1
    60    49    55    1
    61    36    38   am
    62    36    35    1
    63    65    66    2
    64    53    54    1
    65    35    34    1
    66    55    54    1
    67    34    28   am
    68    29    28    2
    69    28    27    1
    70    81    80    2
    71    82    80   am
    72    26    27    1
    73    27    30    1
    74    80    79    1
    75    30    31    1
    76    78    79    1
    77    78    75    1
    78    32    31    1
    79    31    33    1
    80    77    76    2
    81    76    75    1
    82    75    74    1
