@<TRIPOS>MOLECULE
tmp/4mj2B03.pdb
 183 183 0 0 0
SMALL
GASTEIGER

@<TRIPOS>ATOM
      1  N       -123.1610  266.6490   -0.6030 N.3    26  CYS26      -0.1221
      2  CA      -122.0730  267.5870   -0.3810 C.3    26  CYS26       0.1794
      3  C       -122.5330  268.5920    0.6670 C.2    26  CYS26       0.2443
      4  O       -123.5640  269.2330    0.4800 O.2    26  CYS26      -0.2733
      5  CB      -121.7360  268.3100   -1.6880 C.3    26  CYS26       0.0970
      6  SG      -120.4390  269.5660   -1.5620 S.3    26  CYS26      -0.0800
      7  N       -121.7870  268.7260    1.7790 N.am   27  PRO27      -0.2718
      8  CA      -122.1760  269.7210    2.7810 C.3    27  PRO27       0.1520
      9  C       -121.9590  271.1530    2.2820 C.2    27  PRO27       0.2440
     10  O       -121.0410  271.3870    1.5010 O.2    27  PRO27      -0.2731
     11  CB      -121.2550  269.4100    3.9680 C.3    27  PRO27       0.0310
     12  CG      -120.0850  268.7050    3.3780 C.3    27  PRO27       0.0237
     13  CD      -120.6120  267.9430    2.2020 C.3    27  PRO27       0.0939
     14  N       -122.7950  272.1070    2.7320 N.am   28  PRO28      -0.2716
     15  CA      -122.7100  273.4960    2.2620 C.3    28  PRO28       0.1536
     16  C       -121.4750  274.2430    2.7730 C.2    28  PRO28       0.2598
     17  O       -120.7980  273.7700    3.6900 O.2    28  PRO28      -0.2715
     18  CB      -123.9810  274.1310    2.8360 C.3    28  PRO28       0.0310
     19  CG      -124.2570  273.3530    4.0780 C.3    28  PRO28       0.0237
     20  CD      -123.8250  271.9430    3.7770 C.3    28  PRO28       0.0939
     21  N       -121.1960  275.4030    2.1780 N.am   29  LEU29      -0.1978
     22  CA      -120.1030  276.2720    2.6310 C.3    29  LEU29       0.1596
     23  C       -120.3960  276.8140    4.0280 C.2    29  LEU29       0.2287
     24  O       -119.4860  277.2340    4.7420 O.2    29  LEU29      -0.2864
     25  CB      -119.8760  277.4450    1.6640 C.3    29  LEU29       0.0297
     26  CG      -119.0100  277.1920    0.4260 C.3    29  LEU29       0.0022
     27  CD1     -119.7100  276.2620   -0.5400 C.3    29  LEU29       0.0001
     28  CD2     -118.6620  278.4970   -0.2750 C.3    29  LEU29       0.0001
     29  N       -115.8910  266.4580    0.9570 N.3    60  TRP60      -0.1241
     30  CA      -115.1960  267.3100    1.9330 C.3    60  TRP60       0.1605
     31  C       -114.9200  266.6480    3.2860 C.2    60  TRP60       0.2264
     32  O       -114.8020  267.3360    4.2990 O.2    60  TRP60      -0.2867
     33  CB      -115.9550  268.6320    2.1430 C.3    60  TRP60       0.0550
     34  CG      -116.0720  269.4510    0.9100 C.ar   60  TRP60       0.0003
     35  CD1     -117.2230  269.8120    0.2710 C.ar   60  TRP60       0.0946
     36  CD2     -114.9990  270.0080    0.1480 C.ar   60  TRP60       0.0152
     37  NE1     -116.9330  270.5580   -0.8400 N.ar   60  TRP60      -0.2442
     38  CE2     -115.5750  270.6920   -0.9430 C.ar   60  TRP60       0.0810
     39  CE3     -113.6060  269.9880    0.2760 C.ar   60  TRP60       0.0012
     40  CZ2     -114.8070  271.3570   -1.8960 C.ar   60  TRP60       0.0191
     41  CZ3     -112.8430  270.6480   -0.6760 C.ar   60  TRP60       0.0001
     42  CH2     -113.4470  271.3230   -1.7470 C.ar   60  TRP60       0.0015
     43  N       -113.0950  272.4250   -8.6380 N.3   152  ASP152     -0.1239
     44  CA      -113.6180  272.8690   -7.3510 C.3   152  ASP152      0.1674
     45  C       -112.6210  272.4420   -6.2710 C.2   152  ASP152      0.2266
     46  O       -112.8200  271.4410   -5.5720 O.2   152  ASP152     -0.2867
     47  CB      -115.0100  272.2770   -7.0950 C.3   152  ASP152      0.1410
     48  CG      -115.6140  272.7330   -5.7710 C.2   152  ASP152      0.3668
     49  OD1     -115.2810  273.8410   -5.2990 O.co2 152  ASP152     -0.2456
     50  OD2     -116.4250  271.9760   -5.2000 O.co2 152  ASP152     -0.2456
     51  N       -128.8480  269.5150   -7.9240 N.3   271  TRP271     -0.1227
     52  CA      -129.7380  268.9150   -6.9330 C.3   271  TRP271      0.1737
     53  C       -130.7910  269.9010   -6.4270 C.2   271  TRP271      0.2596
     54  O       -131.9380  269.5230   -6.1970 O.2   271  TRP271     -0.2718
     55  CB      -128.9310  268.3360   -5.7600 C.3   271  TRP271      0.0564
     56  CG      -128.4420  269.3590   -4.7890 C.ar  271  TRP271      0.0003
     57  CD1     -127.2460  270.0090   -4.8140 C.ar  271  TRP271      0.0946
     58  CD2     -129.1490  269.8550   -3.6490 C.ar  271  TRP271      0.0152
     59  NE1     -127.1600  270.8800   -3.7530 N.ar  271  TRP271     -0.2442
     60  CE2     -128.3170  270.8070   -3.0230 C.ar  271  TRP271      0.0810
     61  CE3     -130.4080  269.5890   -3.0950 C.ar  271  TRP271      0.0012
     62  CZ2     -128.7010  271.4920   -1.8710 C.ar  271  TRP271      0.0191
     63  CZ3     -130.7870  270.2680   -1.9440 C.ar  271  TRP271      0.0001
     64  CH2     -129.9380  271.2110   -1.3490 C.ar  271  TRP271      0.0015
     65  N       -130.4000  271.1670   -6.2890 N.am  272  SER272     -0.1938
     66  CA      -131.2190  272.1740   -5.6120 C.3   272  SER272      0.2055
     67  C       -132.2540  272.8510   -6.5080 C.2   272  SER272      0.2643
     68  O       -133.0900  273.6020   -6.0200 O.2   272  SER272     -0.2714
     69  CB      -130.3210  273.2420   -4.9840 C.3   272  SER272      0.2130
     70  OG      -129.5500  273.9030   -5.9690 O.3   272  SER272     -0.2179
     71  N       -132.1940  272.5940   -7.8100 N.am  273  LEU273     -0.1963
     72  CA      -133.1610  273.1490   -8.7520 C.3   273  LEU273      0.1713
     73  C       -134.5520  272.5620   -8.4750 C.2   273  LEU273      0.2458
     74  O       -134.7330  271.3430   -8.5790 O.2   273  LEU273     -0.2730
     75  CB      -132.7290  272.8220  -10.1850 C.3   273  LEU273      0.0310
     76  CG      -133.5920  273.3260  -11.3460 C.3   273  LEU273      0.0022
     77  CD1     -133.4860  274.8380  -11.4840 C.3   273  LEU273      0.0001
     78  CD2     -133.1770  272.6430  -12.6420 C.3   273  LEU273      0.0001
     79  N       -135.5340  273.4140   -8.1100 N.am  274  PRO274     -0.2727
     80  CA      -136.8680  272.8750   -7.8520 C.3   274  PRO274      0.1402
     81  C       -137.4860  272.2530   -9.0940 C.2   274  PRO274      0.2269
     82  O       -137.4830  272.8680  -10.1690 O.2   274  PRO274     -0.2865
     83  CB      -137.6780  274.0970   -7.3970 C.3   274  PRO274      0.0296
     84  CG      -136.8980  275.2860   -7.8410 C.3   274  PRO274      0.0237
     85  CD      -135.4610  274.8600   -7.8310 C.3   274  PRO274      0.0939
     86  N       -128.9360  264.9270    0.0610 N.3   317  PHE317     -0.1241
     87  CA      -128.9750  266.3460    0.4260 C.3   317  PHE317      0.1605
     88  C       -130.2150  266.6310    1.2600 C.2   317  PHE317      0.2264
     89  O       -131.2060  265.8990    1.1760 O.2   317  PHE317     -0.2867
     90  CB      -129.0540  267.2370   -0.8240 C.3   317  PHE317      0.0534
     91  CG      -127.8180  267.2240   -1.6810 C.ar  317  PHE317     -0.0203
     92  CD1     -126.7940  268.1350   -1.4590 C.ar  317  PHE317     -0.0042
     93  CD2     -127.6980  266.3330   -2.7420 C.ar  317  PHE317     -0.0042
     94  CE1     -125.6620  268.1400   -2.2570 C.ar  317  PHE317     -0.0003
     95  CE2     -126.5680  266.3290   -3.5390 C.ar  317  PHE317     -0.0003
     96  CZ      -125.5470  267.2320   -3.2960 C.ar  317  PHE317     -0.0000
     97  N       -134.2730  272.9360    1.2310 N.3   320  TYR320     -0.1227
     98  CA      -134.3800  274.2870    1.7900 C.3   320  TYR320      0.1736
     99  C       -135.7290  274.9220    1.4820 C.2   320  TYR320      0.2595
    100  O       -136.3650  274.5890    0.4830 O.2   320  TYR320     -0.2718
    101  CB      -133.3100  275.1980    1.1890 C.3   320  TYR320      0.0548
    102  CG      -131.8820  274.8970    1.5800 C.ar  320  TYR320     -0.0200
    103  CD1     -131.3960  275.2380    2.8410 C.ar  320  TYR320     -0.0009
    104  CD2     -130.9970  274.3250    0.6670 C.ar  320  TYR320     -0.0009
    105  CE1     -130.0770  274.9870    3.1950 C.ar  320  TYR320      0.0417
    106  CE2     -129.6750  274.0720    1.0130 C.ar  320  TYR320      0.0417
    107  CZ      -129.2220  274.4020    2.2770 C.ar  320  TYR320      0.1957
    108  OH      -127.9140  274.1560    2.6150 O.3   320  TYR320     -0.2866
    109  N       -136.1450  275.8570    2.3330 N.am  321  HIS321     -0.1975
    110  CA      -137.2740  276.7410    2.0360 C.3   321  HIS321      0.1656
    111  C       -136.9610  277.5390    0.7700 C.2   321  HIS321      0.2291
    112  O       -135.8200  277.9600    0.5910 O.2   321  HIS321     -0.2864
    113  CB      -137.5030  277.7060    3.2030 C.3   321  HIS321      0.0771
    114  CG      -138.5700  278.7290    2.9580 C.ar  321  HIS321      0.0820
    115  ND1     -139.8720  278.5600    3.3730 N.ar  321  HIS321     -0.2267
    116  CD2     -138.5250  279.9390    2.3490 C.ar  321  HIS321      0.1154
    117  CE1     -140.5840  279.6180    3.0270 C.ar  321  HIS321      0.1986
    118  NE2     -139.7910  280.4680    2.4030 N.ar  321  HIS321     -0.2212
    119  N       -138.6930  275.1480   -0.9380 N.3   323  HIS323     -0.1241
    120  CA      -138.8290  273.9420   -1.7580 C.3   323  HIS323      0.1621
    121  C       -138.5360  272.6680   -0.9700 C.2   323  HIS323      0.2264
    122  O       -137.6360  271.9060   -1.3340 O.2   323  HIS323     -0.2867
    123  CB      -137.8870  274.0280   -2.9640 C.3   323  HIS323      0.0745
    124  CG      -138.0970  275.2460   -3.8040 C.ar  323  HIS323      0.0817
    125  ND1     -139.2880  275.5100   -4.4440 N.ar  323  HIS323     -0.2268
    126  CD2     -137.2670  276.2680   -4.1170 C.ar  323  HIS323      0.1154
    127  CE1     -139.1840  276.6440   -5.1140 C.ar  323  HIS323      0.1986
    128  NE2     -137.9690  277.1270   -4.9280 N.ar  323  HIS323     -0.2212
    129  N       -136.7560  269.3620   -4.3930 N.3   327  GLN327     -0.1245
    130  CA      -135.3300  269.2060   -4.6830 C.3   327  GLN327      0.1566
    131  C       -134.9410  267.7200   -4.6890 C.2   327  GLN327      0.2260
    132  O       -135.7290  266.8710   -4.2560 O.2   327  GLN327     -0.2867
    133  CB      -134.5030  270.0240   -3.6810 C.3   327  GLN327      0.0367
    134  CG      -134.7730  271.5210   -3.8030 C.3   327  GLN327      0.0905
    135  CD      -134.0480  272.3750   -2.7710 C.2   327  GLN327      0.2608
    136  OE1     -134.0250  272.0560   -1.5820 O.2   327  GLN327     -0.2717
    137  NE2     -133.4760  273.4850   -3.2210 N.am  327  GLN327     -0.0878
    138  N       -137.2430  268.2070    4.1900 N.3   333  ARG333     -0.1245
    139  CA      -136.9560  268.8650    5.4620 C.3   333  ARG333      0.1563
    140  C       -137.9310  269.9990    5.7480 C.2   333  ARG333      0.2260
    141  O       -138.2210  270.8180    4.8770 O.2   333  ARG333     -0.2867
    142  CB      -135.5270  269.4070    5.4860 C.3   333  ARG333      0.0307
    143  CG      -135.1460  270.0410    6.8120 C.3   333  ARG333      0.0489
    144  CD      -133.6540  270.3060    6.9250 C.3   333  ARG333      0.2205
    145  NE      -133.1310  271.1600    5.8560 N.pl3 333  ARG333     -0.0865
    146  CZ      -131.9390  271.7600    5.8810 C.cat 333  ARG333      0.5346
    147  NH1     -131.1240  271.6330    6.9280 N.pl3 333  ARG333      0.1354
    148  NH2     -131.5590  272.5090    4.8540 N.pl3 333  ARG333      0.1354
    149  N       -137.9640  272.8330    8.6310 N.3   335  GLN335     -0.1245
    150  CA      -137.4100  273.5400    9.7670 C.3   335  GLN335      0.1566
    151  C       -138.5580  274.2830   10.4400 C.2   335  GLN335      0.2260
    152  O       -139.0000  275.3270    9.9570 O.2   335  GLN335     -0.2867
    153  CB      -136.3150  274.5060    9.3090 C.3   335  GLN335      0.0367
    154  CG      -135.1280  273.8090    8.6560 C.3   335  GLN335      0.0905
    155  CD      -134.2890  274.7420    7.8030 C.2   335  GLN335      0.2608
    156  OE1     -134.8210  275.5100    7.0090 O.2   335  GLN335     -0.2717
    157  NE2     -132.9710  274.6800    7.9640 N.am  335  GLN335     -0.0878
    158  N       -139.6190  276.4990   12.8990 N.3   337  ASN337     -0.1240
    159  CA      -138.9500  277.5050   13.7150 C.3   337  ASN337      0.1653
    160  C       -139.8310  278.1150   14.8110 C.2   337  ASN337      0.2266
    161  O       -139.3160  278.7360   15.7400 O.2   337  ASN337     -0.2867
    162  CB      -138.4010  278.6180   12.8170 C.3   337  ASN337      0.1155
    163  CG      -137.4000  278.1140   11.7850 C.2   337  ASN337      0.2627
    164  OD1     -136.8880  276.9970   11.8810 O.2   337  ASN337     -0.2716
    165  ND2     -137.1130  278.9620   10.7770 N.am  337  ASN337     -0.0877
    166  N       -145.9390  276.5750    5.6560 N.3   459  VAL459     -0.1231
    167  CA      -144.4930  276.7360    5.7950 C.3   459  VAL459      0.1692
    168  C       -144.0140  276.0830    7.0900 C.2   459  VAL459      0.2592
    169  O       -143.0130  275.3680    7.0880 O.2   459  VAL459     -0.2718
    170  CB      -144.0710  278.2250    5.7510 C.3   459  VAL459      0.0266
    171  CG1     -142.5730  278.3760    5.9840 C.3   459  VAL459      0.0020
    172  CG2     -144.4580  278.8490    4.4140 C.3   459  VAL459      0.0020
    173  N       -144.7240  276.3500    8.1870 N.am  460  PHE460     -0.1976
    174  CA      -144.5400  275.6230    9.4400 C.3   460  PHE460      0.1639
    175  C       -145.7920  274.7850    9.6870 C.2   460  PHE460      0.2290
    176  O       -146.7570  275.2800   10.2630 O.2   460  PHE460     -0.2864
    177  CB      -144.3310  276.5770   10.6280 C.3   460  PHE460      0.0560
    178  CG      -143.1600  277.5140   10.4830 C.ar  460  PHE460     -0.0200
    179  CD1     -141.9620  277.0950    9.9140 C.ar  460  PHE460     -0.0042
    180  CD2     -143.2480  278.8180   10.9640 C.ar  460  PHE460     -0.0042
    181  CE1     -140.8910  277.9680    9.8000 C.ar  460  PHE460     -0.0003
    182  CE2     -142.1780  279.6910   10.8560 C.ar  460  PHE460     -0.0003
    183  CZ      -140.9980  279.2660   10.2720 C.ar  460  PHE460     -0.0000
@<TRIPOS>BOND
     1    78    76    1
     2    77    76    1
     3    76    75    1
     4    75    72    1
     5    82    81    2
     6    81    80    1
     7    72    73    1
     8    72    71    1
     9    43    44    1
    10    74    73    2
    11    73    79   am
    12    79    80    1
    13    79    85    1
    14    51    52    1
    15    80    83    1
    16    84    85    1
    17    84    83    1
    18    71    67   am
    19    44    47    1
    20    44    45    1
    21    47    48    1
    22    52    53    1
    23    52    55    1
    24    67    68    2
    25    67    66    1
    26    53    65   am
    27    53    54    2
    28    65    66    1
    29    45    46    2
    30    70    69    1
    31    48    49   ar
    32    48    50   ar
    33    55    56    1
    34    66    69    1
    35   127   128   ar
    36   127   125   ar
    37   128   126   ar
    38    57    56   ar
    39    57    59   ar
    40    56    58   ar
    41   131   130    1
    42   131   132    2
    43   130   129    1
    44   130   133    1
    45   125   124   ar
    46   126   124   ar
    47   124   123    1
    48   134   133    1
    49   134   135    1
    50    59    60   ar
    51    58    61   ar
    52    58    60   ar
    53    95    96   ar
    54    95    93   ar
    55    96    94   ar
    56   137   135   am
    57    61    63   ar
    58    60    62   ar
    59   123   120    1
    60   135   136    2
    61    93    91   ar
    62    94    92   ar
    63    63    64   ar
    64    40    42   ar
    65    40    38   ar
    66    62    64   ar
    67   120   121    1
    68   120   119    1
    69    42    41   ar
    70     5     6    1
    71     5     2    1
    72    91    92   ar
    73    91    90    1
    74   122   121    2
    75    38    37   ar
    76    38    36   ar
    77    37    35   ar
    78    90    87    1
    79    41    39   ar
    80     1     2    1
    81    27    26    1
    82     2     3    1
    83    28    26    1
    84    86    87    1
    85    36    39   ar
    86    36    34   ar
    87    35    34   ar
    88    87    88    1
    89    26    25    1
    90     4     3    2
    91   100    99    2
    92   112   111    2
    93     3     7   am
    94   104   106   ar
    95   104   102   ar
    96   111   110    1
    97    34    33    1
    98    29    30    1
    99   106   107   ar
   100    89    88    2
   101   101   102    1
   102   101    98    1
   103    97    98    1
   104    99    98    1
   105    99   109   am
   106    10     9    2
   107   102   103   ar
   108    25    22    1
   109     7    13    1
   110     7     8    1
   111    30    33    1
   112    30    31    1
   113   110   109    1
   114   110   113    1
   115    21    22    1
   116    21    16   am
   117    13    12    1
   118    15    14    1
   119    15    16    1
   120    15    18    1
   121   107   108    1
   122   107   105   ar
   123     9    14   am
   124     9     8    1
   125   116   118   ar
   126   116   114   ar
   127   118   117   ar
   128    22    23    1
   129    14    20    1
   130    16    17    2
   131     8    11    1
   132    18    19    1
   133   103   105   ar
   134   114   113    1
   135   114   115   ar
   136   117   115   ar
   137    31    32    2
   138    12    11    1
   139    20    19    1
   140    23    24    2
   141   138   139    1
   142   172   170    1
   143   148   146    1
   144   141   140    2
   145   139   142    1
   146   139   140    1
   147   142   143    1
   148   166   167    1
   149   170   167    1
   150   170   171    1
   151   167   168    1
   152   145   146    2
   153   145   144    1
   154   146   147    1
   155   143   144    1
   156   156   155    2
   157   169   168    2
   158   168   173   am
   159   155   157   am
   160   155   154    1
   161   173   174    1
   162   149   150    1
   163   154   153    1
   164   153   150    1
   165   174   175    1
   166   174   177    1
   167   175   176    2
   168   150   151    1
   169   181   179   ar
   170   181   183   ar
   171   179   178   ar
   172   152   151    2
   173   183   182   ar
   174   178   177    1
   175   178   180   ar
   176   165   163   am
   177   182   180   ar
   178   163   164    2
   179   163   162    1
   180   162   159    1
   181   158   159    1
   182   159   160    1
   183   160   161    2
