@<TRIPOS>MOLECULE
tmp/4mj8A01.pdb
 113 115 0 0 0
SMALL
GASTEIGER

@<TRIPOS>ATOM
      1  N        -15.3080  -43.0970   28.8740 N.3    29  TYR29      -0.1227
      2  CA       -14.9860  -43.8870   30.1120 C.3    29  TYR29       0.1736
      3  C        -13.8420  -44.8650   29.9440 C.2    29  TYR29       0.2595
      4  O        -13.2690  -45.3560   30.9320 O.2    29  TYR29      -0.2718
      5  CB       -16.1980  -44.6700   30.6380 C.3    29  TYR29       0.0548
      6  CG       -17.3340  -43.7950   31.0390 C.ar   29  TYR29      -0.0200
      7  CD1      -17.2950  -43.0920   32.2390 C.ar   29  TYR29      -0.0009
      8  CD2      -18.4610  -43.6700   30.2350 C.ar   29  TYR29      -0.0009
      9  CE1      -18.3400  -42.2800   32.6250 C.ar   29  TYR29       0.0417
     10  CE2      -19.5050  -42.8520   30.5990 C.ar   29  TYR29       0.0417
     11  CZ       -19.4450  -42.1700   31.8010 C.ar   29  TYR29       0.1957
     12  OH       -20.4870  -41.3650   32.1830 O.3    29  TYR29      -0.2866
     13  N        -13.5540  -45.2340   28.6910 N.am   30  TRP30      -0.1962
     14  CA       -12.4580  -46.1030   28.4050 C.3    30  TRP30       0.1771
     15  C        -11.2450  -45.3920   27.7720 C.2    30  TRP30       0.2620
     16  O        -10.2700  -46.0570   27.4050 O.2    30  TRP30      -0.2715
     17  CB       -12.9100  -47.2530   27.5180 C.3    30  TRP30       0.0590
     18  CG       -13.5970  -48.2970   28.2300 C.ar   30  TRP30       0.0006
     19  CD1      -14.2210  -48.2180   29.4670 C.ar   30  TRP30       0.0946
     20  CD2      -13.9140  -49.5630   27.7020 C.ar   30  TRP30       0.0152
     21  NE1      -14.8140  -49.4050   29.7540 N.ar   30  TRP30      -0.2442
     22  CE2      -14.6540  -50.2470   28.6810 C.ar   30  TRP30       0.0810
     23  CE3      -13.6110  -50.2100   26.4970 C.ar   30  TRP30       0.0012
     24  CZ2      -15.1020  -51.5460   28.4940 C.ar   30  TRP30       0.0191
     25  CZ3      -14.0580  -51.5000   26.3130 C.ar   30  TRP30       0.0001
     26  CH2      -14.7780  -52.1600   27.3050 C.ar   30  TRP30       0.0015
     27  N        -11.3420  -44.0860   27.6550 N.am   31  PHE31      -0.1960
     28  CA       -10.2820  -43.2120   27.1230 C.3    31  PHE31       0.1771
     29  C        -10.0010  -43.5940   25.6910 C.2    31  PHE31       0.2619
     30  O         -8.8290  -43.6020   25.2610 O.2    31  PHE31      -0.2715
     31  CB        -9.0280  -43.3470   28.0010 C.3    31  PHE31       0.0574
     32  CG        -9.3590  -43.3590   29.4700 C.ar   31  PHE31      -0.0200
     33  CD1       -9.8970  -42.2490   30.0390 C.ar   31  PHE31      -0.0042
     34  CD2       -9.2410  -44.5250   30.2310 C.ar   31  PHE31      -0.0042
     35  CE1      -10.2920  -42.2380   31.3730 C.ar   31  PHE31      -0.0003
     36  CE2       -9.6140  -44.5300   31.5680 C.ar   31  PHE31      -0.0003
     37  CZ       -10.1380  -43.3780   32.1380 C.ar   31  PHE31      -0.0000
     38  N        -11.0740  -43.9420   24.9760 N.am   32  GLU32      -0.1977
     39  CA       -10.9440  -44.3840   23.5860 C.3    32  GLU32       0.1602
     40  C        -11.7040  -43.5100   22.6340 C.2    32  GLU32       0.2287
     41  O        -12.6700  -42.8060   23.0070 O.2    32  GLU32      -0.2864
     42  CB       -11.2030  -45.8970   23.4350 C.3    32  GLU32       0.0415
     43  CG       -10.0360  -46.6930   24.0560 C.3    32  GLU32       0.1163
     44  CD       -10.1210  -48.1940   23.9470 C.2    32  GLU32       0.3649
     45  OE1      -10.4470  -48.6860   22.8540 O.co2  32  GLU32      -0.2457
     46  OE2       -9.7900  -48.8810   24.9450 O.co2  32  GLU32      -0.2457
     47  N         -8.1880  -57.3960   30.2400 N.3    73  ILE73      -0.1231
     48  CA        -7.1780  -57.2770   29.2000 C.3    73  ILE73       0.1692
     49  C         -5.7600  -57.2150   29.7520 C.2    73  ILE73       0.2591
     50  O         -5.5810  -57.0600   30.9420 O.2    73  ILE73      -0.2718
     51  CB        -7.4290  -56.0590   28.2800 C.3    73  ILE73       0.0266
     52  CG1       -7.3820  -54.7300   29.0670 C.3    73  ILE73       0.0019
     53  CG2       -8.7980  -56.1880   27.6220 C.3    73  ILE73       0.0020
     54  CD1       -7.3810  -53.4780   28.1900 C.3    73  ILE73       0.0001
     55  N         -4.7830  -57.3510   28.8540 N.am   74  GLU74      -0.1979
     56  CA        -3.3430  -57.3500   29.1820 C.3    74  GLU74       0.1602
     57  C         -3.0980  -58.4160   30.2350 C.2    74  GLU74       0.2287
     58  O         -2.3490  -58.2130   31.1630 O.2    74  GLU74      -0.2864
     59  CB        -2.8740  -55.9840   29.7340 C.3    74  GLU74       0.0415
     60  CG        -3.0370  -54.8230   28.7580 C.3    74  GLU74       0.1163
     61  CD        -1.9100  -54.7560   27.7540 C.2    74  GLU74       0.3649
     62  OE1       -2.0590  -55.2940   26.6540 O.co2  74  GLU74      -0.2457
     63  OE2       -0.8380  -54.2320   28.0950 O.co2  74  GLU74      -0.2457
     64  N         -5.9540  -55.8790   33.4540 N.3    83  GLU83      -0.1231
     65  CA        -6.7450  -54.6540   33.5940 C.3    83  GLU83       0.1699
     66  C         -8.2440  -55.0140   33.3750 C.2    83  GLU83       0.2592
     67  O         -8.6110  -55.7310   32.4500 O.2    83  GLU83      -0.2718
     68  CB        -6.2970  -53.5900   32.5780 C.3    83  GLU83       0.0402
     69  CG        -7.1120  -52.3170   32.7270 C.3    83  GLU83       0.1161
     70  CD        -6.6580  -51.1420   31.8890 C.2    83  GLU83       0.3649
     71  OE1       -5.7190  -51.2860   31.0820 O.co2  83  GLU83      -0.2457
     72  OE2       -7.3090  -50.0610   32.0300 O.co2  83  GLU83      -0.2457
     73  N         -9.0820  -54.4690   34.2170 N.am   84  PHE84      -0.1962
     74  CA       -10.5050  -54.6340   34.1680 C.3    84  PHE84       0.1771
     75  C        -11.1380  -53.3650   33.6380 C.2    84  PHE84       0.2619
     76  O        -10.7870  -52.2370   34.0350 O.2    84  PHE84      -0.2715
     77  CB       -11.0250  -54.9120   35.5740 C.3    84  PHE84       0.0574
     78  CG       -12.5050  -54.6500   35.7680 C.ar   84  PHE84      -0.0200
     79  CD1      -13.4670  -55.5110   35.2840 C.ar   84  PHE84      -0.0042
     80  CD2      -12.9320  -53.5520   36.5000 C.ar   84  PHE84      -0.0042
     81  CE1      -14.8190  -55.2670   35.4930 C.ar   84  PHE84      -0.0003
     82  CE2      -14.2770  -53.3020   36.7040 C.ar   84  PHE84      -0.0003
     83  CZ       -15.2250  -54.1670   36.2090 C.ar   84  PHE84      -0.0000
     84  N        -12.0390  -53.5370   32.6930 N.am   85  GLN85      -0.1977
     85  CA       -12.7930  -52.4100   32.2120 C.3    85  GLN85       0.1601
     86  C        -14.2220  -52.8480   31.9990 C.2    85  GLN85       0.2287
     87  O        -14.5130  -54.0290   31.7380 O.2    85  GLN85      -0.2864
     88  CB       -12.1370  -51.7610   31.0090 C.3    85  GLN85       0.0394
     89  CG       -11.9400  -52.6090   29.8040 C.3    85  GLN85       0.0908
     90  CD       -11.0130  -51.9560   28.7850 C.2    85  GLN85       0.2608
     91  OE1      -10.5290  -50.8450   28.9760 O.2    85  GLN85      -0.2717
     92  NE2      -10.7550  -52.6710   27.7070 N.am   85  GLN85      -0.0878
     93  N         -8.3970  -48.0830   35.5910 N.3   121  HIS121     -0.1241
     94  CA        -8.1960  -46.6660   35.5010 C.3   121  HIS121      0.1621
     95  C         -9.5800  -46.0200   35.4800 C.2   121  HIS121      0.2264
     96  O        -10.4870  -46.5060   34.8070 O.2   121  HIS121     -0.2867
     97  CB        -7.4610  -46.2880   34.2080 C.3   121  HIS121      0.0745
     98  CG        -6.0810  -46.8280   34.1320 C.ar  121  HIS121      0.0817
     99  ND1       -5.7950  -48.0330   33.5300 N.ar  121  HIS121     -0.2268
    100  CD2       -4.9040  -46.3510   34.6020 C.ar  121  HIS121      0.1154
    101  CE1       -4.5040  -48.2880   33.6560 C.ar  121  HIS121      0.1986
    102  NE2       -3.9420  -47.2870   34.3110 N.ar  121  HIS121     -0.2212
    103  N         -4.5690  -38.8210   29.7280 N.3   148  PHE148     -0.1241
    104  CA        -5.3990  -38.9800   28.5370 C.3   148  PHE148      0.1605
    105  C         -6.0250  -37.7040   28.0670 C.2   148  PHE148      0.2264
    106  O         -6.3850  -36.8270   28.8620 O.2   148  PHE148     -0.2867
    107  CB        -6.5390  -39.9860   28.8220 C.3   148  PHE148      0.0534
    108  CG        -6.0840  -41.3580   29.2170 C.ar  148  PHE148     -0.0203
    109  CD1       -5.4180  -42.1580   28.3390 C.ar  148  PHE148     -0.0042
    110  CD2       -6.4440  -41.9010   30.4470 C.ar  148  PHE148     -0.0042
    111  CE1       -5.0000  -43.4520   28.6710 C.ar  148  PHE148     -0.0003
    112  CE2       -6.0600  -43.1790   30.7890 C.ar  148  PHE148     -0.0003
    113  CZ        -5.3260  -43.9670   29.8980 C.ar  148  PHE148     -0.0000
@<TRIPOS>BOND
     1    40    41    2
     2    40    39    1
     3    45    44   ar
     4    42    39    1
     5    42    43    1
     6    39    38    1
     7    44    43    1
     8    44    46   ar
     9    38    29   am
    10    30    29    2
    11    29    28    1
    12    25    23   ar
    13    25    26   ar
    14    23    20   ar
    15    62    61   ar
    16    28    27    1
    17    28    31    1
    18    26    24   ar
    19    16    15    2
    20    17    18    1
    21    17    14    1
    22    53    51    1
    23    27    15   am
    24    20    18   ar
    25    20    22   ar
    26    92    90   am
    27    61    63   ar
    28    61    60    1
    29    15    14    1
    30    31    32    1
    31   105   104    1
    32   105   106    2
    33    54    52    1
    34    18    19   ar
    35    51    52    1
    36    51    48    1
    37   109   111   ar
    38   109   108   ar
    39    14    13    1
    40    24    22   ar
    41   104   107    1
    42   104   103    1
    43   111   113   ar
    44    22    21   ar
    45    13     3   am
    46    60    59    1
    47    90    91    2
    48    90    89    1
    49   107   108    1
    50    55    56    1
    51    55    49   am
    52     1     2    1
    53    56    59    1
    54    56    57    1
    55    48    49    1
    56    48    47    1
    57   108   110   ar
    58    19    21   ar
    59    32    33   ar
    60    32    34   ar
    61    49    50    2
    62    89    88    1
    63   113   112   ar
    64     3     2    1
    65     3     4    2
    66    33    35   ar
    67     2     5    1
    68    34    36   ar
    69     8    10   ar
    70     8     6   ar
    71    57    58    2
    72   110   112   ar
    73    10    11   ar
    74     5     6    1
    75    88    85    1
    76     6     7   ar
    77    71    70   ar
    78    35    37   ar
    79    36    37   ar
    80    87    86    2
    81    11    12    1
    82    11     9   ar
    83    70    72   ar
    84    70    69    1
    85    86    85    1
    86    85    84    1
    87     7     9   ar
    88    67    66    2
    89    68    69    1
    90    68    65    1
    91    84    75   am
    92    66    65    1
    93    66    73   am
    94    64    65    1
    95    99   101   ar
    96    99    98   ar
    97    75    76    2
    98    75    74    1
    99   101   102   ar
   100    98    97    1
   101    98   100   ar
   102    74    73    1
   103    74    77    1
   104    97    94    1
   105   102   100   ar
   106    96    95    2
   107    79    81   ar
   108    79    78   ar
   109    95    94    1
   110    81    83   ar
   111    94    93    1
   112    77    78    1
   113    78    80   ar
   114    83    82   ar
   115    80    82   ar
