@<TRIPOS>MOLECULE
tmp/4mjfA00.pdb
 84 82 0 0 0
SMALL
GASTEIGER

@<TRIPOS>ATOM
      1  N         14.4500   72.6610   24.4650 N.3     5  PHE5       -0.1227
      2  CA        15.7440   72.8970   23.8240 C.3     5  PHE5        0.1736
      3  C         15.6830   72.7870   22.2900 C.2     5  PHE5        0.2595
      4  O         16.2750   73.6100   21.6120 O.2     5  PHE5       -0.2718
      5  CB        16.8410   71.9380   24.3700 C.3     5  PHE5        0.0547
      6  CG        18.1900   72.3410   23.8130 C.ar    5  PHE5       -0.0202
      7  CD1       18.8810   73.4240   24.3450 C.ar    5  PHE5       -0.0042
      8  CD2       18.7020   71.7250   22.6720 C.ar    5  PHE5       -0.0042
      9  CE1       20.0740   73.8580   23.7770 C.ar    5  PHE5       -0.0003
     10  CE2       19.9090   72.1560   22.1080 C.ar    5  PHE5       -0.0003
     11  CZ        20.5740   73.2340   22.6520 C.ar    5  PHE5       -0.0000
     12  N         15.0090   71.7660   21.7570 N.am    6  ALA6       -0.1980
     13  CA        14.9010   71.5290   20.3150 C.3     6  ALA6        0.1597
     14  C         14.2410   72.7250   19.6060 C.2     6  ALA6        0.2287
     15  O         14.7260   73.1800   18.5690 O.2     6  ALA6       -0.2864
     16  CB        14.0900   70.2570   20.0580 C.3     6  ALA6        0.0319
     17  N         16.5850   75.7260   19.8560 N.3     9  PHE9       -0.1241
     18  CA        17.7290   75.5140   18.9950 C.3     9  PHE9        0.1605
     19  C         17.4320   75.9040   17.5660 C.2     9  PHE9        0.2264
     20  O         18.2260   76.6320   16.9570 O.2     9  PHE9       -0.2867
     21  CB        18.1900   74.0600   19.0830 C.3     9  PHE9        0.0534
     22  CG        19.4660   73.7760   18.3410 C.ar    9  PHE9       -0.0203
     23  CD1       20.7020   74.0680   18.9120 C.ar    9  PHE9       -0.0042
     24  CD2       19.4380   73.1940   17.0840 C.ar    9  PHE9       -0.0042
     25  CE1       21.8890   73.7480   18.2400 C.ar    9  PHE9       -0.0003
     26  CE2       20.6230   72.9100   16.4010 C.ar    9  PHE9       -0.0003
     27  CZ        21.8360   73.1780   16.9890 C.ar    9  PHE9       -0.0000
     28  N         24.3440   73.6710   13.1340 N.3    48  PHE48      -0.1241
     29  CA        24.2440   72.6000   12.1550 C.3    48  PHE48       0.1605
     30  C         22.8430   72.5320   11.5230 C.2    48  PHE48       0.2264
     31  O         22.3580   71.4550   11.1890 O.2    48  PHE48      -0.2867
     32  CB        24.7250   71.2550   12.7160 C.3    48  PHE48       0.0534
     33  CG        24.3840   70.8440   14.1250 C.ar   48  PHE48      -0.0203
     34  CD1       23.1820   70.2160   14.4060 C.ar   48  PHE48      -0.0042
     35  CD2       25.3300   70.9400   15.1400 C.ar   48  PHE48      -0.0042
     36  CE1       22.9130   69.7300   15.6780 C.ar   48  PHE48      -0.0003
     37  CE2       25.0710   70.4300   16.4080 C.ar   48  PHE48      -0.0003
     38  CZ        23.8620   69.8320   16.6730 C.ar   48  PHE48      -0.0000
     39  N         22.9930   65.1220   11.7650 N.3    54  TYR54      -0.1241
     40  CA        23.9000   65.4710   12.8410 C.3    54  TYR54       0.1605
     41  C         24.1300   64.2190   13.6910 C.2    54  TYR54       0.2264
     42  O         23.3860   63.2400   13.5940 O.2    54  TYR54      -0.2867
     43  CB        23.3960   66.6800   13.6750 C.3    54  TYR54       0.0534
     44  CG        22.1400   66.4050   14.4700 C.ar   54  TYR54      -0.0201
     45  CD1       20.8840   66.4390   13.8620 C.ar   54  TYR54      -0.0009
     46  CD2       22.2060   66.0450   15.8120 C.ar   54  TYR54      -0.0009
     47  CE1       19.7290   66.1110   14.5720 C.ar   54  TYR54       0.0417
     48  CE2       21.0580   65.7010   16.5250 C.ar   54  TYR54       0.0417
     49  CZ        19.8180   65.7640   15.9080 C.ar   54  TYR54       0.1957
     50  OH        18.6780   65.4540   16.6200 O.3    54  TYR54      -0.2866
     51  N         26.5100   71.8010   23.1990 N.3    73  ILE73      -0.1245
     52  CA        26.5270   71.4560   21.7840 C.3    73  ILE73       0.1561
     53  C         27.9930   71.4240   21.3900 C.2    73  ILE73       0.2260
     54  O         28.7290   72.3170   21.7990 O.2    73  ILE73      -0.2867
     55  CB        25.6850   72.4500   20.9200 C.3    73  ILE73       0.0252
     56  CG1       24.1630   72.4120   21.2760 C.3    73  ILE73       0.0019
     57  CG2       25.9430   72.2630   19.4250 C.3    73  ILE73       0.0019
     58  CD1       23.4630   71.0880   21.1950 C.3    73  ILE73       0.0001
     59  N         25.5490   66.4570   21.1160 N.3   174  VAL174     -0.1245
     60  CA        24.5380   67.1360   21.9250 C.3   174  VAL174      0.1561
     61  C         24.6710   66.4750   23.2590 C.2   174  VAL174      0.2260
     62  O         24.2290   65.3370   23.4180 O.2   174  VAL174     -0.2867
     63  CB        23.0970   67.0160   21.3470 C.3   174  VAL174      0.0252
     64  CG1       22.0880   67.7320   22.2500 C.3   174  VAL174      0.0019
     65  CG2       23.0200   67.5000   19.9060 C.3   174  VAL174      0.0019
     66  N         18.6200   62.7700   11.3770 N.3   192  GLY192     -0.1210
     67  CA        18.2620   63.7500   10.3590 C.3   192  GLY192      0.1956
     68  C         17.3170   64.8160   10.8680 C.2   192  GLY192      0.2612
     69  O         16.8650   64.7630   12.0150 O.2   192  GLY192     -0.2717
     70  N         16.9990   65.7840   10.0020 N.am  193  PHE193     -0.1962
     71  CA        16.0870   66.8850   10.3210 C.3   193  PHE193      0.1771
     72  C         14.7340   66.7120    9.6050 C.2   193  PHE193      0.2620
     73  O         14.6060   67.0390    8.4190 O.2   193  PHE193     -0.2715
     74  CB        16.7300   68.2370    9.9680 C.3   193  PHE193      0.0574
     75  CG        17.9140   68.6180   10.8340 C.ar  193  PHE193     -0.0200
     76  CD1       17.7250   69.2340   12.0670 C.ar  193  PHE193     -0.0042
     77  CD2       19.2160   68.4110   10.3910 C.ar  193  PHE193     -0.0042
     78  CE1       18.8150   69.6140   12.8520 C.ar  193  PHE193     -0.0003
     79  CE2       20.3080   68.8030   11.1720 C.ar  193  PHE193     -0.0003
     80  CZ        20.0990   69.4080   12.3970 C.ar  193  PHE193     -0.0000
     81  N         13.7450   66.1990   10.3430 N.am  194  GLY194     -0.1954
     82  CA        12.3770   65.9980    9.8650 C.3   194  GLY194      0.1869
     83  C         12.1950   65.0070    8.7300 C.2   194  GLY194      0.2309
     84  O         11.2040   65.0980    7.9920 O.2   194  GLY194     -0.2863
@<TRIPOS>BOND
     1    84    83    2
     2    73    72    2
     3    83    82    1
     4    72    71    1
     5    72    81   am
     6    82    81    1
     7    74    71    1
     8    74    75    1
     9    70    71    1
    10    70    68   am
    11    67    68    1
    12    67    66    1
    13    77    75   ar
    14    77    79   ar
    15    75    76   ar
    16    68    69    2
    17    79    80   ar
    18    31    30    2
    19    30    29    1
    20    39    40    1
    21    76    78   ar
    22    29    32    1
    23    29    28    1
    24    80    78   ar
    25    32    33    1
    26    40    43    1
    27    40    41    1
    28    42    41    2
    29    43    44    1
    30    45    44   ar
    31    45    47   ar
    32    33    34   ar
    33    33    35   ar
    34    34    36   ar
    35    44    46   ar
    36    47    49   ar
    37    35    37   ar
    38    36    38   ar
    39    46    48   ar
    40    49    48   ar
    41    49    50    1
    42    26    27   ar
    43    26    24   ar
    44    37    38   ar
    45    20    19    2
    46    27    25   ar
    47    24    22   ar
    48    19    18    1
    49    25    23   ar
    50    22    23   ar
    51    22    21    1
    52    15    14    2
    53    18    21    1
    54    18    17    1
    55    57    55    1
    56    14    13    1
    57    65    63    1
    58    16    13    1
    59    13    12    1
    60    55    56    1
    61    55    52    1
    62    59    60    1
    63    58    56    1
    64    63    60    1
    65    63    64    1
    66    53    52    1
    67    53    54    2
    68     4     3    2
    69    12     3   am
    70    52    51    1
    71    60    61    1
    72    10    11   ar
    73    10     8   ar
    74     3     2    1
    75    11     9   ar
    76     8     6   ar
    77    61    62    2
    78     9     7   ar
    79     6     7   ar
    80     6     5    1
    81     2     5    1
    82     2     1    1
