@<TRIPOS>MOLECULE
tmp/4mjhA00.pdb
 122 120 0 0 0
SMALL
GASTEIGER

@<TRIPOS>ATOM
      1  N          1.4320   26.7510   46.9230 N.3    22  PRO22      -0.2116
      2  CA         1.4210   27.4320   45.6290 C.3    22  PRO22       0.1372
      3  C          1.5430   28.9350   45.7400 C.2    22  PRO22       0.2244
      4  O          2.1670   29.5650   44.9010 O.2    22  PRO22      -0.2868
      5  CB         0.0510   27.0770   45.0780 C.3    22  PRO22       0.0268
      6  CG        -0.2170   25.7590   45.6290 C.3    22  PRO22       0.0207
      7  CD         0.3660   25.7410   47.0000 C.3    22  PRO22       0.0892
      8  N          5.1470   30.4850   46.4890 N.3    25  LEU25      -0.1231
      9  CA         6.1690   30.3690   45.4760 C.3    25  LEU25       0.1693
     10  C          6.0810   31.4910   44.4750 C.2    25  LEU25       0.2593
     11  O          5.0050   31.9740   44.1630 O.2    25  LEU25      -0.2718
     12  CB         6.0270   29.0460   44.7570 C.3    25  LEU25       0.0284
     13  CG         6.2140   27.8460   45.6610 C.3    25  LEU25       0.0019
     14  CD1        5.5810   26.6680   45.0000 C.3    25  LEU25       0.0001
     15  CD2        7.6770   27.6090   45.8810 C.3    25  LEU25       0.0001
     16  N          7.2350   31.8950   43.9710 N.am   26  THR26      -0.1939
     17  CA         7.3220   32.9680   43.0080 C.3    26  THR26       0.2028
     18  C          8.3020   32.6000   41.9160 C.2    26  THR26       0.2642
     19  O          9.4370   32.2500   42.1910 O.2    26  THR26      -0.2714
     20  CB         7.8230   34.2510   43.6630 C.3    26  THR26       0.1808
     21  OG1        6.8660   34.7020   44.6240 O.3    26  THR26      -0.2208
     22  CG2        8.0300   35.3240   42.6230 C.3    26  THR26       0.0379
     23  N          7.8600   32.6790   40.6730 N.am   27  VAL27      -0.1963
     24  CA         8.7380   32.4170   39.5530 C.3    27  VAL27       0.1727
     25  C          8.8890   33.6550   38.6940 C.2    27  VAL27       0.2616
     26  O          7.9210   34.1800   38.1730 O.2    27  VAL27      -0.2715
     27  CB         8.2140   31.2900   38.6860 C.3    27  VAL27       0.0290
     28  CG1        9.1300   31.0850   37.5110 C.3    27  VAL27       0.0023
     29  CG2        8.0950   30.0310   39.4960 C.3    27  VAL27       0.0023
     30  N         10.1230   34.1020   38.5340 N.am   28  LYS28      -0.1963
     31  CA        10.4000   35.3960   37.9520 C.3    28  LYS28       0.1728
     32  C         11.4580   35.2310   36.8760 C.2    28  LYS28       0.2617
     33  O         12.3920   34.4660   37.0380 O.2    28  LYS28      -0.2715
     34  CB        10.8620   36.3290   39.0690 C.3    28  LYS28       0.0311
     35  CG        11.3790   37.6760   38.6610 C.3    28  LYS28       0.0038
     36  CD        11.8660   38.4460   39.8890 C.3    28  LYS28       0.0206
     37  CE        12.3570   39.8410   39.5210 C.3    28  LYS28       0.1093
     38  NZ        13.1210   40.5100   40.6120 N.3    28  LYS28      -0.1314
     39  N         11.3010   35.9250   35.7610 N.am   29  THR29      -0.1937
     40  CA        12.2260   35.7430   34.6580 C.3    29  THR29       0.2028
     41  C         12.7260   37.0620   34.0950 C.2    29  THR29       0.2642
     42  O         11.9540   37.9900   33.8890 O.2    29  THR29      -0.2714
     43  CB        11.6170   34.8610   33.5550 C.3    29  THR29       0.1808
     44  OG1       12.6020   34.5900   32.5600 O.3    29  THR29      -0.2208
     45  CG2       10.4320   35.5270   32.9160 C.3    29  THR29       0.0379
     46  N         14.0340   37.1440   33.8750 N.am   30  LYS30      -0.1977
     47  CA        14.6670   38.3600   33.3780 C.3    30  LYS30       0.1596
     48  C         16.0710   38.1230   32.8390 C.2    30  LYS30       0.2287
     49  O         16.9110   37.5400   33.5110 O.2    30  LYS30      -0.2864
     50  CB        14.7170   39.4340   34.4620 C.3    30  LYS30       0.0298
     51  CG        15.3690   38.9930   35.7470 C.3    30  LYS30       0.0038
     52  CD        14.3390   38.5900   36.7670 C.3    30  LYS30       0.0206
     53  CE        14.9960   37.9640   37.9590 C.3    30  LYS30       0.1093
     54  NZ        15.7130   36.7410   37.5560 N.3    30  LYS30      -0.1314
     55  N         12.0280   35.0020   27.5840 N.3    66  PRO66      -0.2102
     56  CA        11.4070   35.0160   28.9100 C.3    66  PRO66       0.1504
     57  C          9.9040   35.2370   28.9050 C.2    66  PRO66       0.2576
     58  O          9.2520   35.0630   29.9260 O.2    66  PRO66      -0.2718
     59  CB        12.1010   36.1860   29.5880 C.3    66  PRO66       0.0282
     60  CG        13.4210   36.1900   28.9900 C.3    66  PRO66       0.0208
     61  CD        13.2150   35.8670   27.5540 C.3    66  PRO66       0.0893
     62  N          9.3650   35.6160   27.7610 N.am   67  THR67      -0.1953
     63  CA         7.9310   35.6810   27.5760 C.3    67  THR67       0.1897
     64  C          7.3820   34.2690   27.5310 C.2    67  THR67       0.2313
     65  O          6.2360   34.0180   27.8840 O.2    67  THR67      -0.2863
     66  CB         7.6030   36.3910   26.2550 C.3    67  THR67       0.1794
     67  OG1        8.0770   37.7360   26.3160 O.3    67  THR67      -0.2208
     68  CG2        6.1130   36.4080   25.9920 C.3    67  THR67       0.0378
     69  N          8.5560   31.5520   29.1080 N.3    69  VAL69      -0.1231
     70  CA         8.7730   30.7540   30.3000 C.3    69  VAL69       0.1692
     71  C          7.4890   30.4910   31.0610 C.2    69  VAL69       0.2593
     72  O          6.7400   31.4070   31.3620 O.2    69  VAL69      -0.2718
     73  CB         9.7770   31.4250   31.2230 C.3    69  VAL69       0.0266
     74  CG1        9.6310   30.9060   32.6350 C.3    69  VAL69       0.0020
     75  CG2       11.1700   31.1860   30.7130 C.3    69  VAL69       0.0020
     76  N          7.2350   29.2260   31.3660 N.am   70  SER70      -0.1938
     77  CA         6.0450   28.8600   32.1170 C.3    70  SER70       0.2055
     78  C          6.3660   27.9150   33.2660 C.2    70  SER70       0.2644
     79  O          7.4730   27.4120   33.3730 O.2    70  SER70      -0.2714
     80  CB         4.9730   28.2660   31.1960 C.3    70  SER70       0.2130
     81  OG         5.2160   26.9050   30.8980 O.3    70  SER70      -0.2179
     82  N          5.3860   27.6900   34.1290 N.am   71  SER71      -0.1935
     83  CA         5.5790   26.8250   35.2780 C.3    71  SER71       0.2055
     84  C          4.3540   25.9990   35.6070 C.2    71  SER71       0.2644
     85  O          3.2680   26.2280   35.0850 O.2    71  SER71      -0.2714
     86  CB         5.9780   27.6350   36.5060 C.3    71  SER71       0.2130
     87  OG         7.0720   28.4710   36.2120 O.3    71  SER71      -0.2179
     88  N          4.5570   25.0290   36.4850 N.am   72  SER72      -0.1935
     89  CA         3.4920   24.1730   36.9640 C.3    72  SER72       0.2055
     90  C          3.9420   23.4350   38.2140 C.2    72  SER72       0.2643
     91  O          5.1130   23.1220   38.3730 O.2    72  SER72      -0.2714
     92  CB         3.0440   23.1930   35.8750 C.3    72  SER72       0.2130
     93  OG         4.1160   22.4060   35.3950 O.3    72  SER72      -0.2179
     94  N          2.9980   23.1740   39.1080 N.am   73  LEU73      -0.1963
     95  CA         3.2850   22.4700   40.3430 C.3    73  LEU73       0.1728
     96  C          2.6090   21.1190   40.3310 C.2    73  LEU73       0.2617
     97  O          1.4190   21.0130   40.0750 O.2    73  LEU73      -0.2715
     98  CB         2.7910   23.2680   41.5460 C.3    73  LEU73       0.0311
     99  CG         3.7170   23.3860   42.7580 C.3    73  LEU73       0.0022
    100  CD1        2.9820   23.9970   43.9330 C.3    73  LEU73       0.0001
    101  CD2        4.3050   22.0630   43.1370 C.3    73  LEU73       0.0001
    102  N          3.3800   20.0850   40.6140 N.am   74  SER74      -0.1936
    103  CA         2.8250   18.7640   40.7830 C.3    74  SER74       0.2040
    104  C          2.2030   18.6890   42.1600 C.2    74  SER74       0.2485
    105  O          2.6300   19.3920   43.0630 O.2    74  SER74      -0.2729
    106  CB         3.9300   17.7180   40.6690 C.3    74  SER74       0.2129
    107  OG         4.6460   17.6000   41.8830 O.3    74  SER74      -0.2179
    108  N          1.1890   17.8280   42.3250 N.am   75  PRO75      -0.2726
    109  CA         0.5340   17.5550   43.6060 C.3    75  PRO75       0.1402
    110  C          1.5240   17.1740   44.6900 C.2    75  PRO75       0.2269
    111  O          1.2730   17.4260   45.8650 O.2    75  PRO75      -0.2865
    112  CB        -0.3320   16.3460   43.2870 C.3    75  PRO75       0.0296
    113  CG        -0.6620   16.5060   41.8710 C.3    75  PRO75       0.0237
    114  CD         0.5460   17.0920   41.2260 C.3    75  PRO75       0.0939
    115  N          8.0650   21.6120   41.4490 N.3    79  LEU79      -0.1245
    116  CA         7.8420   22.7190   40.5510 C.3    79  LEU79       0.1561
    117  C          8.6460   22.5490   39.2880 C.2    79  LEU79       0.2260
    118  O          9.8220   22.2250   39.3250 O.2    79  LEU79      -0.2867
    119  CB         8.2210   24.0230   41.2250 C.3    79  LEU79       0.0270
    120  CG         8.1450   25.2480   40.3300 C.3    79  LEU79       0.0019
    121  CD1        6.7560   25.4260   39.7840 C.3    79  LEU79       0.0001
    122  CD2        8.5420   26.4340   41.1340 C.3    79  LEU79       0.0001
@<TRIPOS>BOND
     1    68    66    1
     2    66    67    1
     3    66    63    1
     4    64    63    1
     5    64    65    2
     6    61    55    1
     7    61    60    1
     8    63    62    1
     9    55    56    1
    10    62    57   am
    11    57    56    1
    12    57    58    2
    13    56    59    1
    14    60    59    1
    15    69    70    1
    16    70    71    1
    17    70    73    1
    18    75    73    1
    19    81    80    1
    20    71    72    2
    21    71    76   am
    22    80    77    1
    23    73    74    1
    24    76    77    1
    25    77    78    1
    26    44    43    1
    27    48    47    1
    28    48    49    2
    29    45    43    1
    30    78    79    2
    31    78    82   am
    32    47    46    1
    33    47    50    1
    34    43    40    1
    35    46    41   am
    36    42    41    2
    37    41    40    1
    38    82    83    1
    39    50    51    1
    40    40    39    1
    41    85    84    2
    42    83    84    1
    43    83    86    1
    44    93    92    1
    45    84    88   am
    46    51    52    1
    47    39    32   am
    48    92    89    1
    49    87    86    1
    50    88    89    1
    51    52    53    1
    52    32    33    2
    53    32    31    1
    54    89    90    1
    55    28    27    1
    56    54    53    1
    57    31    30    1
    58    31    34    1
    59    26    25    2
    60    90    91    2
    61    90    94   am
    62    30    25   am
    63    35    34    1
    64    35    36    1
    65    27    29    1
    66    27    24    1
    67    25    24    1
    68    94    95    1
    69   117   118    2
    70   117   116    1
    71    37    36    1
    72    37    38    1
    73    24    23    1
    74   121   120    1
    75    97    96    2
    76   120   122    1
    77   120   119    1
    78    96    95    1
    79    96   102   am
    80    95    98    1
    81   116   119    1
    82   116   115    1
    83   102   103    1
    84   106   103    1
    85   106   107    1
    86    23    18   am
    87   103   104    1
    88   114   113    1
    89   114   108    1
    90    98    99    1
    91   113   112    1
    92    18    19    2
    93    18    17    1
    94   104   108   am
    95   104   105    2
    96   108   109    1
    97    22    20    1
    98    99   101    1
    99    99   100    1
   100    17    20    1
   101    17    16    1
   102   112   109    1
   103   109   110    1
   104    20    21    1
   105    16    10   am
   106    11    10    2
   107    10     9    1
   108   110   111    2
   109    12     9    1
   110    12    13    1
   111     4     3    2
   112    14    13    1
   113     5     6    1
   114     5     2    1
   115     9     8    1
   116     6     7    1
   117     2     3    1
   118     2     1    1
   119    13    15    1
   120     1     7    1
