@<TRIPOS>MOLECULE
tmp/4mjlD01.pdb
 121 118 0 0 0
SMALL
GASTEIGER

@<TRIPOS>ATOM
      1  N        -24.7790  -24.6650   20.0690 N.3    97  LYS97      -0.1245
      2  CA       -23.7720  -24.2530   21.0220 C.3    97  LYS97       0.1561
      3  C        -23.0440  -22.9610   20.5400 C.2    97  LYS97       0.2260
      4  O        -23.0800  -22.6150   19.3680 O.2    97  LYS97      -0.2867
      5  CB       -22.8220  -25.4110   21.3450 C.3    97  LYS97       0.0271
      6  CG       -22.2720  -26.2320   20.1730 C.3    97  LYS97       0.0035
      7  CD       -21.6610  -25.4380   19.0750 C.3    97  LYS97       0.0206
      8  CE       -20.4350  -24.6920   19.5020 C.3    97  LYS97       0.1093
      9  NZ       -19.9380  -23.9340   18.2700 N.3    97  LYS97      -0.1314
     10  N        -23.6050  -31.8470   19.5820 N.3   126  MET126     -0.1230
     11  CA       -23.8770  -33.0390   18.7860 C.3   126  MET126      0.1702
     12  C        -22.8590  -34.1590   18.9640 C.2   126  MET126      0.2592
     13  O        -23.1480  -35.2890   18.5280 O.2   126  MET126     -0.2718
     14  CB       -23.9380  -32.7020   17.2690 C.3   126  MET126      0.0401
     15  CG       -22.5860  -32.6040   16.5910 C.3   126  MET126      0.0596
     16  SD       -21.5970  -31.2640   17.2040 S.3   126  MET126     -0.1393
     17  CE       -20.1360  -31.4910   16.1910 C.3   126  MET126      0.0692
     18  N        -21.6920  -33.8840   19.5470 N.am  127  ARG127     -0.1980
     19  CA       -20.6420  -34.9210   19.6420 C.3   127  ARG127      0.1597
     20  C        -21.1870  -36.1750   20.3490 C.2   127  ARG127      0.2287
     21  O        -20.8130  -37.2920   20.0090 O.2   127  ARG127     -0.2864
     22  CB       -19.4250  -34.4040   20.4170 C.3   127  ARG127      0.0334
     23  CG       -18.6360  -33.2240   19.7740 C.3   127  ARG127      0.0492
     24  CD       -17.7150  -33.7040   18.6750 C.3   127  ARG127      0.2205
     25  NE       -16.9160  -32.6030   18.1850 N.pl3 127  ARG127     -0.0865
     26  CZ       -15.7540  -32.2200   18.7020 C.cat 127  ARG127      0.5346
     27  NH1      -15.2580  -32.8730   19.7360 N.pl3 127  ARG127      0.1354
     28  NH2      -15.0920  -31.1920   18.1890 N.pl3 127  ARG127      0.1354
     29  N         -8.9070  -30.7850   17.9060 N.3   155  HIS155     -0.1241
     30  CA       -10.0210  -30.1390   17.2390 C.3   155  HIS155      0.1621
     31  C         -9.4000  -29.2050   16.1790 C.2   155  HIS155      0.2264
     32  O         -8.8240  -28.1690   16.4810 O.2   155  HIS155     -0.2867
     33  CB       -10.8080  -29.3720   18.2670 C.3   155  HIS155      0.0745
     34  CG       -12.1160  -28.8790   17.7680 C.ar  155  HIS155      0.0817
     35  ND1      -13.1420  -28.5280   18.6240 N.ar  155  HIS155     -0.2268
     36  CD2      -12.6040  -28.7350   16.5180 C.ar  155  HIS155      0.1154
     37  CE1      -14.1840  -28.1460   17.9070 C.ar  155  HIS155      0.1986
     38  NE2      -13.8850  -28.2500   16.6270 N.ar  155  HIS155     -0.2212
     39  N         -9.4910  -27.1790   12.4590 N.3   157  ASN157     -0.1240
     40  CA       -10.3000  -26.5300   11.4140 C.3   157  ASN157      0.1653
     41  C         -9.3110  -25.9680   10.4320 C.2   157  ASN157      0.2266
     42  O         -8.2270  -25.6020   10.8300 O.2   157  ASN157     -0.2867
     43  CB       -11.0780  -25.3100   11.9140 C.3   157  ASN157      0.1155
     44  CG       -12.0980  -25.5970   12.9680 C.2   157  ASN157      0.2627
     45  OD1      -12.4220  -26.7480   13.3560 O.2   157  ASN157     -0.2716
     46  ND2      -12.6810  -24.5330   13.4050 N.am  157  ASN157     -0.0877
     47  N        -14.0380  -14.4030   13.8130 N.3   164  TYR164     -0.1241
     48  CA       -13.6100  -15.3590   14.8220 C.3   164  TYR164      0.1605
     49  C        -12.5500  -14.7220   15.7500 C.2   164  TYR164      0.2264
     50  O        -11.5050  -14.2920   15.2910 O.2   164  TYR164     -0.2867
     51  CB       -13.0700  -16.6030   14.1380 C.3   164  TYR164      0.0534
     52  CG       -12.8460  -17.8080   15.0420 C.ar  164  TYR164     -0.0201
     53  CD1      -11.6880  -17.8950   15.8420 C.ar  164  TYR164     -0.0009
     54  CD2      -13.7470  -18.8910   15.0530 C.ar  164  TYR164     -0.0009
     55  CE1      -11.4560  -19.0130   16.6260 C.ar  164  TYR164      0.0417
     56  CE2      -13.5120  -20.0440   15.8840 C.ar  164  TYR164      0.0417
     57  CZ       -12.3600  -20.0800   16.6260 C.ar  164  TYR164      0.1957
     58  OH       -12.0590  -21.1570   17.4020 O.3   164  TYR164     -0.2866
     59  N        -16.5560  -21.2140   20.9310 N.3   172  ASP172     -0.1225
     60  CA       -17.0960  -21.7510   19.6630 C.3   172  ASP172      0.1805
     61  C        -16.5190  -23.1250   19.3830 C.2   172  ASP172      0.2598
     62  O        -17.1560  -23.9690   18.7610 O.2   172  ASP172     -0.2718
     63  CB       -16.7450  -20.8140   18.4930 C.3   172  ASP172      0.1424
     64  CG       -17.8700  -20.6620   17.4950 C.2   172  ASP172      0.3668
     65  OD1      -19.0410  -20.4060   17.9050 O.co2 172  ASP172     -0.2456
     66  OD2      -17.5610  -20.7330   16.2980 O.co2 172  ASP172     -0.2456
     67  N        -15.2780  -23.3340   19.8290 N.am  173  THR173     -0.1953
     68  CA       -14.5220  -24.5090   19.3860 C.3   173  THR173      0.1897
     69  C        -14.2960  -25.4830   20.5300 C.2   173  THR173      0.2313
     70  O        -14.8600  -26.5760   20.5310 O.2   173  THR173     -0.2863
     71  CB       -13.2280  -24.0730   18.6930 C.3   173  THR173      0.1794
     72  OG1      -13.6140  -23.2760   17.5670 O.3   173  THR173     -0.2208
     73  CG2      -12.4280  -25.2560   18.1690 C.3   173  THR173      0.0378
     74  N        -16.9970  -27.8410   22.5010 N.3   176  HIS176     -0.1241
     75  CA       -17.3840  -29.2210   22.1800 C.3   176  HIS176      0.1621
     76  C        -16.6490  -30.2320   23.0500 C.2   176  HIS176      0.2264
     77  O        -17.2380  -31.1720   23.5460 O.2   176  HIS176     -0.2867
     78  CB       -17.0490  -29.5170   20.7280 C.3   176  HIS176      0.0745
     79  CG       -18.0000  -28.8920   19.7610 C.ar  176  HIS176      0.0817
     80  ND1      -19.2850  -29.3260   19.6130 N.ar  176  HIS176     -0.2268
     81  CD2      -17.8220  -27.8610   18.9090 C.ar  176  HIS176      0.1154
     82  CE1      -19.8710  -28.6000   18.6660 C.ar  176  HIS176      0.1986
     83  NE2      -19.0090  -27.6940   18.2510 N.ar  176  HIS176     -0.2212
     84  N        -10.5030  -30.4110    8.1500 N.3   236  TYR236     -0.1241
     85  CA       -11.3060  -30.3410    9.3620 C.3   236  TYR236      0.1605
     86  C        -11.2380  -31.7120    9.9860 C.2   236  TYR236      0.2264
     87  O        -11.4980  -32.7110    9.3280 O.2   236  TYR236     -0.2867
     88  CB       -12.7500  -30.0480    8.9740 C.3   236  TYR236      0.0534
     89  CG       -13.6380  -29.9860   10.1710 C.ar  236  TYR236     -0.0201
     90  CD1      -14.2410  -31.1550   10.7020 C.ar  236  TYR236     -0.0009
     91  CD2      -13.8720  -28.7530   10.8020 C.ar  236  TYR236     -0.0009
     92  CE1      -15.0360  -31.0950   11.8280 C.ar  236  TYR236      0.0417
     93  CE2      -14.7040  -28.7020   11.9350 C.ar  236  TYR236      0.0417
     94  CZ       -15.2660  -29.8660   12.4140 C.ar  236  TYR236      0.1957
     95  OH       -16.0400  -29.8070   13.5410 O.3   236  TYR236     -0.2866
     96  N        -17.2310  -29.1920    9.1060 N.3   274  TRP274     -0.1241
     97  CA       -18.1160  -29.9120   10.0210 C.3   274  TRP274      0.1605
     98  C        -19.3550  -30.3960    9.3340 C.2   274  TRP274      0.2264
     99  O        -19.9940  -31.3350    9.7800 O.2   274  TRP274     -0.2867
    100  CB       -18.5440  -28.9650   11.1880 C.3   274  TRP274      0.0550
    101  CG       -18.8340  -27.5930   10.7280 C.ar  274  TRP274      0.0003
    102  CD1      -17.9300  -26.5640   10.6090 C.ar  274  TRP274      0.0946
    103  CD2      -20.0800  -27.1010   10.1950 C.ar  274  TRP274      0.0152
    104  NE1      -18.5460  -25.4570   10.0390 N.ar  274  TRP274     -0.2442
    105  CE2      -19.8510  -25.7650    9.7780 C.ar  274  TRP274      0.0810
    106  CE3      -21.3430  -27.6650   10.0070 C.ar  274  TRP274      0.0012
    107  CZ2      -20.8910  -24.9690    9.2110 C.ar  274  TRP274      0.0191
    108  CZ3      -22.3720  -26.8800    9.4390 C.ar  274  TRP274      0.0001
    109  CH2      -22.1270  -25.5550    9.0570 C.ar  274  TRP274      0.0015
    110  N        -25.7340  -34.4490   13.6240 N.3   282  TYR282     -0.1241
    111  CA       -26.7280  -33.3540   13.5220 C.3   282  TYR282      0.1605
    112  C        -28.1200  -33.9170   13.2250 C.2   282  TYR282      0.2264
    113  O        -29.0970  -33.4940   13.8060 O.2   282  TYR282     -0.2867
    114  CB       -26.3630  -32.3580   12.4240 C.3   282  TYR282      0.0534
    115  CG       -25.0350  -31.6790   12.6050 C.ar  282  TYR282     -0.0201
    116  CD1      -24.6670  -31.1080   13.8190 C.ar  282  TYR282     -0.0009
    117  CD2      -24.1550  -31.5960   11.5360 C.ar  282  TYR282     -0.0009
    118  CE1      -23.4240  -30.4840   13.9700 C.ar  282  TYR282      0.0417
    119  CE2      -22.9300  -30.9850   11.6600 C.ar  282  TYR282      0.0417
    120  CZ       -22.5400  -30.4680   12.8920 C.ar  282  TYR282      0.1957
    121  OH       -21.2920  -29.8650   12.9690 O.3   282  TYR282     -0.2866
@<TRIPOS>BOND
     1    84    85    1
     2    88    85    1
     3    88    89    1
     4   109   107   ar
     5   109   108   ar
     6    96    97    1
     7   107   105   ar
     8    87    86    2
     9    98    99    2
    10    98    97    1
    11    85    86    1
    12   108   106   ar
    13   105   104   ar
    14   105   103   ar
    15   106   103   ar
    16    97   100    1
    17   104   102   ar
    18    89    90   ar
    19    89    91   ar
    20   103   101   ar
    21    41    42    2
    22    41    40    1
    23   102   101   ar
    24    90    92   ar
    25   101   100    1
    26    91    93   ar
    27    40    43    1
    28    40    39    1
    29   117   119   ar
    30   117   115   ar
    31   119   120   ar
    32    92    94   ar
    33    43    44    1
    34    93    94   ar
    35    94    95    1
    36   114   115    1
    37   114   111    1
    38   115   116   ar
    39   120   121    1
    40   120   118   ar
    41    44    45    2
    42    44    46   am
    43   112   111    1
    44   112   113    2
    45   111   110    1
    46    47    48    1
    47   116   118   ar
    48    51    48    1
    49    51    52    1
    50    48    49    1
    51    52    54   ar
    52    52    53   ar
    53    54    56   ar
    54    50    49    2
    55    53    55   ar
    56    56    57   ar
    57    31    32    2
    58    31    30    1
    59    17    16    1
    60    66    64   ar
    61    36    38   ar
    62    36    34   ar
    63    15    16    1
    64    15    14    1
    65    57    55   ar
    66    57    58    1
    67    38    37   ar
    68    30    29    1
    69    30    33    1
    70    14    11    1
    71    64    65   ar
    72    64    63    1
    73    72    71    1
    74    34    33    1
    75    34    35   ar
    76    37    35   ar
    77    73    71    1
    78    25    24    1
    79    25    26    2
    80    28    26    1
    81    83    82   ar
    82    83    81   ar
    83     9     8    1
    84    63    60    1
    85    13    12    2
    86    82    80   ar
    87    24    23    1
    88    71    68    1
    89    26    27    1
    90    62    61    2
    91    11    12    1
    92    11    10    1
    93    81    79   ar
    94    12    18   am
    95     7     8    1
    96     7     6    1
    97     4     3    2
    98    61    60    1
    99    61    67   am
   100    68    67    1
   101    68    69    1
   102    18    19    1
   103    80    79   ar
   104    19    20    1
   105    19    22    1
   106    60    59    1
   107    79    78    1
   108    23    22    1
   109    21    20    2
   110     1     2    1
   111     6     5    1
   112    69    70    2
   113     3     2    1
   114    78    75    1
   115     2     5    1
   116    75    74    1
   117    75    76    1
   118    76    77    2
