@<TRIPOS>MOLECULE
tmp/4mjpB01.pdb
 135 131 0 0 0
SMALL
GASTEIGER

@<TRIPOS>ATOM
      1  N        -18.3990  -21.8790   33.2590 N.3   145  ARG145     -0.1245
      2  CA       -19.3880  -21.3670   34.2060 C.3   145  ARG145      0.1563
      3  C        -19.9590  -20.0890   33.6070 C.2   145  ARG145      0.2260
      4  O        -19.5150  -18.9740   33.8930 O.2   145  ARG145     -0.2867
      5  CB       -18.7610  -21.1380   35.5730 C.3   145  ARG145      0.0307
      6  CG       -18.2600  -22.4210   36.2230 C.3   145  ARG145      0.0489
      7  CD       -17.3730  -22.1480   37.4250 C.3   145  ARG145      0.2205
      8  NE       -16.1740  -21.4050   37.0490 N.pl3 145  ARG145     -0.0865
      9  CZ       -15.2480  -20.9810   37.9000 C.cat 145  ARG145      0.5346
     10  NH1      -15.3640  -21.2230   39.2020 N.pl3 145  ARG145      0.1354
     11  NH2      -14.1990  -20.3110   37.4420 N.pl3 145  ARG145      0.1354
     12  N        -22.5700  -18.2600   33.8020 N.3   147  TYR147     -0.1227
     13  CA       -23.1330  -17.2150   34.6640 C.3   147  TYR147      0.1736
     14  C        -22.1020  -16.1840   35.1660 C.2   147  TYR147      0.2595
     15  O        -22.5000  -15.1470   35.6880 O.2   147  TYR147     -0.2718
     16  CB       -23.8730  -17.8280   35.8670 C.3   147  TYR147      0.0548
     17  CG       -23.0410  -18.8370   36.6340 C.ar  147  TYR147     -0.0200
     18  CD1      -22.0890  -18.4190   37.5550 C.ar  147  TYR147     -0.0009
     19  CD2      -23.1840  -20.2040   36.3990 C.ar  147  TYR147     -0.0009
     20  CE1      -21.3050  -19.3350   38.2330 C.ar  147  TYR147      0.0417
     21  CE2      -22.4070  -21.1270   37.0610 C.ar  147  TYR147      0.0417
     22  CZ       -21.4770  -20.6880   37.9850 C.ar  147  TYR147      0.1957
     23  OH       -20.6930  -21.5930   38.6420 O.3   147  TYR147     -0.2866
     24  N        -20.8070  -16.4580   35.0020 N.am  148  LEU148     -0.1980
     25  CA       -19.7540  -15.4770   35.3260 C.3   148  LEU148      0.1596
     26  C        -19.3860  -14.5570   34.1650 C.2   148  LEU148      0.2287
     27  O        -18.6870  -13.5570   34.3700 O.2   148  LEU148     -0.2864
     28  CB       -18.4910  -16.1860   35.7860 C.3   148  LEU148      0.0297
     29  CG       -18.6100  -17.1390   36.9670 C.3   148  LEU148      0.0022
     30  CD1      -17.3230  -17.9230   37.1490 C.3   148  LEU148      0.0001
     31  CD2      -18.9730  -16.3670   38.2240 C.3   148  LEU148      0.0001
     32  N        -17.2690  -10.9950   38.8460 N.3   165  THR165     -0.1218
     33  CA       -16.1890  -11.8660   39.2430 C.3   165  THR165      0.1862
     34  C        -15.8760  -12.8620   38.1300 C.2   165  THR165      0.2287
     35  O        -16.7470  -13.2370   37.3260 O.2   165  THR165     -0.2866
     36  CB       -16.4980  -12.6100   40.5620 C.3   165  THR165      0.1770
     37  OG1      -15.4020  -13.4730   40.8990 O.3   165  THR165     -0.2211
     38  CG2      -17.7590  -13.4470   40.4430 C.3   165  THR165      0.0375
     39  N        -14.4300  -15.7060   39.0890 N.3   167  GLY167     -0.1210
     40  CA       -14.1980  -16.8890   39.9000 C.3   167  GLY167      0.1956
     41  C        -12.9680  -16.7820   40.7900 C.2   167  GLY167      0.2612
     42  O        -12.6920  -17.6990   41.5430 O.2   167  GLY167     -0.2717
     43  N        -12.2390  -15.6620   40.7280 N.am  168  HIS168     -0.1961
     44  CA       -10.9950  -15.5150   41.4960 C.3   168  HIS168      0.1787
     45  C        -10.9320  -14.2010   42.2610 C.2   168  HIS168      0.2620
     46  O        -10.5960  -14.2010   43.4350 O.2   168  HIS168     -0.2715
     47  CB        -9.7810  -15.6820   40.5860 C.3   168  HIS168      0.0785
     48  CG        -9.7790  -16.9920   39.8720 C.ar  168  HIS168      0.0821
     49  ND1       -9.6330  -18.1880   40.5340 N.ar  168  HIS168     -0.2267
     50  CD2       -9.9900  -17.3020   38.5750 C.ar  168  HIS168      0.1154
     51  CE1       -9.7240  -19.1840   39.6690 C.ar  168  HIS168      0.1986
     52  NE2       -9.9380  -18.6710   38.4720 N.ar  168  HIS168     -0.2212
     53  N        -11.2590  -13.0970   41.5910 N.am  169  ARG169     -0.1963
     54  CA       -11.3070  -11.7760   42.2240 C.3   169  ARG169      0.1729
     55  C        -12.6700  -11.1250   41.9820 C.2   169  ARG169      0.2616
     56  O        -13.4150  -11.5120   41.0810 O.2   169  ARG169     -0.2715
     57  CB       -10.1710  -10.8670   41.7400 C.3   169  ARG169      0.0348
     58  CG        -9.7310  -11.0410   40.2880 C.3   169  ARG169      0.0492
     59  CD       -10.6400  -10.3410   39.3010 C.3   169  ARG169      0.2205
     60  NE       -10.1510  -10.5290   37.9300 N.pl3 169  ARG169     -0.0865
     61  CZ        -9.2090   -9.7940   37.3450 C.cat 169  ARG169      0.5346
     62  NH1       -8.6360   -8.7830   37.9830 N.pl3 169  ARG169      0.1354
     63  NH2       -8.8420  -10.0740   36.0910 N.pl3 169  ARG169      0.1354
     64  N        -12.9920  -10.1490   42.8130 N.am  170  LEU170     -0.1977
     65  CA       -14.3510   -9.6200   42.9000 C.3   170  LEU170      0.1596
     66  C        -14.3150   -8.1010   42.8080 C.2   170  LEU170      0.2287
     67  O        -13.4530   -7.4830   43.4130 O.2   170  LEU170     -0.2864
     68  CB       -14.9760   -9.9910   44.2400 C.3   170  LEU170      0.0297
     69  CG       -16.3600   -9.4270   44.6020 C.3   170  LEU170      0.0022
     70  CD1      -17.4110  -10.0270   43.6970 C.3   170  LEU170      0.0001
     71  CD2      -16.7020   -9.6950   46.0710 C.3   170  LEU170      0.0001
     72  N        -27.6610  -18.6260   37.8200 N.3   233  ARG233     -0.1245
     73  CA       -27.5810  -18.1310   39.1860 C.3   233  ARG233      0.1563
     74  C        -26.1970  -17.5210   39.3910 C.2   233  ARG233      0.2260
     75  O        -25.2010  -18.1750   39.1180 O.2   233  ARG233     -0.2867
     76  CB       -27.7720  -19.2860   40.1680 C.3   233  ARG233      0.0307
     77  CG       -27.4710  -18.9220   41.6090 C.3   233  ARG233      0.0489
     78  CD       -27.4410  -20.1490   42.5070 C.3   233  ARG233      0.2205
     79  NE       -26.9400  -19.8110   43.8400 N.pl3 233  ARG233     -0.0865
     80  CZ       -25.6520  -19.7080   44.1720 C.cat 233  ARG233      0.5346
     81  NH1      -24.6920  -19.9080   43.2710 N.pl3 233  ARG233      0.1354
     82  NH2      -25.3200  -19.4000   45.4180 N.pl3 233  ARG233      0.1354
     83  N        -22.9630  -16.3890   41.6450 N.3   235  PRO235     -0.2102
     84  CA       -22.4270  -16.8970   42.9100 C.3   235  PRO235      0.1504
     85  C        -22.7910  -16.0420   44.1220 C.2   235  PRO235      0.2576
     86  O        -23.0270  -14.8400   43.9960 O.2   235  PRO235     -0.2718
     87  CB       -20.9110  -16.8850   42.6850 C.3   235  PRO235      0.0282
     88  CG       -20.6850  -15.9870   41.5210 C.3   235  PRO235      0.0208
     89  CD       -21.8940  -16.1540   40.6620 C.3   235  PRO235      0.0893
     90  N        -22.8580  -16.6670   45.2900 N.am  236  ASP236     -0.1960
     91  CA       -23.1340  -15.9400   46.5250 C.3   236  ASP236      0.1840
     92  C        -21.8520  -15.2070   46.9440 C.2   236  ASP236      0.2622
     93  O        -21.1550  -15.6080   47.8810 O.2   236  ASP236     -0.2715
     94  CB       -23.6150  -16.9040   47.6100 C.3   236  ASP236      0.1450
     95  CG       -24.0700  -16.1960   48.8730 C.2   236  ASP236      0.3671
     96  OD1      -24.2870  -14.9620   48.8590 O.co2 236  ASP236     -0.2456
     97  OD2      -24.2200  -16.8920   49.8900 O.co2 236  ASP236     -0.2456
     98  N        -21.5770  -14.1160   46.2340 N.am  237  TYR237     -0.1974
     99  CA       -20.3480  -13.3410   46.3850 C.3   237  TYR237      0.1639
    100  C        -20.1830  -12.7460   47.8050 C.2   237  TYR237      0.2290
    101  O        -19.0650  -12.5270   48.2560 O.2   237  TYR237     -0.2864
    102  CB       -20.3050  -12.2200   45.3230 C.3   237  TYR237      0.0560
    103  CG       -21.2790  -11.0880   45.5820 C.ar  237  TYR237     -0.0198
    104  CD1      -20.8950   -9.9870   46.3390 C.ar  237  TYR237     -0.0009
    105  CD2      -22.5890  -11.1250   45.0790 C.ar  237  TYR237     -0.0009
    106  CE1      -21.7730   -8.9530   46.5980 C.ar  237  TYR237      0.0417
    107  CE2      -23.4780  -10.0990   45.3360 C.ar  237  TYR237      0.0417
    108  CZ       -23.0600   -9.0080   46.0890 C.ar  237  TYR237      0.1957
    109  OH       -23.9240   -7.9750   46.3560 O.3   237  TYR237     -0.2866
    110  N        -20.3140  -14.0490   50.5930 N.3   239  ARG239     -0.1231
    111  CA       -19.5170  -14.9480   51.4220 C.3   239  ARG239      0.1694
    112  C        -18.0190  -14.6490   51.4450 C.2   239  ARG239      0.2591
    113  O        -17.3540  -14.9950   52.4150 O.2   239  ARG239     -0.2718
    114  CB       -19.7500  -16.4010   50.9860 C.3   239  ARG239      0.0321
    115  CG       -21.1620  -16.8850   51.2780 C.3   239  ARG239      0.0489
    116  CD       -21.5490  -18.1010   50.4540 C.3   239  ARG239      0.2205
    117  NE       -20.6580  -19.2440   50.6420 N.pl3 239  ARG239     -0.0865
    118  CZ       -20.9870  -20.5060   50.3650 C.cat 239  ARG239      0.5346
    119  NH1      -20.1030  -21.4740   50.5680 N.pl3 239  ARG239      0.1354
    120  NH2      -22.1960  -20.8100   49.8890 N.pl3 239  ARG239      0.1354
    121  N        -17.4780  -14.0060   50.4040 N.am  240  VAL240     -0.1980
    122  CA       -16.0530  -13.6710   50.3960 C.3   240  VAL240      0.1595
    123  C        -15.7440  -12.2360   50.8410 C.2   240  VAL240      0.2287
    124  O        -14.5890  -11.9150   51.0380 O.2   240  VAL240     -0.2864
    125  CB       -15.3780  -13.9490   49.0340 C.3   240  VAL240      0.0276
    126  CG1      -15.7700  -15.3300   48.5260 C.3   240  VAL240      0.0022
    127  CG2      -15.7030  -12.8650   48.0100 C.3   240  VAL240      0.0022
    128  N         -8.0600  -12.6470   46.8930 N.3   355  MET355     -0.1245
    129  CA        -7.8030  -13.7980   47.7690 C.3   355  MET355      0.1570
    130  C         -6.3720  -13.8210   48.2830 C.2   355  MET355      0.2261
    131  O         -5.4690  -13.2810   47.6450 O.2   355  MET355     -0.2867
    132  CB        -8.0240  -15.1080   47.0000 C.3   355  MET355      0.0387
    133  CG        -9.4180  -15.3160   46.4540 C.3   355  MET355      0.0595
    134  SD       -10.5720  -15.6010   47.7900 S.3   355  MET355     -0.1393
    135  CE       -11.2860  -13.9700   47.9150 C.3   355  MET355      0.0692
@<TRIPOS>BOND
     1     1     2    1
     2     3     4    2
     3     3     2    1
     4    12    13    1
     5    26    27    2
     6    26    25    1
     7     2     5    1
     8    13    14    1
     9    13    16    1
    10    24    14   am
    11    24    25    1
    12    14    15    2
    13    25    28    1
    14     5     6    1
    15    28    29    1
    16    16    17    1
    17    63    61    1
    18     6     7    1
    19    19    17   ar
    20    19    21   ar
    21    17    18   ar
    22    29    30    1
    23    29    31    1
    24     8     7    1
    25     8     9    2
    26    21    22   ar
    27    35    34    2
    28    61    60    2
    29    61    62    1
    30    11     9    1
    31    18    20   ar
    32    72    73    1
    33     9    10    1
    34    60    59    1
    35    22    20   ar
    36    22    23    1
    37    34    33    1
    38    52    50   ar
    39    52    51   ar
    40    50    48   ar
    41    32    33    1
    42    39    40    1
    43    75    74    2
    44    73    74    1
    45    73    76    1
    46    33    36    1
    47    59    58    1
    48    51    49   ar
    49    48    49   ar
    50    48    47    1
    51    40    41    1
    52    76    77    1
    53    58    57    1
    54    38    36    1
    55    36    37    1
    56    47    44    1
    57    89    88    1
    58    89    83    1
    59    43    41   am
    60    43    44    1
    61    41    42    2
    62    56    55    2
    63    44    45    1
    64    88    87    1
    65    53    54    1
    66    53    45   am
    67    77    78    1
    68    83    84    1
    69    57    54    1
    70    55    54    1
    71    55    64   am
    72    45    46    2
    73    78    79    1
    74    87    84    1
    75    66    65    1
    76    66    67    2
    77    64    65    1
    78    65    68    1
    79    84    85    1
    80    81    80    1
    81    70    69    1
    82    79    80    2
    83    86    85    2
    84    85    90   am
    85    80    82    1
    86    68    69    1
    87    69    71    1
    88   105   107   ar
    89   105   103   ar
    90    90    91    1
    91   102   103    1
    92   102    99    1
    93   107   108   ar
    94   103   104   ar
    95   108   109    1
    96   108   106   ar
    97    98    99    1
    98    98    92   am
    99   104   106   ar
   100    99   100    1
   101   133   132    1
   102   133   134    1
   103    91    92    1
   104    91    94    1
   105   128   129    1
   106    92    93    2
   107   132   129    1
   108    94    95    1
   109   131   130    2
   110   129   130    1
   111   134   135    1
   112   100   101    2
   113   127   125    1
   114   126   125    1
   115    96    95   ar
   116    95    97   ar
   117   125   122    1
   118   120   118    1
   119   118   119    1
   120   118   117    2
   121   122   121    1
   122   122   123    1
   123   121   112   am
   124   116   117    1
   125   116   115    1
   126   110   111    1
   127   123   124    2
   128   114   115    1
   129   114   111    1
   130   111   112    1
   131   112   113    2
