@<TRIPOS>MOLECULE
tmp/4mjqA00.pdb
 119 113 0 0 0
SMALL
GASTEIGER

@<TRIPOS>ATOM
      1  N        -28.1040   -0.3620  -10.6810 N.3   148  ARG148     -0.1245
      2  CA       -28.4070   -1.4740  -11.5700 C.3   148  ARG148      0.1563
      3  C        -27.4460   -2.5850  -11.1540 C.2   148  ARG148      0.2260
      4  O        -26.3390   -2.6930  -11.6660 O.2   148  ARG148     -0.2867
      5  CB       -28.2040   -1.0790  -13.0370 C.3   148  ARG148      0.0307
      6  CG       -29.1100    0.0570  -13.4890 C.3   148  ARG148      0.0489
      7  CD       -28.6340    0.6980  -14.7840 C.3   148  ARG148      0.2205
      8  NE       -27.3480    1.3590  -14.6030 N.pl3 148  ARG148     -0.0865
      9  CZ       -26.6340    1.9150  -15.5890 C.cat 148  ARG148      0.5346
     10  NH1      -27.0850    1.9130  -16.8390 N.pl3 148  ARG148      0.1354
     11  NH2      -25.4720    2.4830  -15.3170 N.pl3 148  ARG148      0.1354
     12  N        -27.0850   -5.6700  -11.5670 N.3   150  TYR150     -0.1227
     13  CA       -26.5660   -6.6200  -12.5420 C.3   150  TYR150      0.1736
     14  C        -25.2630   -6.1390  -13.2210 C.2   150  TYR150      0.2595
     15  O        -24.5170   -6.9590  -13.7490 O.2   150  TYR150     -0.2718
     16  CB       -27.6420   -6.9840  -13.5740 C.3   150  TYR150      0.0548
     17  CG       -28.2610   -5.8020  -14.2820 C.ar  150  TYR150     -0.0200
     18  CD1      -27.6500   -5.2410  -15.4000 C.ar  150  TYR150     -0.0009
     19  CD2      -29.4560   -5.2500  -13.8320 C.ar  150  TYR150     -0.0009
     20  CE1      -28.2050   -4.1510  -16.0440 C.ar  150  TYR150      0.0417
     21  CE2      -30.0150   -4.1520  -14.4650 C.ar  150  TYR150      0.0417
     22  CZ       -29.3880   -3.6180  -15.5720 C.ar  150  TYR150      0.1957
     23  OH       -29.9560   -2.5460  -16.1970 O.3   150  TYR150     -0.2866
     24  N        -24.9710   -4.8320  -13.1750 N.am  151  LEU151     -0.1980
     25  CA       -23.7290   -4.3010  -13.7310 C.3   151  LEU151      0.1596
     26  C        -22.5480   -4.4170  -12.7740 C.2   151  LEU151      0.2287
     27  O        -21.4040   -4.2620  -13.1820 O.2   151  LEU151     -0.2864
     28  CB       -23.8980   -2.8320  -14.1400 C.3   151  LEU151      0.0297
     29  CG       -24.9480   -2.5930  -15.2190 C.3   151  LEU151      0.0022
     30  CD1      -25.0010   -1.1110  -15.5370 C.3   151  LEU151      0.0001
     31  CD2      -24.6690   -3.4090  -16.4760 C.3   151  LEU151      0.0001
     32  N        -19.3450   -4.2970  -17.9610 N.3   168  THR168     -0.1218
     33  CA       -19.5760   -2.9160  -18.3530 C.3   168  THR168      0.1862
     34  C        -20.1540   -2.1130  -17.1980 C.2   168  THR168      0.2287
     35  O        -20.8220   -2.6570  -16.3100 O.2   168  THR168     -0.2866
     36  CB       -20.5140   -2.8320  -19.5700 C.3   168  THR168      0.1770
     37  OG1      -20.6310   -1.4690  -19.9870 O.3   168  THR168     -0.2211
     38  CG2      -21.9200   -3.4050  -19.2570 C.3   168  THR168      0.0375
     39  N        -21.6890    0.9280  -18.2100 N.3   170  GLY170     -0.1210
     40  CA       -22.5400    1.8470  -18.9710 C.3   170  GLY170      0.1956
     41  C        -21.7860    2.8590  -19.8220 C.2   170  GLY170      0.2612
     42  O        -22.3500    3.4300  -20.7570 O.2   170  GLY170     -0.2717
     43  N        -20.5040    3.0580  -19.5230 N.am  171  HIS171     -0.1961
     44  CA       -19.6560    3.9800  -20.2830 C.3   171  HIS171      0.1787
     45  C        -18.5690    3.3070  -21.0680 C.2   171  HIS171      0.2620
     46  O        -18.1140    3.8440  -22.0820 O.2   171  HIS171     -0.2715
     47  CB       -19.0350    4.9830  -19.3320 C.3   171  HIS171      0.0785
     48  CG       -20.0630    5.7470  -18.5820 C.ar  171  HIS171      0.0821
     49  ND1      -20.6380    6.8920  -19.0800 N.ar  171  HIS171     -0.2267
     50  CD2      -20.6900    5.4780  -17.4140 C.ar  171  HIS171      0.1154
     51  CE1      -21.5610    7.3100  -18.2350 C.ar  171  HIS171      0.1986
     52  NE2      -21.6050    6.4750  -17.2130 N.ar  171  HIS171     -0.2212
     53  N        -18.1440    2.1460  -20.5780 N.am  172  ARG172     -0.1963
     54  CA       -17.1710    1.3250  -21.2670 C.3   172  ARG172      0.1729
     55  C        -17.4930   -0.1360  -20.9970 C.2   172  ARG172      0.2616
     56  O        -18.1090   -0.4870  -19.9830 O.2   172  ARG172     -0.2715
     57  CB       -15.7280    1.6950  -20.9140 C.3   172  ARG172      0.0348
     58  CG       -15.4760    2.0820  -19.4680 C.3   172  ARG172      0.0492
     59  CD       -15.2180    0.8910  -18.5760 C.3   172  ARG172      0.2205
     60  NE       -14.9740    1.2980  -17.1880 N.pl3 172  ARG172     -0.0865
     61  CZ       -13.7830    1.6100  -16.6800 C.cat 172  ARG172      0.5346
     62  NH1      -12.6830    1.5710  -17.4330 N.pl3 172  ARG172      0.1354
     63  NH2      -13.6840    1.9400  -15.3930 N.pl3 172  ARG172      0.1354
     64  N        -17.1320   -0.9630  -21.9620 N.am  173  LEU173     -0.1977
     65  CA       -17.4660   -2.3750  -21.9520 C.3   173  LEU173      0.1596
     66  C        -16.2270   -3.1350  -22.3720 C.2   173  LEU173      0.2287
     67  O        -15.4420   -2.6560  -23.2130 O.2   173  LEU173     -0.2864
     68  CB       -18.6220   -2.6640  -22.9090 C.3   173  LEU173      0.0297
     69  CG       -18.9710   -4.1430  -23.1470 C.3   173  LEU173      0.0022
     70  CD1      -20.4730   -4.3420  -23.3240 C.3   173  LEU173      0.0001
     71  CD2      -18.2260   -4.7410  -24.3260 C.3   173  LEU173      0.0001
     72  N        -31.0980   -8.7590  -16.3870 N.3   236  ARG236     -0.1245
     73  CA       -30.7950   -8.9300  -17.7980 C.3   236  ARG236      0.1563
     74  C        -29.5600   -8.1050  -18.1330 C.2   236  ARG236      0.2260
     75  O        -29.6130   -6.8780  -18.2440 O.2   236  ARG236     -0.2867
     76  CB       -31.9730   -8.4470  -18.6470 C.3   236  ARG236      0.0307
     77  CG       -31.9110   -9.1860  -19.9890 C.3   236  ARG236      0.0489
     78  CD       -32.8880   -8.6430  -20.9660 C.3   236  ARG236      0.2205
     79  NE       -32.4500   -7.4350  -21.6300 N.pl3 236  ARG236     -0.0865
     80  CZ       -31.4040   -7.1600  -22.4160 C.cat 236  ARG236      0.5346
     81  NH1      -30.4270   -7.9710  -22.8100 N.pl3 236  ARG236      0.1354
     82  NH2      -31.3550   -5.8920  -22.8730 N.pl3 236  ARG236      0.1354
     83  N        -26.6410   -6.4380  -20.3270 N.3   238  PRO238     -0.2102
     84  CA       -26.5230   -5.9100  -21.6850 C.3   238  PRO238      0.1504
     85  C        -25.9200   -6.9070  -22.6740 C.2   238  PRO238      0.2575
     86  O        -25.0830   -7.6990  -22.3010 O.2   238  PRO238     -0.2718
     87  CB       -25.5830   -4.7090  -21.5260 C.3   238  PRO238      0.0282
     88  CG       -25.5860   -4.3590  -20.0950 C.3   238  PRO238      0.0208
     89  CD       -26.0760   -5.5330  -19.3120 C.3   238  PRO238      0.0893
     90  N        -26.3320   -6.8270  -23.9320 N.am  239  ASP239     -0.1974
     91  CA       -25.8480   -7.6890  -24.9920 C.3   239  ASP239      0.1708
     92  C        -24.7110   -6.9860  -25.7150 C.2   239  ASP239      0.2293
     93  O        -24.9380   -6.0260  -26.4510 O.2   239  ASP239     -0.2864
     94  CB       -27.0020   -8.0070  -25.9450 C.3   239  ASP239      0.1436
     95  CG       -26.6060   -8.9140  -27.0980 C.2   239  ASP239      0.3671
     96  OD1      -25.4200   -9.2890  -27.2390 O.co2 239  ASP239     -0.2456
     97  OD2      -27.5210   -9.2400  -27.8880 O.co2 239  ASP239     -0.2456
     98  N        -23.6140   -3.5210  -28.5390 N.3   243  VAL243     -0.1245
     99  CA       -22.7640   -2.4270  -28.0770 C.3   243  VAL243      0.1561
    100  C        -21.6230   -2.1940  -29.0680 C.2   243  VAL243      0.2260
    101  O        -21.2030   -1.0510  -29.2690 O.2   243  VAL243     -0.2867
    102  CB       -22.1970   -2.7000  -26.6590 C.3   243  VAL243      0.0252
    103  CG1      -21.1680   -1.6420  -26.2690 C.3   243  VAL243      0.0019
    104  CG2      -23.3260   -2.7400  -25.6430 C.3   243  VAL243      0.0019
    105  N        -15.1310   -1.3990  -25.8070 N.3   356  VAL356     -0.1245
    106  CA       -15.9080   -0.3000  -26.3650 C.3   356  VAL356      0.1561
    107  C        -15.9220    0.8320  -25.3580 C.2   356  VAL356      0.2260
    108  O        -16.2210    0.6160  -24.1930 O.2   356  VAL356     -0.2867
    109  CB       -17.3430   -0.7160  -26.7190 C.3   356  VAL356      0.0252
    110  CG1      -18.0750    0.4330  -27.4000 C.3   356  VAL356      0.0019
    111  CG2      -17.3240   -1.9630  -27.5950 C.3   356  VAL356      0.0019
    112  N        -17.1950    4.8930  -24.7460 N.3   358  MET358     -0.1245
    113  CA       -17.9180    6.1110  -25.1400 C.3   358  MET358      0.1570
    114  C        -16.9640    7.2820  -25.2010 C.2   358  MET358      0.2261
    115  O        -16.0740    7.3790  -24.3770 O.2   358  MET358     -0.2867
    116  CB       -19.0030    6.4840  -24.1210 C.3   358  MET358      0.0387
    117  CG       -20.1790    5.5370  -24.0430 C.3   358  MET358      0.0595
    118  SD       -21.4560    6.2590  -22.9740 S.3   358  MET358     -0.1393
    119  CE       -22.8060    5.1270  -23.2960 C.3   358  MET358      0.0692
@<TRIPOS>BOND
     1   101   100    2
     2   100    99    1
     3    98    99    1
     4    99   102    1
     5    97    95   ar
     6   111   109    1
     7   110   109    1
     8    96    95   ar
     9    95    94    1
    10   109   106    1
    11   102   103    1
    12   102   104    1
    13    93    92    2
    14   106   105    1
    15   106   107    1
    16    94    91    1
    17    92    91    1
    18   107   108    2
    19   114   113    1
    20   114   115    2
    21   113   112    1
    22   113   116    1
    23    91    90    1
    24    71    69    1
    25   116   117    1
    26   117   118    1
    27    90    85   am
    28    70    69    1
    29   119   118    1
    30    67    66    2
    31    69    68    1
    32    68    65    1
    33    82    80    1
    34    81    80    1
    35    85    86    2
    36    85    84    1
    37    80    79    2
    38    66    65    1
    39    46    45    2
    40    64    65    1
    41    64    55   am
    42    84    87    1
    43    84    83    1
    44    79    78    1
    45    87    88    1
    46    54    55    1
    47    54    57    1
    48    54    53    1
    49    45    53   am
    50    45    44    1
    51    55    56    2
    52    78    77    1
    53    57    58    1
    54    42    41    2
    55    83    89    1
    56    44    43    1
    57    44    47    1
    58    88    89    1
    59    77    76    1
    60    37    36    1
    61    41    43   am
    62    41    40    1
    63    36    38    1
    64    36    33    1
    65    58    59    1
    66    47    48    1
    67    49    48   ar
    68    49    51   ar
    69    40    39    1
    70    76    73    1
    71    48    50   ar
    72    59    60    1
    73    33    32    1
    74    33    34    1
    75    75    74    2
    76    51    52   ar
    77    74    73    1
    78    73    72    1
    79    62    61    1
    80    50    52   ar
    81    34    35    2
    82    60    61    2
    83    10     9    1
    84    61    63    1
    85    31    29    1
    86    23    22    1
    87    20    22   ar
    88    20    18   ar
    89     9    11    1
    90     9     8    2
    91    22    21   ar
    92    30    29    1
    93    18    17   ar
    94    29    28    1
    95     7     8    1
    96     7     6    1
    97    21    19   ar
    98    17    19   ar
    99    17    16    1
   100    28    25    1
   101    15    14    2
   102    25    24    1
   103    25    26    1
   104    16    13    1
   105     6     5    1
   106    14    24   am
   107    14    13    1
   108    27    26    2
   109     5     2    1
   110    13    12    1
   111     4     3    2
   112     2     3    1
   113     2     1    1
