@<TRIPOS>MOLECULE
tmp/4mjrA01.pdb
 117 110 0 0 0
SMALL
GASTEIGER

@<TRIPOS>ATOM
      1  N        -28.6000    0.2600  -12.0280 N.3   146  ARG146     -0.1245
      2  CA       -28.7980   -0.9010  -12.9000 C.3   146  ARG146      0.1563
      3  C        -27.9540   -2.0500  -12.3380 C.2   146  ARG146      0.2260
      4  O        -26.8340   -2.3070  -12.7900 O.2   146  ARG146     -0.2867
      5  CB       -28.4100   -0.5920  -14.3470 C.3   146  ARG146      0.0307
      6  CG       -29.2320    0.5260  -14.9940 C.3   146  ARG146      0.0489
      7  CD       -28.5660    1.0830  -16.2460 C.3   146  ARG146      0.2205
      8  NE       -27.1790    1.4740  -15.9830 N.pl3 146  ARG146     -0.0865
      9  CZ       -26.3370    2.0030  -16.8680 C.cat 146  ARG146      0.5346
     10  NH1      -26.7150    2.2590  -18.1110 N.pl3 146  ARG146      0.1354
     11  NH2      -25.0970    2.2930  -16.4900 N.pl3 146  ARG146      0.1354
     12  N        -27.8310   -5.1670  -12.5700 N.3   148  TYR148     -0.1227
     13  CA       -27.3420   -6.2030  -13.4890 C.3   148  TYR148      0.1736
     14  C        -25.9810   -5.8660  -14.1320 C.2   148  TYR148      0.2595
     15  O        -25.3490   -6.7380  -14.7430 O.2   148  TYR148     -0.2718
     16  CB       -28.3790   -6.5190  -14.5760 C.3   148  TYR148      0.0548
     17  CG       -28.8740   -5.3200  -15.3690 C.ar  148  TYR148     -0.0200
     18  CD1      -28.1990   -4.8830  -16.5020 C.ar  148  TYR148     -0.0009
     19  CD2      -30.0220   -4.6290  -14.9890 C.ar  148  TYR148     -0.0009
     20  CE1      -28.6390   -3.7920  -17.2310 C.ar  148  TYR148      0.0417
     21  CE2      -30.4690   -3.5340  -15.7140 C.ar  148  TYR148      0.0417
     22  CZ       -29.7780   -3.1190  -16.8320 C.ar  148  TYR148      0.1957
     23  OH       -30.2090   -2.0360  -17.5710 O.3   148  TYR148     -0.2866
     24  N        -25.5520   -4.6130  -14.0130 N.am  149  LEU149     -0.1980
     25  CA       -24.2360   -4.2160  -14.5290 C.3   149  LEU149      0.1596
     26  C        -23.1370   -4.3410  -13.4940 C.2   149  LEU149      0.2287
     27  O        -21.9510   -4.2520  -13.8450 O.2   149  LEU149     -0.2864
     28  CB       -24.2700   -2.7960  -15.0770 C.3   149  LEU149      0.0297
     29  CG       -25.1690   -2.5910  -16.3000 C.3   149  LEU149      0.0022
     30  CD1      -25.0350   -1.1640  -16.8060 C.3   149  LEU149      0.0001
     31  CD2      -24.9200   -3.5830  -17.4290 C.3   149  LEU149      0.0001
     32  N        -19.6500   -4.4210  -18.6150 N.3   166  THR166     -0.1218
     33  CA       -19.8750   -3.0460  -19.0430 C.3   166  THR166      0.1862
     34  C        -20.4830   -2.2000  -17.9320 C.2   166  THR166      0.2287
     35  O        -21.2080   -2.7180  -17.0730 O.2   166  THR166     -0.2866
     36  CB       -20.7190   -2.9690  -20.3340 C.3   166  THR166      0.1770
     37  OG1      -20.8630   -1.6110  -20.7590 O.3   166  THR166     -0.2211
     38  CG2      -22.1130   -3.5330  -20.1170 C.3   166  THR166      0.0375
     39  N        -21.8780    0.9470  -18.8370 N.3   168  GLY168     -0.1210
     40  CA       -22.6600    1.9110  -19.6050 C.3   168  GLY168      0.1956
     41  C        -21.8520    2.8790  -20.4490 C.2   168  GLY168      0.2612
     42  O        -22.4080    3.5140  -21.3500 O.2   168  GLY168     -0.2717
     43  N        -20.5480    2.9560  -20.1740 N.am  169  HIS169     -0.1961
     44  CA       -19.6290    3.8700  -20.8590 C.3   169  HIS169      0.1787
     45  C        -18.5710    3.1330  -21.6440 C.2   169  HIS169      0.2620
     46  O        -18.0900    3.6210  -22.6640 O.2   169  HIS169     -0.2715
     47  CB       -18.9200    4.7820  -19.8670 C.3   169  HIS169      0.0785
     48  CG       -19.8550    5.5510  -18.9930 C.ar  169  HIS169      0.0821
     49  ND1      -20.4730    6.7100  -19.4060 N.ar  169  HIS169     -0.2267
     50  CD2      -20.3030    5.3080  -17.7390 C.ar  169  HIS169      0.1154
     51  CE1      -21.2470    7.1610  -18.4360 C.ar  169  HIS169      0.1986
     52  NE2      -21.1650    6.3280  -17.4140 N.ar  169  HIS169     -0.2212
     53  N        -18.1860    1.9710  -21.1380 N.am  170  ARG170     -0.1963
     54  CA       -17.2060    1.1510  -21.8250 C.3   170  ARG170      0.1729
     55  C        -17.5490   -0.3060  -21.6030 C.2   170  ARG170      0.2616
     56  O        -18.2290   -0.6360  -20.6180 O.2   170  ARG170     -0.2715
     57  CB       -15.7700    1.5190  -21.3910 C.3   170  ARG170      0.0348
     58  CG       -15.5300    1.8410  -19.9200 C.3   170  ARG170      0.0492
     59  CD       -15.4180    0.6020  -19.0600 C.3   170  ARG170      0.2205
     60  NE       -15.2240    0.9670  -17.6610 N.pl3 170  ARG170     -0.0865
     61  CZ       -14.0670    1.2510  -17.0790 C.cat 170  ARG170      0.5346
     62  NH1      -12.9140    1.1530  -17.7320 N.pl3 170  ARG170      0.1354
     63  NH2      -14.0650    1.5940  -15.8080 N.pl3 170  ARG170      0.1354
     64  N        -17.0800   -1.1590  -22.5120 N.am  171  LEU171     -0.1977
     65  CA       -17.4100   -2.5790  -22.5300 C.3   171  LEU171      0.1596
     66  C        -16.1820   -3.4130  -22.8280 C.2   171  LEU171      0.2287
     67  O        -15.3110   -2.9940  -23.6110 O.2   171  LEU171     -0.2864
     68  CB       -18.5140   -2.8800  -23.5330 C.3   171  LEU171      0.0297
     69  CG       -18.9230   -4.3440  -23.6490 C.3   171  LEU171      0.0022
     70  CD1      -20.4260   -4.4430  -23.9020 C.3   171  LEU171      0.0001
     71  CD2      -18.1660   -5.0910  -24.7230 C.3   171  LEU171      0.0001
     72  N        -31.6600   -8.3840  -17.0970 N.3   234  ARG234     -0.1245
     73  CA       -31.3830   -8.4250  -18.5300 C.3   234  ARG234      0.1563
     74  C        -30.0470   -7.7320  -18.8550 C.2   234  ARG234      0.2260
     75  O        -29.9400   -6.5090  -18.7980 O.2   234  ARG234     -0.2867
     76  CB       -32.5240   -7.7480  -19.2960 C.3   234  ARG234      0.0307
     77  CG       -32.4700   -7.8910  -20.8080 C.3   234  ARG234      0.0489
     78  CD       -33.3490   -6.8380  -21.4790 C.3   234  ARG234      0.2205
     79  NE       -32.8370   -5.4930  -21.2270 N.pl3 234  ARG234     -0.0865
     80  CZ       -31.7210   -5.0130  -21.7650 C.cat 234  ARG234      0.5346
     81  NH1      -31.0380   -5.7510  -22.6250 N.pl3 234  ARG234      0.1354
     82  NH2      -31.3060   -3.7860  -21.4760 N.pl3 234  ARG234      0.1354
     83  N        -27.0230   -6.3620  -21.2750 N.3   236  PRO236     -0.2116
     84  CA       -26.9270   -5.9160  -22.6790 C.3   236  PRO236      0.1372
     85  C        -26.2040   -6.8990  -23.6110 C.2   236  PRO236      0.2244
     86  O        -25.3460   -7.6600  -23.1720 O.2   236  PRO236     -0.2868
     87  CB       -26.1570   -4.5980  -22.5890 C.3   236  PRO236      0.0268
     88  CG       -25.5900   -4.5340  -21.2240 C.3   236  PRO236      0.0207
     89  CD       -26.4200   -5.4040  -20.3390 C.3   236  PRO236      0.0892
     90  N        -23.3070   -3.4620  -29.2080 N.3   241  VAL241     -0.1245
     91  CA       -22.4490   -2.4220  -28.6890 C.3   241  VAL241      0.1561
     92  C        -21.2400   -2.2210  -29.6180 C.2   241  VAL241      0.2260
     93  O        -20.7410   -1.0950  -29.7770 O.2   241  VAL241     -0.2867
     94  CB       -21.9840   -2.7940  -27.2510 C.3   241  VAL241      0.0252
     95  CG1      -20.9670   -1.7990  -26.7200 C.3   241  VAL241      0.0019
     96  CG2      -23.1810   -2.8730  -26.3110 C.3   241  VAL241      0.0019
     97  N        -18.9450    5.2400  -30.4750 N.3   340  SER340     -0.1217
     98  CA       -17.9580    4.4190  -29.7700 C.3   340  SER340      0.1889
     99  C        -16.8680    3.9330  -30.7060 C.2   340  SER340      0.2288
    100  O        -17.0500    3.8250  -31.9350 O.2   340  SER340     -0.2866
    101  CB       -18.6130    3.2180  -29.1220 C.3   340  SER340      0.2089
    102  OG       -19.1560    2.3560  -30.0840 O.3   340  SER340     -0.2183
    103  N        -14.8760   -1.7650  -26.2010 N.3   354  VAL354     -0.1245
    104  CA       -15.6270   -0.6630  -26.7850 C.3   354  VAL354      0.1561
    105  C        -15.6250    0.4880  -25.7870 C.2   354  VAL354      0.2260
    106  O        -15.8900    0.3010  -24.5890 O.2   354  VAL354     -0.2867
    107  CB       -17.0770   -1.0840  -27.1690 C.3   354  VAL354      0.0252
    108  CG1      -17.8090    0.0610  -27.8330 C.3   354  VAL354      0.0019
    109  CG2      -17.0420   -2.2850  -28.1010 C.3   354  VAL354      0.0019
    110  N        -17.0030    4.5540  -25.3100 N.3   356  MET356     -0.1245
    111  CA       -17.7360    5.7220  -25.8110 C.3   356  MET356      0.1570
    112  C        -16.8380    6.9480  -25.6920 C.2   356  MET356      0.2261
    113  O        -16.0860    7.0490  -24.7510 O.2   356  MET356     -0.2867
    114  CB       -19.0090    5.9700  -25.0030 C.3   356  MET356      0.0387
    115  CG       -20.1070    4.9820  -25.2950 C.3   356  MET356      0.0595
    116  SD       -20.7330    5.0210  -26.9960 S.3   356  MET356     -0.1393
    117  CE       -21.3950    6.6760  -27.0990 C.3   356  MET356      0.0692
@<TRIPOS>BOND
     1   100    99    2
     2    99    98    1
     3    97    98    1
     4   102   101    1
     5    93    92    2
     6    98   101    1
     7    92    91    1
     8    90    91    1
     9    91    94    1
    10   109   107    1
    11   108   107    1
    12    94    95    1
    13    94    96    1
    14   107   104    1
    15   117   116    1
    16   116   115    1
    17   104   103    1
    18   104   105    1
    19   111   112    1
    20   111   110    1
    21   111   114    1
    22   105   106    2
    23   112   113    2
    24   115   114    1
    25    71    69    1
    26    70    69    1
    27    69    68    1
    28    67    66    2
    29    85    86    2
    30    85    84    1
    31    68    65    1
    32    66    65    1
    33    84    87    1
    34    84    83    1
    35    46    45    2
    36    81    80    1
    37    87    88    1
    38    65    64    1
    39    64    55   am
    40    54    55    1
    41    54    57    1
    42    54    53    1
    43    80    82    1
    44    80    79    2
    45    45    53   am
    46    45    44    1
    47    55    56    2
    48    78    79    1
    49    78    77    1
    50    57    58    1
    51    42    41    2
    52    83    89    1
    53    88    89    1
    54    44    43    1
    55    44    47    1
    56    77    76    1
    57    37    36    1
    58    41    43   am
    59    41    40    1
    60    36    38    1
    61    36    33    1
    62    58    59    1
    63    47    48    1
    64    40    39    1
    65    49    48   ar
    66    49    51   ar
    67    76    73    1
    68    59    60    1
    69    33    32    1
    70    33    34    1
    71    48    50   ar
    72    74    75    2
    73    74    73    1
    74    73    72    1
    75    51    52   ar
    76    10     9    1
    77    34    35    2
    78    50    52   ar
    79    62    61    1
    80    60    61    2
    81    23    22    1
    82    31    29    1
    83    20    22   ar
    84    20    18   ar
    85    61    63    1
    86     9    11    1
    87     9     8    2
    88    22    21   ar
    89    30    29    1
    90    18    17   ar
    91    29    28    1
    92     7     8    1
    93     7     6    1
    94    21    19   ar
    95    17    19   ar
    96    17    16    1
    97    28    25    1
    98     6     5    1
    99    15    14    2
   100    16    13    1
   101    25    24    1
   102    25    26    1
   103     5     2    1
   104    14    24   am
   105    14    13    1
   106    27    26    2
   107    13    12    1
   108     2     3    1
   109     2     1    1
   110     4     3    2
