@<TRIPOS>MOLECULE
tmp/4mjrA00.pdb
 75 73 0 0 0
SMALL
GASTEIGER

@<TRIPOS>ATOM
      1  N         -5.8450  -32.2150   15.0650 N.3     4  THR4       -0.1218
      2  CA        -4.4980  -31.6790   15.1220 C.3     4  THR4        0.1862
      3  C         -3.9780  -31.6620   13.6920 C.2     4  THR4        0.2287
      4  O         -3.9880  -32.6860   13.0290 O.2     4  THR4       -0.2866
      5  CB        -3.5720  -32.5330   16.0080 C.3     4  THR4        0.1770
      6  OG1       -4.1150  -32.6300   17.3370 O.3     4  THR4       -0.2211
      7  CG2       -2.1960  -31.9090   16.0860 C.3     4  THR4        0.0375
      8  N          4.7020  -20.1310   14.5850 N.3    77  PRO77      -0.2102
      9  CA         5.9410  -20.3360   13.8370 C.3    77  PRO77       0.1504
     10  C          5.7990  -21.2920   12.6680 C.2    77  PRO77       0.2576
     11  O          4.9560  -22.1880   12.6870 O.2    77  PRO77      -0.2718
     12  CB         6.8990  -20.9090   14.8830 C.3    77  PRO77       0.0282
     13  CG         6.0530  -21.4460   15.9560 C.3    77  PRO77       0.0208
     14  CD         4.7870  -20.6380   15.9660 C.3    77  PRO77       0.0893
     15  N          6.6260  -21.0920   11.6500 N.am   78  GLU78      -0.1966
     16  CA         6.7330  -22.0630   10.5750 C.3    78  GLU78       0.1733
     17  C          6.9960  -23.4470   11.1490 C.2    78  GLU78       0.2617
     18  O          7.7950  -23.6110   12.0710 O.2    78  GLU78      -0.2715
     19  CB         7.8520  -21.6650    9.6130 C.3    78  GLU78       0.0429
     20  CG         7.9080  -22.5000    8.3490 C.3    78  GLU78       0.1163
     21  CD         8.3980  -21.6910    7.1680 C.2    78  GLU78       0.3649
     22  OE1        7.7240  -20.6860    6.8280 O.co2  78  GLU78      -0.2457
     23  OE2        9.4460  -22.0560    6.5870 O.co2  78  GLU78      -0.2457
     24  N          6.3070  -24.4460   10.6170 N.am   79  GLY79      -0.1940
     25  CA         6.4040  -25.8130   11.1340 C.3    79  GLY79       0.2014
     26  C          5.5000  -26.1900   12.2960 C.2    79  GLY79       0.2639
     27  O          5.4610  -27.3560   12.6860 O.2    79  GLY79      -0.2714
     28  N          4.7370  -25.2400   12.8370 N.am   80  ALA80      -0.1963
     29  CA         3.8970  -25.5010   14.0000 C.3    80  ALA80       0.1728
     30  C          2.7950  -26.5140   13.7130 C.2    80  ALA80       0.2616
     31  O          2.2620  -26.5490   12.6030 O.2    80  ALA80      -0.2715
     32  CB         3.2520  -24.2130   14.5000 C.3    80  ALA80       0.0334
     33  N          2.4770  -27.3020   14.7310 N.am   81  GLU81      -0.1963
     34  CA         1.2680  -28.1280   14.7910 C.3    81  GLU81       0.1733
     35  C          0.2140  -27.3830   15.5560 C.2    81  GLU81       0.2616
     36  O          0.5060  -26.7710   16.5900 O.2    81  GLU81      -0.2715
     37  CB         1.5520  -29.4070   15.5690 C.3    81  GLU81       0.0429
     38  CG         2.6160  -30.2920   14.9610 C.3    81  GLU81       0.1163
     39  CD         2.0690  -31.2680   13.9480 C.2    81  GLU81       0.3649
     40  OE1        2.8590  -32.1370   13.5090 O.co2  81  GLU81      -0.2457
     41  OE2        0.8730  -31.1660   13.5720 O.co2  81  GLU81      -0.2457
     42  N         -1.0320  -27.4680   15.1060 N.am   82  ILE82      -0.1963
     43  CA        -2.0990  -26.7520   15.7540 C.3    82  ILE82       0.1727
     44  C         -3.1500  -27.7640   16.1840 C.2    82  ILE82       0.2616
     45  O         -3.7110  -28.4690   15.3320 O.2    82  ILE82      -0.2715
     46  CB        -2.6890  -25.6840   14.8090 C.3    82  ILE82       0.0290
     47  CG1       -1.5810  -24.7210   14.3540 C.3    82  ILE82       0.0022
     48  CG2       -3.8360  -24.9390   15.4850 C.3    82  ILE82       0.0023
     49  CD1       -2.0350  -23.6660   13.3740 C.3    82  ILE82       0.0001
     50  N         -3.3760  -27.8450   17.5010 N.am   83  ALA83      -0.1977
     51  CA        -4.3840  -28.7290   18.1020 C.3    83  ALA83       0.1597
     52  C         -5.6040  -27.9090   18.4900 C.2    83  ALA83       0.2287
     53  O         -5.4900  -26.8540   19.1280 O.2    83  ALA83      -0.2864
     54  CB        -3.8180  -29.4480   19.3280 C.3    83  ALA83       0.0319
     55  N         -4.1890  -24.8150   20.5620 N.3    94  ARG94      -0.1231
     56  CA        -2.9460  -25.1170   21.2620 C.3    94  ARG94       0.1694
     57  C         -1.8470  -25.3660   20.2660 C.2    94  ARG94       0.2593
     58  O         -2.0210  -26.1550   19.3430 O.2    94  ARG94      -0.2718
     59  CB        -3.0940  -26.4210   22.0430 C.3    94  ARG94       0.0321
     60  CG        -3.2890  -26.3130   23.5280 C.3    94  ARG94       0.0489
     61  CD        -2.8140  -27.6200   24.1670 C.3    94  ARG94       0.2205
     62  NE        -3.4040  -28.8250   23.5490 N.pl3  94  ARG94      -0.0865
     63  CZ        -2.7400  -29.7490   22.8420 C.cat  94  ARG94       0.5346
     64  NH1       -1.4280  -29.6590   22.6210 N.pl3  94  ARG94       0.1354
     65  NH2       -3.3960  -30.7920   22.3410 N.pl3  94  ARG94       0.1354
     66  N         -0.7000  -24.7410   20.4750 N.am   95  SER95      -0.1938
     67  CA         0.4710  -25.0300   19.6660 C.3    95  SER95       0.2055
     68  C          1.7000  -24.7090   20.4990 C.2    95  SER95       0.2643
     69  O          1.8840  -23.5670   20.9080 O.2    95  SER95      -0.2714
     70  CB         0.4570  -24.2040   18.3740 C.3    95  SER95       0.2130
     71  OG         1.5160  -24.5950   17.5050 O.3    95  SER95      -0.2179
     72  N          2.5310  -25.7210   20.7580 N.am   96  GLY96      -0.1954
     73  CA         3.6240  -25.5790   21.7400 C.3    96  GLY96       0.1869
     74  C          3.1170  -25.1470   23.0990 C.2    96  GLY96       0.2309
     75  O          2.2640  -25.8090   23.6940 O.2    96  GLY96      -0.2863
@<TRIPOS>BOND
     1    23    21   ar
     2    22    21   ar
     3    21    20    1
     4    20    19    1
     5    19    16    1
     6    16    17    1
     7    16    15    1
     8    24    25    1
     9    24    17   am
    10    25    26    1
    11    17    18    2
    12    15    10   am
    13    26    27    2
    14    26    28   am
    15    31    30    2
    16    10    11    2
    17    10     9    1
    18    28    29    1
    19     4     3    2
    20    49    47    1
    21    40    39   ar
    22    41    39   ar
    23     3     2    1
    24    30    29    1
    25    30    33   am
    26     9     8    1
    27     9    12    1
    28    39    38    1
    29    29    32    1
    30    47    46    1
    31     8    14    1
    32    33    34    1
    33    34    35    1
    34    34    37    1
    35    46    48    1
    36    46    43    1
    37    12    13    1
    38    38    37    1
    39     1     2    1
    40    42    35   am
    41    42    43    1
    42     2     5    1
    43    45    44    2
    44    35    36    2
    45    43    44    1
    46    13    14    1
    47     5     7    1
    48     5     6    1
    49    44    50   am
    50    50    51    1
    51    71    70    1
    52    51    52    1
    53    51    54    1
    54    70    67    1
    55    52    53    2
    56    58    57    2
    57    67    66    1
    58    67    68    1
    59    57    66   am
    60    57    56    1
    61    68    72   am
    62    68    69    2
    63    55    56    1
    64    72    73    1
    65    56    59    1
    66    73    74    1
    67    59    60    1
    68    65    63    1
    69    64    63    1
    70    63    62    2
    71    74    75    2
    72    60    61    1
    73    62    61    1
