@<TRIPOS>MOLECULE
tmp/4mjvA00.pdb
 183 172 0 0 0
SMALL
GASTEIGER

@<TRIPOS>ATOM
      1  N        105.7000  104.9100  127.7520 N.3    36  ARG36      -0.1231
      2  CA       106.1160  106.2860  127.5460 C.3    36  ARG36       0.1694
      3  C        106.1730  106.4730  126.0500 C.2    36  ARG36       0.2591
      4  O        106.2530  105.4960  125.2940 O.2    36  ARG36      -0.2718
      5  CB       107.5010  106.5560  128.1170 C.3    36  ARG36       0.0321
      6  CG       107.5550  106.8540  129.5920 C.3    36  ARG36       0.0489
      7  CD       106.9090  108.1870  129.9420 C.3    36  ARG36       0.2205
      8  NE       107.2190  109.2780  129.0130 N.pl3  36  ARG36      -0.0865
      9  CZ       108.3340  110.0060  129.0300 C.cat  36  ARG36       0.5346
     10  NH1      108.4970  110.9850  128.1500 N.pl3  36  ARG36       0.1354
     11  NH2      109.2890  109.7550  129.9140 N.pl3  36  ARG36       0.1354
     12  N        106.1280  107.7290  125.6250 N.am   37  GLU37      -0.1979
     13  CA       106.3900  108.0440  124.2370 C.3    37  GLU37       0.1602
     14  C        105.4510  107.2550  123.2830 C.2    37  GLU37       0.2287
     15  O        105.8840  106.3900  122.5210 O.2    37  GLU37      -0.2864
     16  CB       107.8880  107.8030  123.9830 C.3    37  GLU37       0.0415
     17  CG       108.3520  107.7760  122.5510 C.3    37  GLU37       0.1163
     18  CD       109.4030  106.7100  122.3650 C.2    37  GLU37       0.3649
     19  OE1      110.1030  106.4480  123.3660 O.co2  37  GLU37      -0.2457
     20  OE2      109.5190  106.1320  121.2530 O.co2  37  GLU37      -0.2457
     21  N        106.2210  102.7210  123.5200 N.3    52  LEU52      -0.1245
     22  CA       107.2230  101.9030  124.1820 C.3    52  LEU52       0.1561
     23  C        106.6240  101.2230  125.3890 C.2    52  LEU52       0.2260
     24  O        105.9790  101.8560  126.2240 O.2    52  LEU52      -0.2867
     25  CB       108.4350  102.7270  124.5860 C.3    52  LEU52       0.0270
     26  CG       109.3450  103.0390  123.4050 C.3    52  LEU52       0.0019
     27  CD1      110.7120  103.5140  123.8950 C.3    52  LEU52       0.0001
     28  CD2      109.4570  101.8130  122.4860 C.3    52  LEU52       0.0001
     29  N        114.8780  102.7450  132.2480 N.3    69  ASP69      -0.1225
     30  CA       114.2350  103.1640  131.0040 C.3    69  ASP69       0.1805
     31  C        114.7140  102.3050  129.9120 C.2    69  ASP69       0.2597
     32  O        113.9470  101.7250  129.1820 O.2    69  ASP69      -0.2718
     33  CB       114.4790  104.5970  130.7020 C.3    69  ASP69       0.1424
     34  CG       113.5680  105.4780  131.4580 C.2    69  ASP69       0.3668
     35  OD1      112.9240  104.9700  132.3440 O.co2  69  ASP69      -0.2456
     36  OD2      113.4800  106.6620  131.1730 O.co2  69  ASP69      -0.2456
     37  N        116.0000  102.1310  129.8700 N.am   70  ARG70      -0.1979
     38  CA       116.5330  101.3180  128.8050 C.3    70  ARG70       0.1597
     39  C        116.6590   99.8860  129.3060 C.2    70  ARG70       0.2287
     40  O        117.7470   99.3010  129.2900 O.2    70  ARG70      -0.2864
     41  CB       117.8630  101.8750  128.3160 C.3    70  ARG70       0.0334
     42  CG       117.7220  103.1870  127.5970 C.3    70  ARG70       0.0492
     43  CD       119.0640  103.6810  127.0950 C.3    70  ARG70       0.2205
     44  NE       119.9800  103.9420  128.1970 N.pl3  70  ARG70      -0.0865
     45  CZ       119.9700  105.0580  128.9190 C.cat  70  ARG70       0.5346
     46  NH1      120.8360  105.2230  129.9090 N.pl3  70  ARG70       0.1354
     47  NH2      119.0930  106.0140  128.6470 N.pl3  70  ARG70       0.1354
     48  N        111.8340   96.3940  127.0970 N.3    74  ARG74      -0.1245
     49  CA       111.1080   97.3950  126.3290 C.3    74  ARG74       0.1563
     50  C        110.9220   97.0250  124.8670 C.2    74  ARG74       0.2260
     51  O        111.8750   96.7860  124.1400 O.2    74  ARG74      -0.2867
     52  CB       111.7200   98.7970  126.4790 C.3    74  ARG74       0.0307
     53  CG       111.3900   99.4720  127.7940 C.3    74  ARG74       0.0489
     54  CD       111.5240  100.9820  127.6880 C.3    74  ARG74       0.2205
     55  NE       110.2470  101.6840  127.7660 N.pl3  74  ARG74      -0.0865
     56  CZ       110.1140  102.9610  128.1150 C.cat  74  ARG74       0.5346
     57  NH1      108.9110  103.5200  128.1590 N.pl3  74  ARG74       0.1354
     58  NH2      111.1810  103.6800  128.4400 N.pl3  74  ARG74       0.1354
     59  N        114.0930  100.1990  123.2500 N.3    97  TRP97      -0.1227
     60  CA       113.8790  101.1850  124.2910 C.3    97  TRP97       0.1737
     61  C        113.9450  102.5900  123.7030 C.2    97  TRP97       0.2596
     62  O        114.0270  103.5720  124.4230 O.2    97  TRP97      -0.2718
     63  CB       114.8180  101.0080  125.4900 C.3    97  TRP97       0.0564
     64  CG       116.2450  100.6450  125.1810 C.ar   97  TRP97       0.0003
     65  CD1      116.8940   99.5040  125.5500 C.ar   97  TRP97       0.0946
     66  CD2      117.2090  101.4450  124.4900 C.ar   97  TRP97       0.0152
     67  NE1      118.1890   99.5300  125.1120 N.ar   97  TRP97      -0.2442
     68  CE2      118.4090  100.7140  124.4600 C.ar   97  TRP97       0.0810
     69  CE3      117.1700  102.6980  123.8850 C.ar   97  TRP97       0.0012
     70  CZ2      119.5530  101.1970  123.8470 C.ar   97  TRP97       0.0191
     71  CZ3      118.2910  103.1670  123.2750 C.ar   97  TRP97       0.0001
     72  CH2      119.4720  102.4270  123.2590 C.ar   97  TRP97       0.0015
     73  N        113.8980  102.6510  122.3770 N.am   98  SER98      -0.1952
     74  CA       113.8410  103.8900  121.6150 C.3    98  SER98       0.1924
     75  C        113.4860  103.4660  120.1880 C.2    98  SER98       0.2314
     76  O        114.0550  102.4990  119.6710 O.2    98  SER98      -0.2863
     77  CB       115.1840  104.6420  121.6850 C.3    98  SER98       0.2116
     78  OG       115.2940  105.6320  120.6750 O.3    98  SER98      -0.2180
     79  N        124.6760  105.2670  123.9360 N.3   141  ILE141     -0.1245
     80  CA       123.2140  105.2810  123.8390 C.3   141  ILE141      0.1561
     81  C        122.6610  105.7110  122.4820 C.2   141  ILE141      0.2260
     82  O        122.0350  106.7650  122.3670 O.2   141  ILE141     -0.2867
     83  CB       122.5910  106.1420  124.9540 C.3   141  ILE141      0.0252
     84  CG1      123.2450  105.7950  126.2870 C.3   141  ILE141      0.0019
     85  CG2      121.0820  105.9150  125.0550 C.3   141  ILE141      0.0019
     86  CD1      122.6490  106.5370  127.4610 C.3   141  ILE141      0.0001
     87  N        120.2370  106.1730  119.4510 N.3   143  ARG143     -0.1245
     88  CA       118.8440  106.5670  119.6470 C.3   143  ARG143      0.1563
     89  C        118.2600  107.2830  118.4270 C.2   143  ARG143      0.2260
     90  O        118.9780  107.5990  117.4760 O.2   143  ARG143     -0.2867
     91  CB       118.7230  107.4440  120.9010 C.3   143  ARG143      0.0307
     92  CG       119.7410  108.5870  120.9720 C.3   143  ARG143      0.0489
     93  CD       119.9300  109.0880  122.4080 C.3   143  ARG143      0.2205
     94  NE       120.7170  110.3210  122.4850 N.pl3 143  ARG143     -0.0865
     95  CZ       122.0170  110.3820  122.7780 C.cat 143  ARG143      0.5346
     96  NH1      122.6280  111.5600  122.8140 N.pl3 143  ARG143      0.1354
     97  NH2      122.7160  109.2780  123.0350 N.pl3 143  ARG143      0.1354
     98  N        111.6600  108.8720  118.2910 N.3   146  GLU146     -0.1245
     99  CA       110.5820  108.6560  119.2530 C.3   146  GLU146      0.1567
    100  C        109.2880  109.2790  118.7170 C.2   146  GLU146      0.2260
    101  O        108.4250  109.7170  119.4720 O.2   146  GLU146     -0.2867
    102  CB       110.9430  109.2030  120.6390 C.3   146  GLU146      0.0388
    103  CG       112.3780  108.9170  121.1100 C.3   146  GLU146      0.1160
    104  CD       112.6910  107.4340  121.3110 C.2   146  GLU146      0.3649
    105  OE1      112.5090  106.6420  120.3630 O.co2 146  GLU146     -0.2457
    106  OE2      113.1370  107.0570  122.4180 O.co2 146  GLU146     -0.2457
    107  N        124.0770  113.0640  126.1120 N.3   165  ALA165     -0.1245
    108  CA       122.7460  113.6430  126.1140 C.3   165  ALA165      0.1562
    109  C        122.7190  115.1050  126.5840 C.2   165  ALA165      0.2260
    110  O        121.6840  115.7710  126.5060 O.2   165  ALA165     -0.2867
    111  CB       121.8130  112.7970  126.9670 C.3   165  ALA165      0.0290
    112  N        118.1920  115.9300  119.1550 N.3   195  GLU195     -0.1231
    113  CA       117.5670  114.8200  119.8600 C.3   195  GLU195      0.1699
    114  C        116.1210  114.6720  119.4600 C.2   195  GLU195      0.2592
    115  O        115.4170  115.6720  119.2850 O.2   195  GLU195     -0.2718
    116  CB       117.6000  115.0640  121.3690 C.3   195  GLU195      0.0402
    117  CG       118.9760  115.0340  121.9860 C.3   195  GLU195      0.1161
    118  CD       119.4220  113.6370  122.4030 C.2   195  GLU195      0.3649
    119  OE1      120.1530  113.5470  123.4060 O.co2 195  GLU195     -0.2457
    120  OE2      119.0540  112.6390  121.7460 O.co2 195  GLU195     -0.2457
    121  N        115.6820  113.4210  119.3290 N.am  196  GLU196     -0.1979
    122  CA       114.2620  113.0930  119.2980 C.3   196  GLU196      0.1602
    123  C        113.4680  113.8750  118.2710 C.2   196  GLU196      0.2287
    124  O        112.4630  114.4730  118.6120 O.2   196  GLU196     -0.2864
    125  CB       113.6500  113.3580  120.6820 C.3   196  GLU196      0.0415
    126  CG       114.1320  112.4060  121.7790 C.3   196  GLU196      0.1163
    127  CD       113.7520  112.8700  123.1700 C.2   196  GLU196      0.3649
    128  OE1      113.3060  114.0210  123.3030 O.co2 196  GLU196     -0.2457
    129  OE2      113.8990  112.0960  124.1360 O.co2 196  GLU196     -0.2457
    130  N        115.1510  118.5130  119.4360 N.3   211  ARG211     -0.1245
    131  CA       115.3640  118.9330  120.8130 C.3   211  ARG211      0.1563
    132  C        116.8340  119.1770  121.1100 C.2   211  ARG211      0.2260
    133  O        117.6850  118.3220  120.8500 O.2   211  ARG211     -0.2867
    134  CB       114.7840  117.8880  121.7710 C.3   211  ARG211      0.0307
    135  CG       115.3160  117.9260  123.1990 C.3   211  ARG211      0.0489
    136  CD       114.7870  116.7190  123.9460 C.3   211  ARG211      0.2205
    137  NE       115.2820  116.6090  125.3070 N.pl3 211  ARG211     -0.0865
    138  CZ       114.8260  115.7250  126.1870 C.cat 211  ARG211      0.5346
    139  NH1      115.3160  115.6850  127.4200 N.pl3 211  ARG211      0.1354
    140  NH2      113.8650  114.8830  125.8310 N.pl3 211  ARG211      0.1354
    141  N        119.2970  119.4450  124.0130 N.3   213  ASN213     -0.1240
    142  CA       119.3360  119.0150  125.3900 C.3   213  ASN213      0.1653
    143  C        120.6340  119.4510  126.0420 C.2   213  ASN213      0.2266
    144  O        120.9590  119.0320  127.1550 O.2   213  ASN213     -0.2867
    145  CB       119.1410  117.5030  125.4740 C.3   213  ASN213      0.1155
    146  CG       118.5790  117.0670  126.8010 C.2   213  ASN213      0.2627
    147  OD1      117.4180  117.3200  127.1040 O.2   213  ASN213     -0.2716
    148  ND2      119.3990  116.4070  127.6060 N.am  213  ASN213     -0.0877
    149  N        118.7230  120.4760  129.6210 N.3   264  TYR264     -0.1241
    150  CA       117.5380  119.6430  129.5400 C.3   264  TYR264      0.1605
    151  C        116.7130  119.9830  128.3100 C.2   264  TYR264      0.2264
    152  O        117.2290  120.5070  127.3200 O.2   264  TYR264     -0.2867
    153  CB       116.6650  119.6260  130.7920 C.3   264  TYR264      0.0534
    154  CG       115.8740  118.3470  130.9300 C.ar  264  TYR264     -0.0201
    155  CD1      116.5000  117.1060  130.8100 C.ar  264  TYR264     -0.0009
    156  CD2      114.5050  118.3710  131.1700 C.ar  264  TYR264     -0.0009
    157  CE1      115.7830  115.9140  130.9330 C.ar  264  TYR264      0.0417
    158  CE2      113.7730  117.1920  131.2920 C.ar  264  TYR264      0.0417
    159  CZ       114.4200  115.9630  131.1720 C.ar  264  TYR264      0.1957
    160  OH       113.7080  114.7820  131.2940 O.3   264  TYR264     -0.2866
    161  N        106.7210  120.0320  132.6420 N.3   288  ARG288     -0.1245
    162  CA       105.9850  119.2990  131.6290 C.3   288  ARG288      0.1563
    163  C        104.4890  119.2890  131.9630 C.2   288  ARG288      0.2260
    164  O        103.9060  118.2530  132.2870 O.2   288  ARG288     -0.2867
    165  CB       106.5690  117.8900  131.4950 C.3   288  ARG288      0.0307
    166  CG       107.9780  117.9320  130.9240 C.3   288  ARG288      0.0489
    167  CD       108.6330  116.5830  130.8440 C.3   288  ARG288      0.2205
    168  NE       109.8160  116.6380  130.0010 N.pl3 288  ARG288     -0.0865
    169  CZ       110.6060  115.6030  129.7580 C.cat 288  ARG288      0.5346
    170  NH1      111.6620  115.7490  128.9890 N.pl3 288  ARG288      0.1354
    171  NH2      110.3440  114.4230  130.2870 N.pl3 288  ARG288      0.1354
    172  N        105.8560  114.6740  126.0630 N.3   322  TYR322     -0.1241
    173  CA       106.3480  114.6280  124.6950 C.3   322  TYR322      0.1605
    174  C        105.2780  115.0450  123.6940 C.2   322  TYR322      0.2264
    175  O        104.0790  114.9890  123.9800 O.2   322  TYR322     -0.2867
    176  CB       106.8900  113.2310  124.3510 C.3   322  TYR322      0.0534
    177  CG       108.3360  113.0000  124.7750 C.ar  322  TYR322     -0.0201
    178  CD1      108.9230  113.7710  125.7710 C.ar  322  TYR322     -0.0009
    179  CD2      109.1160  112.0270  124.1600 C.ar  322  TYR322     -0.0009
    180  CE1      110.2310  113.5730  126.1410 C.ar  322  TYR322      0.0417
    181  CE2      110.4240  111.8320  124.5210 C.ar  322  TYR322      0.0417
    182  CZ       110.9770  112.6050  125.5130 C.ar  322  TYR322      0.1957
    183  OH       112.2860  112.4110  125.8870 O.3   322  TYR322     -0.2866
@<TRIPOS>BOND
     1    90    89    2
     2   123   124    2
     3   123   122    1
     4    98    99    1
     5    89    88    1
     6   100    99    1
     7   100   101    2
     8   112   113    1
     9    99   102    1
    10   115   114    2
    11   122   121    1
    12   122   125    1
    13   121   114   am
    14   130   131    1
    15    87    88    1
    16   114   113    1
    17    88    91    1
    18    76    75    2
    19   113   116    1
    20    75    74    1
    21   105   104   ar
    22   102   103    1
    23    78    77    1
    24   125   126    1
    25   131   132    1
    26   131   134    1
    27   133   132    2
    28    91    92    1
    29    92    93    1
    30   103   104    1
    31    20    18   ar
    32   104   106   ar
    33   116   117    1
    34    74    77    1
    35    74    73    1
    36   120   118   ar
    37   134   135    1
    38   126   127    1
    39   117   118    1
    40    18    17    1
    41    18    19   ar
    42    82    81    2
    43    73    61   am
    44   118   119   ar
    45    93    94    1
    46    81    80    1
    47    94    95    2
    48    28    26    1
    49    15    14    2
    50    17    16    1
    51    95    96    1
    52    95    97    1
    53   127   128   ar
    54   127   129   ar
    55   135   136    1
    56    59    60    1
    57    72    71   ar
    58    72    70   ar
    59    71    69   ar
    60    14    13    1
    61    26    27    1
    62    26    25    1
    63    21    22    1
    64   174   175    2
    65   174   173    1
    66    61    60    1
    67    61    62    2
    68    80    79    1
    69    80    83    1
    70    70    68   ar
    71    69    66   ar
    72   136   137    1
    73    16    13    1
    74   141   142    1
    75    51    50    2
    76   179   181   ar
    77   179   177   ar
    78    22    25    1
    79    22    23    1
    80    13    12    1
    81    60    63    1
    82   176   173    1
    83   176   177    1
    84    68    66   ar
    85    68    67   ar
    86    66    64   ar
    87   181   182   ar
    88   173   172    1
    89   177   178   ar
    90    50    49    1
    91    83    85    1
    92    83    84    1
    93    67    65   ar
    94    64    63    1
    95    64    65   ar
    96     4     3    2
    97   137   138    2
    98    23    24    2
    99   142   145    1
   100   142   143    1
   101   145   146    1
   102   182   183    1
   103   182   180   ar
   104    12     3   am
   105   178   180   ar
   106   140   138    1
   107   143   144    2
   108     3     2    1
   109   107   108    1
   110   108   109    1
   111   108   111    1
   112   138   139    1
   113    84    86    1
   114    49    52    1
   115    49    48    1
   116    52    53    1
   117   110   109    2
   118   146   147    2
   119   146   148   am
   120    43    42    1
   121    43    44    1
   122   152   151    2
   123     2     1    1
   124     2     5    1
   125    42    41    1
   126    54    55    1
   127    54    53    1
   128    55    56    2
   129    56    57    1
   130    56    58    1
   131     5     6    1
   132    10     9    1
   133    44    45    2
   134   151   150    1
   135    41    38    1
   136    47    45    1
   137    38    39    1
   138    38    37    1
   139    45    46    1
   140   170   169    1
   141     8     9    2
   142     8     7    1
   143     9    11    1
   144    32    31    2
   145    40    39    2
   146   150   149    1
   147   150   153    1
   148     6     7    1
   149   169   168    2
   150   169   171    1
   151    37    31   am
   152    31    30    1
   153   168   167    1
   154    33    30    1
   155    33    34    1
   156   153   154    1
   157   155   154   ar
   158   155   157   ar
   159   167   166    1
   160   166   165    1
   161   154   156   ar
   162   157   159   ar
   163    30    29    1
   164   156   158   ar
   165   159   158   ar
   166   159   160    1
   167    36    34   ar
   168    34    35   ar
   169   165   162    1
   170   162   163    1
   171   162   161    1
   172   163   164    2
