@<TRIPOS>MOLECULE
tmp/4mjwA01.pdb
 124 123 0 0 0
SMALL
GASTEIGER

@<TRIPOS>ATOM
      1  N        -52.1790   -4.3730  -20.1480 N.3    61  TRP61      -0.1241
      2  CA       -50.7070   -4.2650  -20.1970 C.3    61  TRP61       0.1605
      3  C        -50.0260   -5.4060  -21.0040 C.2    61  TRP61       0.2264
      4  O        -49.0400   -5.1390  -21.7220 O.2    61  TRP61      -0.2867
      5  CB       -50.1460   -4.1710  -18.7600 C.3    61  TRP61       0.0550
      6  CG       -50.0910   -5.4960  -18.0180 C.ar   61  TRP61       0.0003
      7  CD1      -51.0410   -5.9840  -17.1230 C.ar   61  TRP61       0.0946
      8  CD2      -48.9940   -6.4490  -17.9930 C.ar   61  TRP61       0.0152
      9  NE1      -50.6210   -7.1820  -16.5990 N.ar   61  TRP61      -0.2442
     10  CE2      -49.3760   -7.4950  -17.1020 C.ar   61  TRP61       0.0810
     11  CE3      -47.7230   -6.4990  -18.6050 C.ar   61  TRP61       0.0012
     12  CZ2      -48.5250   -8.6110  -16.8350 C.ar   61  TRP61       0.0191
     13  CZ3      -46.9050   -7.6300  -18.4260 C.ar   61  TRP61       0.0001
     14  CH2      -47.2790   -8.6640  -17.4730 C.ar   61  TRP61       0.0015
     15  N        -45.8810   -2.0510  -17.0610 N.3   100  ASN100     -0.1225
     16  CA       -45.7930   -3.1410  -16.1120 C.3   100  ASN100      0.1785
     17  C        -47.1810   -3.5230  -15.5220 C.2   100  ASN100      0.2597
     18  O        -48.2170   -2.9820  -15.8990 O.2   100  ASN100     -0.2718
     19  CB       -44.7480   -2.8660  -15.0020 C.3   100  ASN100      0.1169
     20  CG       -45.1480   -1.7440  -14.0300 C.2   100  ASN100      0.2627
     21  OD1      -46.3010   -1.2510  -14.0030 O.2   100  ASN100     -0.2716
     22  ND2      -44.1230   -1.2230  -13.3100 N.am  100  ASN100     -0.0877
     23  N        -47.1960   -4.4320  -14.5600 N.am  101  SER101     -0.1952
     24  CA       -48.5080   -4.8280  -13.9920 C.3   101  SER101      0.1924
     25  C        -48.8090   -4.1030  -12.7080 C.2   101  SER101      0.2314
     26  O        -49.7230   -4.4800  -11.9720 O.2   101  SER101     -0.2863
     27  CB       -48.5190   -6.3230  -13.7030 C.3   101  SER101      0.2116
     28  OG       -47.2760   -6.7240  -13.1650 O.3   101  SER101     -0.2180
     29  N        -47.6260   -3.8760   -9.8200 N.3   103  ILE103     -0.1245
     30  CA       -47.5120   -4.4400   -8.4550 C.3   103  ILE103      0.1561
     31  C        -46.6030   -3.4870   -7.6540 C.2   103  ILE103      0.2260
     32  O        -45.4980   -3.1220   -8.1240 O.2   103  ILE103     -0.2867
     33  CB       -46.8360   -5.8060   -8.5230 C.3   103  ILE103      0.0252
     34  CG1      -47.8270   -6.7360   -9.2650 C.3   103  ILE103      0.0019
     35  CG2      -46.5070   -6.2940   -7.1170 C.3   103  ILE103      0.0019
     36  CD1      -47.2060   -8.0550   -9.7680 C.3   103  ILE103      0.0001
     37  N        -37.1250  -16.1390  -13.3400 N.3   312  GLU312     -0.1245
     38  CA       -38.4640  -16.6020  -12.9790 C.3   312  GLU312      0.1567
     39  C        -38.7640  -17.9520  -13.6580 C.2   312  GLU312      0.2260
     40  O        -38.4090  -18.1520  -14.8340 O.2   312  GLU312     -0.2867
     41  CB       -39.4920  -15.5490  -13.4560 C.3   312  GLU312      0.0388
     42  CG       -40.9690  -15.8890  -13.2150 C.3   312  GLU312      0.1160
     43  CD       -41.9400  -14.9190  -13.9250 C.2   312  GLU312      0.3649
     44  OE1      -42.4680  -13.9610  -13.2350 O.co2 312  GLU312     -0.2457
     45  OE2      -42.1510  -15.0790  -15.1800 O.co2 312  GLU312     -0.2457
     46  N        -52.3850  -10.7430  -12.5300 N.3   331  TRP331     -0.1241
     47  CA       -51.3330  -11.3260  -11.6700 C.3   331  TRP331      0.1605
     48  C        -51.4550  -10.6930  -10.2640 C.2   331  TRP331      0.2264
     49  O        -50.6760   -9.8550   -9.8540 O.2   331  TRP331     -0.2867
     50  CB       -49.9360  -10.9800  -12.2530 C.3   331  TRP331      0.0550
     51  CG       -49.6960  -11.7280  -13.5570 C.ar  331  TRP331      0.0003
     52  CD1      -50.1040  -11.3090  -14.8330 C.ar  331  TRP331      0.0946
     53  CD2      -49.1430  -13.0530  -13.7300 C.ar  331  TRP331      0.0152
     54  NE1      -49.8050  -12.2900  -15.7730 N.ar  331  TRP331     -0.2442
     55  CE2      -49.1900  -13.3490  -15.1380 C.ar  331  TRP331      0.0810
     56  CE3      -48.5510  -13.9830  -12.8570 C.ar  331  TRP331      0.0012
     57  CZ2      -48.7180  -14.5760  -15.6970 C.ar  331  TRP331      0.0191
     58  CZ3      -48.1210  -15.2360  -13.4020 C.ar  331  TRP331      0.0001
     59  CH2      -48.1380  -15.4710  -14.8150 C.ar  331  TRP331      0.0015
     60  N        -45.5470  -15.3640   -8.0140 N.3   351  HIS351     -0.1241
     61  CA       -46.7830  -14.6930   -8.4580 C.3   351  HIS351      0.1621
     62  C        -47.8530  -15.7240   -8.8720 C.2   351  HIS351      0.2264
     63  O        -47.5100  -16.8080   -9.3330 O.2   351  HIS351     -0.2867
     64  CB       -46.5840  -13.7190   -9.6530 C.3   351  HIS351      0.0745
     65  CG       -45.6790  -12.5570   -9.3420 C.ar  351  HIS351      0.0817
     66  ND1      -44.3250  -12.7000   -9.1500 N.ar  351  HIS351     -0.2268
     67  CD2      -45.9290  -11.2330   -9.1810 C.ar  351  HIS351      0.1154
     68  CE1      -43.7680  -11.5090   -8.9790 C.ar  351  HIS351      0.1986
     69  NE2      -44.7180  -10.5980   -9.0000 N.ar  351  HIS351     -0.2212
     70  N        -49.2340  -19.2060  -19.1260 N.3   357  PHE357     -0.1241
     71  CA       -48.1410  -18.3170  -19.4480 C.3   357  PHE357      0.1605
     72  C        -47.1730  -19.1750  -20.2650 C.2   357  PHE357      0.2264
     73  O        -46.2110  -19.6550  -19.6950 O.2   357  PHE357     -0.2867
     74  CB       -47.4950  -17.7850  -18.1750 C.3   357  PHE357      0.0534
     75  CG       -46.4000  -16.7770  -18.4400 C.ar  357  PHE357     -0.0203
     76  CD1      -46.7230  -15.5440  -18.9960 C.ar  357  PHE357     -0.0042
     77  CD2      -45.0600  -17.0780  -18.1380 C.ar  357  PHE357     -0.0042
     78  CE1      -45.7280  -14.6040  -19.2230 C.ar  357  PHE357     -0.0003
     79  CE2      -44.0410  -16.1580  -18.4060 C.ar  357  PHE357     -0.0003
     80  CZ       -44.3940  -14.9120  -18.9280 C.ar  357  PHE357     -0.0000
     81  N        -38.0640  -14.0000  -16.8770 N.3   463  THR463     -0.1203
     82  CA       -37.5760  -12.9390  -15.9780 C.3   463  THR463      0.1994
     83  C        -38.8610  -12.3220  -15.4080 C.2   463  THR463      0.2618
     84  O        -39.8900  -12.3370  -16.0850 O.2   463  THR463     -0.2717
     85  CB       -36.7070  -11.9160  -16.7470 C.3   463  THR463      0.1784
     86  OG1      -36.4430  -10.7780  -15.8980 O.3   463  THR463     -0.2211
     87  CG2      -37.4510  -11.3170  -17.9960 C.3   463  THR463      0.0376
     88  N        -38.8420  -11.7950  -14.1880 N.am  464  VAL464     -0.1965
     89  CA       -39.9360  -10.9500  -13.6780 C.3   464  VAL464      0.1727
     90  C        -39.8790   -9.5220  -14.2860 C.2   464  VAL464      0.2616
     91  O        -40.7540   -8.7110  -14.0300 O.2   464  VAL464     -0.2715
     92  CB       -39.9190  -10.8770  -12.1230 C.3   464  VAL464      0.0290
     93  CG1      -41.3370  -10.4790  -11.7130 C.3   464  VAL464      0.0023
     94  CG2      -39.6660  -12.2670  -11.5220 C.3   464  VAL464      0.0023
     95  N        -38.8580   -9.2530  -15.1010 N.am  465  TYR465     -0.1960
     96  CA       -38.6210   -8.0050  -15.8710 C.3   465  TYR465      0.1771
     97  C        -37.9640   -6.9620  -14.9490 C.2   465  TYR465      0.2619
     98  O        -38.3320   -5.7690  -15.0330 O.2   465  TYR465     -0.2715
     99  CB       -39.8830   -7.4340  -16.5870 C.3   465  TYR465      0.0574
    100  CG       -40.4520   -8.4290  -17.6010 C.ar  465  TYR465     -0.0198
    101  CD1      -39.7890   -8.6530  -18.8290 C.ar  465  TYR465     -0.0009
    102  CD2      -41.6060   -9.1550  -17.3330 C.ar  465  TYR465     -0.0009
    103  CE1      -40.2430   -9.5940  -19.7410 C.ar  465  TYR465      0.0417
    104  CE2      -42.0870  -10.0950  -18.2440 C.ar  465  TYR465      0.0417
    105  CZ       -41.4050  -10.2980  -19.4420 C.ar  465  TYR465      0.1957
    106  OH       -41.8570  -11.2320  -20.3490 O.3   465  TYR465     -0.2866
    107  N        -36.9870   -7.3780  -14.1290 N.am  466  HIS466     -0.1973
    108  CA       -36.4030   -6.4480  -13.1100 C.3   466  HIS466      0.1656
    109  C        -34.8770   -6.2920  -13.1950 C.2   466  HIS466      0.2291
    110  O        -34.1960   -6.5570  -12.1990 O.2   466  HIS466     -0.2864
    111  CB       -36.7400   -6.9610  -11.6920 C.3   466  HIS466      0.0771
    112  CG       -38.2180   -7.1490  -11.3960 C.ar  466  HIS466      0.0820
    113  ND1      -38.6960   -7.9060  -10.3360 N.ar  466  HIS466     -0.2267
    114  CD2      -39.3250   -6.6770  -12.0280 C.ar  466  HIS466      0.1154
    115  CE1      -40.0250   -7.8700  -10.3170 C.ar  466  HIS466      0.1986
    116  NE2      -40.4300   -7.1020  -11.3280 N.ar  466  HIS466     -0.2212
    117  N        -40.8130   -6.5500   -6.0880 N.3   510  ASN510     -0.1240
    118  CA       -40.9340   -5.8420   -7.3780 C.3   510  ASN510      0.1653
    119  C        -40.4570   -4.3760   -7.2040 C.2   510  ASN510      0.2266
    120  O        -40.8620   -3.7090   -6.2380 O.2   510  ASN510     -0.2867
    121  CB       -42.3790   -5.8730   -7.8780 C.3   510  ASN510      0.1155
    122  CG       -43.0460   -7.2290   -7.7080 C.2   510  ASN510      0.2627
    123  OD1      -43.1250   -7.7750   -6.5880 O.2   510  ASN510     -0.2716
    124  ND2      -43.6040   -7.7530   -8.7890 N.am  510  ASN510     -0.0877
@<TRIPOS>BOND
     1     4     3    2
     2     3     2    1
     3   106   105    1
     4    72    73    2
     5    72    71    1
     6     2     1    1
     7     2     5    1
     8   103   105   ar
     9   103   101   ar
    10    71    70    1
    11    71    74    1
    12   105   104   ar
    13    78    76   ar
    14    78    80   ar
    15    76    75   ar
    16    80    79   ar
    17   101   100   ar
    18     5     6    1
    19    11    13   ar
    20    11     8   ar
    21    75    74    1
    22    75    77   ar
    23    13    14   ar
    24    79    77   ar
    25   104   102   ar
    26     6     8   ar
    27     6     7   ar
    28    87    85    1
    29     8    10   ar
    30   100   102   ar
    31   100    99    1
    32    14    12   ar
    33     7     9   ar
    34    10    12   ar
    35    10     9   ar
    36    15    16    1
    37    81    82    1
    38    85    82    1
    39    85    86    1
    40    99    96    1
    41    16    17    1
    42    16    19    1
    43    84    83    2
    44    82    83    1
    45    18    17    2
    46    96    95    1
    47    96    97    1
    48    54    55   ar
    49    54    52   ar
    50    57    55   ar
    51    57    59   ar
    52    17    23   am
    53    83    88   am
    54    45    43   ar
    55    55    53   ar
    56    95    90   am
    57    98    97    2
    58    19    20    1
    59    97   107   am
    60    40    39    2
    61    52    51   ar
    62    59    58   ar
    63    23    24    1
    64    90    91    2
    65    90    89    1
    66    88    89    1
    67   107   108    1
    68    20    21    2
    69    20    22   am
    70    24    27    1
    71    24    25    1
    72    43    44   ar
    73    43    42    1
    74    53    51   ar
    75    53    56   ar
    76    27    28    1
    77    89    92    1
    78    39    38    1
    79    51    50    1
    80    41    42    1
    81    41    38    1
    82    58    56   ar
    83    37    38    1
    84   109   108    1
    85   109   110    2
    86   108   111    1
    87    25    26    2
    88    46    47    1
    89    50    47    1
    90    92    93    1
    91    92    94    1
    92   114   112   ar
    93   114   116   ar
    94   111   112    1
    95    47    48    1
    96   112   113   ar
    97   116   115   ar
    98   113   115   ar
    99    48    49    2
   100    29    30    1
   101    36    34    1
   102    64    65    1
   103    64    61    1
   104    65    67   ar
   105    65    66   ar
   106    63    62    2
   107    34    33    1
   108    67    69   ar
   109    66    68   ar
   110    69    68   ar
   111    62    61    1
   112   124   122   am
   113    33    30    1
   114    33    35    1
   115    61    60    1
   116    30    31    1
   117    32    31    2
   118   121   122    1
   119   121   118    1
   120   122   123    2
   121   118   119    1
   122   118   117    1
   123   119   120    2
