@<TRIPOS>MOLECULE
tmp/4mk0A00.pdb
 180 169 0 0 0
SMALL
GASTEIGER

@<TRIPOS>ATOM
      1  N        -22.6340   27.6440   10.0400 N.3   168  ILE168     -0.1231
      2  CA       -23.2170   28.5580   11.0220 C.3   168  ILE168      0.1692
      3  C        -22.2550   28.9580   12.1480 C.2   168  ILE168      0.2593
      4  O        -22.6650   29.6040   13.1120 O.2   168  ILE168     -0.2718
      5  CB       -24.5040   27.9550   11.6190 C.3   168  ILE168      0.0266
      6  CG1      -24.1890   26.7010   12.4330 C.3   168  ILE168      0.0019
      7  CG2      -25.4970   27.6230   10.5120 C.3   168  ILE168      0.0020
      8  CD1      -25.3820   26.1310   13.1660 C.3   168  ILE168      0.0001
      9  N        -20.9840   28.5830   12.0130 N.am  169  GLY169     -0.1942
     10  CA       -19.9440   28.9030   12.9980 C.3   169  GLY169      0.2014
     11  C        -18.5610   28.7100   12.3940 C.2   169  GLY169      0.2639
     12  O        -18.3950   27.9190   11.4620 O.2   169  GLY169     -0.2714
     13  N        -17.5750   29.4500   12.8980 N.am  170  ARG170     -0.1963
     14  CA       -16.1850   29.3240   12.4470 C.3   170  ARG170      0.1729
     15  C        -15.2450   29.5150   13.6380 C.2   170  ARG170      0.2616
     16  O        -15.1420   30.6110   14.1780 O.2   170  ARG170     -0.2715
     17  CB       -15.8570   30.3560   11.3660 C.3   170  ARG170      0.0348
     18  CG       -16.6370   30.2450   10.0620 C.3   170  ARG170      0.0492
     19  CD       -16.4520   31.5150    9.2350 C.3   170  ARG170      0.2205
     20  NE       -17.2100   31.5250    7.9820 N.pl3 170  ARG170     -0.0865
     21  CZ       -16.8290   30.9310    6.8490 C.cat 170  ARG170      0.5346
     22  NH1      -15.6890   30.2430    6.7820 N.pl3 170  ARG170      0.1354
     23  NH2      -17.6030   31.0160    5.7690 N.pl3 170  ARG170      0.1354
     24  N        -14.5820   28.4400   14.0530 N.am  171  GLY171     -0.1955
     25  CA       -13.6240   28.4730   15.1620 C.3   171  GLY171      0.1869
     26  C        -12.2340   28.1630   14.6510 C.2   171  GLY171      0.2309
     27  O        -12.0750   27.6670   13.5340 O.2   171  GLY171     -0.2863
     28  N        -10.1120   25.9000   15.2550 N.3   173  PHE173     -0.1227
     29  CA        -9.8420   24.4930   15.0000 C.3   173  PHE173      0.1736
     30  C        -10.8180   23.8840   14.0030 C.2   173  PHE173      0.2596
     31  O        -10.4390   23.0130   13.2300 O.2   173  PHE173     -0.2718
     32  CB        -9.8420   23.7160   16.3200 C.3   173  PHE173      0.0547
     33  CG        -8.6550   24.0260   17.1910 C.ar  173  PHE173     -0.0202
     34  CD1       -8.5990   25.2100   17.9220 C.ar  173  PHE173     -0.0042
     35  CD2       -7.5750   23.1550   17.2610 C.ar  173  PHE173     -0.0042
     36  CE1       -7.4950   25.5110   18.7140 C.ar  173  PHE173     -0.0003
     37  CE2       -6.4720   23.4490   18.0540 C.ar  173  PHE173     -0.0003
     38  CZ        -6.4300   24.6280   18.7810 C.ar  173  PHE173     -0.0000
     39  N        -12.0640   24.3490   14.0000 N.am  174  GLY174     -0.1942
     40  CA       -13.0790   23.7690   13.1170 C.3   174  GLY174      0.2014
     41  C        -14.2400   24.6740   12.7520 C.2   174  GLY174      0.2639
     42  O        -14.1690   25.8850   12.9260 O.2   174  GLY174     -0.2714
     43  N        -15.3100   24.0680   12.2400 N.am  175  GLU175     -0.1963
     44  CA       -16.4970   24.7910   11.7920 C.3   175  GLU175      0.1733
     45  C        -17.7570   24.1120   12.2990 C.2   175  GLU175      0.2616
     46  O        -17.7380   22.9340   12.6420 O.2   175  GLU175     -0.2715
     47  CB       -16.5460   24.8460   10.2670 C.3   175  GLU175      0.0429
     48  CG       -15.2560   25.3230    9.6140 C.3   175  GLU175      0.1163
     49  CD       -14.2190   24.2260    9.3990 C.2   175  GLU175      0.3649
     50  OE1      -14.4690   23.0440    9.7620 O.co2 175  GLU175     -0.2457
     51  OE2      -13.1370   24.5590    8.8590 O.co2 175  GLU175     -0.2457
     52  N        -18.8550   24.8560   12.3360 N.am  176  VAL176     -0.1977
     53  CA       -20.1410   24.2880   12.7080 C.3   176  VAL176      0.1596
     54  C        -21.1350   24.4040   11.5620 C.2   176  VAL176      0.2287
     55  O        -21.2650   25.4440   10.9240 O.2   176  VAL176     -0.2864
     56  CB       -20.7140   24.9420   13.9720 C.3   176  VAL176      0.0276
     57  CG1      -22.1090   24.4070   14.2610 C.3   176  VAL176      0.0022
     58  CG2      -19.7980   24.6670   15.1560 C.3   176  VAL176      0.0022
     59  N        -26.6890   20.6010   15.1290 N.3   189  ALA189     -0.1245
     60  CA       -25.4790   21.3190   14.7690 C.3   189  ALA189      0.1562
     61  C        -24.3500   20.3080   14.7340 C.2   189  ALA189      0.2260
     62  O        -24.2060   19.5110   15.6600 O.2   189  ALA189     -0.2867
     63  CB       -25.1780   22.3960   15.7920 C.3   189  ALA189      0.0290
     64  N        -20.2930   19.9110   14.6200 N.3   191  LYS191     -0.1245
     65  CA       -19.0610   20.6430   14.8730 C.3   191  LYS191      0.1561
     66  C        -17.8670   19.8300   14.3710 C.2   191  LYS191      0.2260
     67  O        -17.5350   18.8050   14.9590 O.2   191  LYS191     -0.2867
     68  CB       -18.9520   20.9190   16.3710 C.3   191  LYS191      0.0271
     69  CG       -17.7650   21.7610   16.8000 C.3   191  LYS191      0.0035
     70  CD       -17.9760   22.2910   18.2080 C.3   191  LYS191      0.0206
     71  CE       -16.7410   22.9920   18.7320 C.3   191  LYS191      0.1093
     72  NZ       -17.0940   23.9230   19.8370 N.3   191  LYS191     -0.1314
     73  N        -14.0200   19.4810   13.8080 N.3   193  LEU193     -0.1245
     74  CA       -12.6850   19.9290   14.1140 C.3   193  LEU193      0.1561
     75  C        -11.7020   19.1960   13.2250 C.2   193  LEU193      0.2260
     76  O        -11.6800   17.9710   13.2070 O.2   193  LEU193     -0.2867
     77  CB       -12.3730   19.6740   15.5780 C.3   193  LEU193      0.0270
     78  CG       -13.4790   20.0570   16.5550 C.3   193  LEU193      0.0019
     79  CD1      -12.9440   19.9440   17.9730 C.3   193  LEU193      0.0001
     80  CD2      -14.0130   21.4560   16.2860 C.3   193  LEU193      0.0001
     81  N        -25.4060   24.0530   25.3470 N.3   226  VAL226     -0.1245
     82  CA       -25.3190   23.3160   24.0880 C.3   226  VAL226      0.1561
     83  C        -24.8250   21.9100   24.4110 C.2   226  VAL226      0.2260
     84  O        -23.6730   21.7250   24.8410 O.2   226  VAL226     -0.2867
     85  CB       -24.3710   24.0080   23.0840 C.3   226  VAL226      0.0252
     86  CG1      -24.1710   23.1650   21.8330 C.3   226  VAL226      0.0019
     87  CG2      -24.9220   25.3720   22.7040 C.3   226  VAL226      0.0019
     88  N        -24.6750   18.2750   18.0380 N.3   242  LEU242     -0.1231
     89  CA       -25.0020   19.1920   19.1190 C.3   242  LEU242      0.1693
     90  C        -26.3440   19.8830   18.9190 C.2   242  LEU242      0.2592
     91  O        -26.9000   19.8980   17.8170 O.2   242  LEU242     -0.2718
     92  CB       -23.9330   20.2810   19.1850 C.3   242  LEU242      0.0284
     93  CG       -22.5160   19.8510   19.5360 C.3   242  LEU242      0.0019
     94  CD1      -21.5390   20.9830   19.2760 C.3   242  LEU242      0.0001
     95  CD2      -22.4520   19.4040   20.9890 C.3   242  LEU242      0.0001
     96  N        -26.8370   20.4850   19.9980 N.am  243  ASP243     -0.1960
     97  CA       -28.0250   21.3210   19.9530 C.3   243  ASP243      0.1840
     98  C        -27.8950   22.3830   18.8860 C.2   243  ASP243      0.2622
     99  O        -26.8680   23.0510   18.8040 O.2   243  ASP243     -0.2715
    100  CB       -28.2220   22.0270   21.2980 C.3   243  ASP243      0.1450
    101  CG       -28.8570   21.1350   22.3500 C.2   243  ASP243      0.3671
    102  OD1      -29.6790   20.2720   21.9760 O.co2 243  ASP243     -0.2456
    103  OD2      -28.5500   21.3160   23.5560 O.co2 243  ASP243     -0.2456
    104  N        -28.9490   22.5660   18.0970 N.am  244  LEU244     -0.1963
    105  CA       -28.9770   23.6320   17.1020 C.3   244  LEU244      0.1728
    106  C        -29.1970   25.0100   17.7220 C.2   244  LEU244      0.2616
    107  O        -30.1200   25.2130   18.5210 O.2   244  LEU244     -0.2715
    108  CB       -30.0730   23.3730   16.0770 C.3   244  LEU244      0.0311
    109  CG       -30.0150   24.2470   14.8260 C.3   244  LEU244      0.0022
    110  CD1      -28.6380   24.2390   14.1880 C.3   244  LEU244      0.0001
    111  CD2      -31.0420   23.7910   13.8100 C.3   244  LEU244      0.0001
    112  N        -28.3530   25.9580   17.3230 N.am  245  MET245     -0.1977
    113  CA       -28.4270   27.3360   17.7800 C.3   245  MET245      0.1605
    114  C        -28.0680   28.2650   16.6290 C.2   245  MET245      0.2287
    115  O        -26.9540   28.7950   16.5950 O.2   245  MET245     -0.2864
    116  CB       -27.4190   27.5550   18.9130 C.3   245  MET245      0.0413
    117  CG       -27.6950   26.7790   20.1870 C.3   245  MET245      0.0598
    118  SD       -29.2800   27.2040   20.9210 S.3   245  MET245     -0.1393
    119  CE       -29.0030   28.8750   21.4990 C.3   245  MET245      0.0692
    120  N        -24.0150   34.5580   18.1150 N.3   249  ASP249     -0.1239
    121  CA       -23.6240   34.6760   19.5220 C.3   249  ASP249      0.1674
    122  C        -23.7440   36.1090   20.0110 C.2   249  ASP249      0.2266
    123  O        -24.0210   37.0240   19.2340 O.2   249  ASP249     -0.2867
    124  CB       -22.2040   34.1220   19.7610 C.3   249  ASP249      0.1410
    125  CG       -21.1000   35.0330   19.2280 C.2   249  ASP249      0.3668
    126  OD1      -21.1910   36.2580   19.4510 O.co2 249  ASP249     -0.2456
    127  OD2      -20.1300   34.5160   18.6120 O.co2 249  ASP249     -0.2456
    128  N        -19.0280   35.8500   23.5510 N.3   292  ALA292     -0.1231
    129  CA       -18.7240   35.0380   22.3800 C.3   292  ALA292      0.1694
    130  C        -19.1450   33.5690   22.5390 C.2   292  ALA292      0.2592
    131  O        -19.4510   32.9030   21.5430 O.2   292  ALA292     -0.2718
    132  CB       -17.2390   35.1300   22.0520 C.3   292  ALA292      0.0304
    133  N        -19.1550   33.0660   23.7760 N.am  293  ASN293     -0.1974
    134  CA       -19.5400   31.6770   24.0400 C.3   293  ASN293      0.1688
    135  C        -20.9660   31.5720   24.5790 C.2   293  ASN293      0.2292
    136  O        -21.2720   30.6930   25.3830 O.2   293  ASN293     -0.2864
    137  CB       -18.5490   31.0150   25.0050 C.3   293  ASN293      0.1181
    138  CG       -17.1370   30.9200   24.4350 C.2   293  ASN293      0.2629
    139  OD1      -16.9330   30.6230   23.2490 O.2   293  ASN293     -0.2716
    140  ND2      -16.1490   31.1580   25.2910 N.am  293  ASN293     -0.0877
    141  N        -24.7440   31.5700   22.7430 N.3   295  LEU295     -0.1245
    142  CA       -25.3980   31.5420   21.4470 C.3   295  LEU295      0.1561
    143  C        -26.8800   31.7350   21.5740 C.2   295  LEU295      0.2260
    144  O        -27.4530   31.5200   22.6360 O.2   295  LEU295     -0.2867
    145  CB       -25.1670   30.1990   20.7740 C.3   295  LEU295      0.0270
    146  CG       -23.7230   29.8410   20.4760 C.3   295  LEU295      0.0019
    147  CD1      -23.6160   28.3460   20.2400 C.3   295  LEU295      0.0001
    148  CD2      -23.2280   30.6260   19.2700 C.3   295  LEU295      0.0001
    149  N        -22.0290   27.7930   25.1950 N.3   305  SER305     -0.1202
    150  CA       -21.4280   26.9610   24.1680 C.3   305  SER305      0.2020
    151  C        -19.9660   26.6440   24.4360 C.2   305  SER305      0.2618
    152  O        -19.2940   27.3430   25.1780 O.2   305  SER305     -0.2717
    153  CB       -21.5280   27.6690   22.8210 C.3   305  SER305      0.2103
    154  OG       -20.9220   26.8920   21.7950 O.3   305  SER305     -0.2182
    155  N        -19.4890   25.5780   23.8020 N.am  306  ASP306     -0.1973
    156  CA       -18.0690   25.2860   23.7150 C.3   306  ASP306      0.1709
    157  C        -17.4500   25.0470   25.0840 C.2   306  ASP306      0.2293
    158  O        -17.0500   25.9860   25.7650 O.2   306  ASP306     -0.2864
    159  CB       -17.3510   26.4280   22.9950 C.3   306  ASP306      0.1436
    160  CG       -16.0580   25.9840   22.3600 C.2   306  ASP306      0.3671
    161  OD1      -15.3380   25.1450   22.9480 O.co2 306  ASP306     -0.2456
    162  OD2      -15.7680   26.4690   21.2510 O.co2 306  ASP306     -0.2456
    163  N        -21.0160   33.6830   14.2900 N.3   451  ALA451     -0.1231
    164  CA       -20.3420   32.8490   15.2930 C.3   451  ALA451      0.1694
    165  C        -18.8620   32.6320   14.9640 C.2   451  ALA451      0.2592
    166  O        -18.3310   31.5380   15.1520 O.2   451  ALA451     -0.2718
    167  CB       -21.0670   31.5230   15.4530 C.3   451  ALA451      0.0304
    168  N        -18.2120   33.6930   14.4770 N.am  452  ASP452     -0.1960
    169  CA       -16.7560   33.7340   14.2850 C.3   452  ASP452      0.1840
    170  C        -16.1120   34.2650   15.5810 C.2   452  ASP452      0.2621
    171  O        -16.7920   34.9070   16.3930 O.2   452  ASP452     -0.2715
    172  CB       -16.3810   34.6350   13.0890 C.3   452  ASP452      0.1450
    173  CG       -17.1020   34.2500   11.7820 C.2   452  ASP452      0.3671
    174  OD1      -18.0530   33.4370   11.8140 O.co2 452  ASP452     -0.2456
    175  OD2      -16.7140   34.7770   10.7130 O.co2 452  ASP452     -0.2456
    176  N        -14.8150   34.0100   15.7760 N.am  453  ALA453     -0.1977
    177  CA       -14.1200   34.3990   17.0220 C.3   453  ALA453      0.1597
    178  C        -13.4810   35.8030   16.9560 C.2   453  ALA453      0.2287
    179  O        -14.1050   36.7890   17.3580 O.2   453  ALA453     -0.2864
    180  CB       -13.0890   33.3380   17.4090 C.3   453  ALA453      0.0319
@<TRIPOS>BOND
     1    23    21    1
     2    22    21    1
     3    21    20    2
     4    20    19    1
     5    51    49   ar
     6    19    18    1
     7    49    48    1
     8    49    50   ar
     9    48    47    1
    10     1     2    1
    11    18    17    1
    12    47    44    1
    13     7     5    1
    14   175   173   ar
    15    55    54    2
    16     2     5    1
    17     2     3    1
    18    17    14    1
    19    12    11    2
    20    54    53    1
    21     5     6    1
    22   173   174   ar
    23   173   172    1
    24    44    43    1
    25    44    45    1
    26     9     3   am
    27     9    10    1
    28     3     4    2
    29    43    41   am
    30    45    52   am
    31    45    46    2
    32    52    53    1
    33    11    13   am
    34    11    10    1
    35     6     8    1
    36    14    13    1
    37    14    15    1
    38    53    56    1
    39    41    42    2
    40    41    40    1
    41   172   169    1
    42    40    39    1
    43    76    75    2
    44    75    74    1
    45    31    30    2
    46    27    26    2
    47    15    24   am
    48    15    16    2
    49    73    74    1
    50   111   109    1
    51    56    57    1
    52    56    58    1
    53    39    30   am
    54    30    29    1
    55    24    25    1
    56    74    77    1
    57   110   109    1
    58   169   168    1
    59   169   170    1
    60   163   164    1
    61    66    65    1
    62    66    67    2
    63   168   165   am
    64    64    65    1
    65    26    25    1
    66    61    60    1
    67    61    62    2
    68    60    59    1
    69    60    63    1
    70   109   108    1
    71    65    68    1
    72   165   166    2
    73   165   164    1
    74    29    28    1
    75    29    32    1
    76   164   167    1
    77    77    78    1
    78   170   176   am
    79   170   171    2
    80   176   177    1
    81   108   105    1
    82    80    78    1
    83    32    33    1
    84    68    69    1
    85    78    79    1
    86   115   114    2
    87   114   113    1
    88    69    70    1
    89   178   177    1
    90   178   179    2
    91   177   180    1
    92   105   106    1
    93   105   104    1
    94    33    35   ar
    95    33    34   ar
    96    35    37   ar
    97   112   106   am
    98   112   113    1
    99   106   107    2
   100   113   116    1
   101    91    90    2
   102    34    36   ar
   103    88    89    1
   104    37    38   ar
   105   104    98   am
   106   120   121    1
   107    70    71    1
   108   127   125   ar
   109    36    38   ar
   110    71    72    1
   111    99    98    2
   112    98    97    1
   113   116   117    1
   114    90    89    1
   115    90    96   am
   116    89    92    1
   117    92    93    1
   118   125   126   ar
   119   125   124    1
   120   123   122    2
   121   148   146    1
   122    94    93    1
   123   121   124    1
   124   121   122    1
   125    93    95    1
   126    97    96    1
   127    97   100    1
   128   117   118    1
   129   147   146    1
   130   146   145    1
   131   145   142    1
   132   118   119    1
   133   162   160   ar
   134   100   101    1
   135   142   143    1
   136   142   141    1
   137   131   130    2
   138   143   144    2
   139   154   153    1
   140    86    85    1
   141   102   101   ar
   142   132   129    1
   143   101   103   ar
   144   160   161   ar
   145   160   159    1
   146   129   130    1
   147   129   128    1
   148   130   133   am
   149    87    85    1
   150   153   150    1
   151   159   156    1
   152    85    82    1
   153   139   138    2
   154   156   155    1
   155   156   157    1
   156   133   134    1
   157   155   151   am
   158   134   135    1
   159   134   137    1
   160    82    83    1
   161    82    81    1
   162   150   151    1
   163   150   149    1
   164    83    84    2
   165   138   137    1
   166   138   140   am
   167   151   152    2
   168   135   136    2
   169   157   158    2
