@<TRIPOS>MOLECULE
tmp/4mk1A00.pdb
 99 92 0 0 0
SMALL
GASTEIGER

@<TRIPOS>ATOM
      1  N         18.3000   25.9960  -17.2190 N.3    39  LYS39      -0.1245
      2  CA        17.1460   25.2030  -16.8260 C.3    39  LYS39       0.1561
      3  C         17.5220   23.7500  -16.5850 C.2    39  LYS39       0.2260
      4  O         17.1200   23.1420  -15.5870 O.2    39  LYS39      -0.2867
      5  CB        16.0400   25.3020  -17.8700 C.3    39  LYS39       0.0271
      6  CG        14.7600   24.5590  -17.5090 C.3    39  LYS39       0.0035
      7  CD        14.0510   25.2020  -16.3320 C.3    39  LYS39       0.0206
      8  CE        12.7720   24.4630  -15.9730 C.3    39  LYS39       0.1093
      9  NZ        11.7980   24.5790  -17.0960 N.3    39  LYS39      -0.1314
     10  N         19.2650   23.6920  -13.3440 N.3    42  ALA42      -0.1231
     11  CA        18.2690   23.8030  -12.2700 C.3    42  ALA42       0.1694
     12  C         17.5000   22.4970  -12.0370 C.2    42  ALA42       0.2591
     13  O         17.2240   22.1220  -10.8940 O.2    42  ALA42      -0.2718
     14  CB        17.2880   24.9270  -12.5740 C.3    42  ALA42       0.0304
     15  N         17.1500   21.8100  -13.1150 N.am   43  ILE43      -0.1980
     16  CA        16.4470   20.5320  -13.0160 C.3    43  ILE43       0.1595
     17  C         17.3340   19.4870  -12.3310 C.2    43  ILE43       0.2287
     18  O         16.8740   18.7650  -11.4360 O.2    43  ILE43      -0.2864
     19  CB        15.9840   20.0610  -14.4050 C.3    43  ILE43       0.0276
     20  CG1       14.8490   20.9760  -14.8720 C.3    43  ILE43       0.0022
     21  CG2       15.4880   18.6050  -14.3860 C.3    43  ILE43       0.0022
     22  CD1       14.4230   20.7560  -16.3000 C.3    43  ILE43       0.0001
     23  N         17.5920   20.3940   -8.5720 N.3    46  HIS46      -0.1241
     24  CA        16.3510   20.0670   -7.8790 C.3    46  HIS46       0.1621
     25  C         16.1900   18.5540   -7.6960 C.2    46  HIS46       0.2264
     26  O         15.8190   18.0880   -6.6110 O.2    46  HIS46      -0.2867
     27  CB        15.1630   20.6870   -8.6280 C.3    46  HIS46       0.0745
     28  CG        13.8260   20.2320   -8.1410 C.ar   46  HIS46       0.0817
     29  ND1       13.2200   19.0860   -8.6080 N.ar   46  HIS46      -0.2268
     30  CD2       12.9960   20.7370   -7.1970 C.ar   46  HIS46       0.1154
     31  CE1       12.0580   18.9220   -7.9980 C.ar   46  HIS46       0.1986
     32  NE2       11.8980   19.9090   -7.1330 N.ar   46  HIS46      -0.2212
     33  N          9.4090   12.6280   -8.0080 N.3    85  GLU85      -0.1245
     34  CA        10.1570   13.3570   -9.0210 C.3    85  GLU85       0.1567
     35  C         11.1470   12.3960   -9.6720 C.2    85  GLU85       0.2260
     36  O         11.6430   11.4710   -9.0160 O.2    85  GLU85      -0.2867
     37  CB        10.8500   14.5590   -8.3700 C.3    85  GLU85       0.0388
     38  CG        11.5930   15.4870   -9.2850 C.3    85  GLU85       0.1160
     39  CD        10.6810   16.1380  -10.2970 C.2    85  GLU85       0.3649
     40  OE1       10.4730   15.5310  -11.3560 O.co2  85  GLU85      -0.2457
     41  OE2       10.1020   17.1890   -9.9770 O.co2  85  GLU85      -0.2457
     42  N          1.7350   16.7470   -9.5940 N.3   111  LEU111     -0.1245
     43  CA         2.6670   15.7650   -9.0660 C.3   111  LEU111      0.1561
     44  C          3.5530   16.4520   -8.0250 C.2   111  LEU111      0.2260
     45  O          4.1730   17.4760   -8.3270 O.2   111  LEU111     -0.2867
     46  CB         3.5340   15.1390  -10.1520 C.3   111  LEU111      0.0270
     47  CG         2.8350   14.1340  -11.0740 C.3   111  LEU111      0.0019
     48  CD1        3.7720   13.7490  -12.1990 C.3   111  LEU111      0.0001
     49  CD2        2.3730   12.8890  -10.3120 C.3   111  LEU111      0.0001
     50  N          6.8880   16.0700   -5.1730 N.3   113  ASP113     -0.1239
     51  CA         8.2300   15.4990   -5.2570 C.3   113  ASP113      0.1674
     52  C          8.4750   14.2190   -4.4620 C.2   113  ASP113      0.2266
     53  O          9.1720   13.3220   -4.9320 O.2   113  ASP113     -0.2867
     54  CB         9.2380   16.5780   -4.8700 C.3   113  ASP113      0.1410
     55  CG         9.2500   17.7100   -5.8640 C.2   113  ASP113      0.3668
     56  OD1        9.2250   17.3990   -7.0750 O.co2 113  ASP113     -0.2456
     57  OD2        9.2650   18.8910   -5.4580 O.co2 113  ASP113     -0.2456
     58  N          6.3670   18.9480   -1.5850 N.3   124  GLU124     -0.1231
     59  CA         6.8870   19.6860   -2.7250 C.3   124  GLU124      0.1699
     60  C          8.2030   20.3380   -2.3120 C.2   124  GLU124      0.2592
     61  O          8.2370   21.1550   -1.3940 O.2   124  GLU124     -0.2718
     62  CB         5.9010   20.7510   -3.1770 C.3   124  GLU124      0.0402
     63  CG         6.4170   21.6680   -4.2790 C.3   124  GLU124      0.1161
     64  CD         6.7970   20.9040   -5.5310 C.2   124  GLU124      0.3649
     65  OE1        6.1500   19.8650   -5.7970 O.co2 124  GLU124     -0.2457
     66  OE2        7.7410   21.3290   -6.2380 O.co2 124  GLU124     -0.2457
     67  N          9.2670   19.9750   -3.0080 N.am  125  ILE125     -0.1966
     68  CA        10.5860   20.5630   -2.7930 C.3   125  ILE125      0.1727
     69  C         10.7430   21.7380   -3.7290 C.2   125  ILE125      0.2616
     70  O         10.4210   21.6400   -4.9050 O.2   125  ILE125     -0.2715
     71  CB        11.7020   19.5240   -3.0340 C.3   125  ILE125      0.0290
     72  CG1       11.6380   18.3950   -1.9990 C.3   125  ILE125      0.0022
     73  CG2       13.0930   20.1870   -3.0900 C.3   125  ILE125      0.0023
     74  CD1       11.9360   18.8190   -0.5860 C.3   125  ILE125      0.0001
     75  N         11.3520   22.8100   -3.2540 N.am  126  GLY126     -0.1955
     76  CA        11.7140   23.8700   -4.1520 C.3   126  GLY126      0.1869
     77  C         13.1280   24.2860   -3.8720 C.2   126  GLY126      0.2309
     78  O         13.6100   24.2330   -2.7460 O.2   126  GLY126     -0.2863
     79  N          9.3830   32.6490   -3.2960 N.3   135  TYR135     -0.1241
     80  CA         9.2210   31.3800   -3.9750 C.3   135  TYR135      0.1605
     81  C          8.2430   30.4870   -3.2200 C.2   135  TYR135      0.2264
     82  O          7.4590   29.7730   -3.8390 O.2   135  TYR135     -0.2867
     83  CB        10.5830   30.7120   -4.1630 C.3   135  TYR135      0.0534
     84  CG        10.5630   29.5600   -5.1350 C.ar  135  TYR135     -0.0201
     85  CD1       10.5770   29.7820   -6.5070 C.ar  135  TYR135     -0.0009
     86  CD2       10.5930   28.2530   -4.6870 C.ar  135  TYR135     -0.0009
     87  CE1       10.5700   28.7290   -7.4010 C.ar  135  TYR135      0.0417
     88  CE2       10.5950   27.1910   -5.5760 C.ar  135  TYR135      0.0417
     89  CZ        10.5840   27.4340   -6.9290 C.ar  135  TYR135      0.1957
     90  OH        10.5750   26.3830   -7.8130 O.3   135  TYR135     -0.2866
     91  N          4.8350   28.7060   -4.9380 N.3   139  LYS139     -0.1245
     92  CA         4.4950   27.2860   -4.8620 C.3   139  LYS139      0.1561
     93  C          3.1280   27.0890   -4.2230 C.2   139  LYS139      0.2260
     94  O          2.3050   26.3190   -4.7180 O.2   139  LYS139     -0.2867
     95  CB         5.5410   26.4980   -4.0640 C.3   139  LYS139      0.0271
     96  CG         6.8540   26.2310   -4.7810 C.3   139  LYS139      0.0035
     97  CD         6.6940   25.1700   -5.8680 C.3   139  LYS139      0.0206
     98  CE         8.0420   24.7460   -6.4190 C.3   139  LYS139      0.1093
     99  NZ         7.9290   24.0710   -7.7350 N.3   139  LYS139     -0.1314
@<TRIPOS>BOND
     1     5     6    1
     2     5     2    1
     3     6     7    1
     4     1     2    1
     5     9     8    1
     6     2     3    1
     7     3     4    2
     8     7     8    1
     9    22    20    1
    10    20    19    1
    11    19    21    1
    12    19    16    1
    13    10    11    1
    14    15    16    1
    15    15    12   am
    16    16    17    1
    17    14    11    1
    18    17    18    2
    19    11    12    1
    20    48    47    1
    21    12    13    2
    22    40    39   ar
    23    47    49    1
    24    47    46    1
    25    39    41   ar
    26    39    38    1
    27    46    43    1
    28    35    34    1
    29    35    36    2
    30    42    43    1
    31    38    37    1
    32    43    44    1
    33    34    37    1
    34    34    33    1
    35    27    28    1
    36    27    24    1
    37    29    28   ar
    38    29    31   ar
    39    23    24    1
    40    45    44    2
    41    28    30   ar
    42    31    32   ar
    43    24    25    1
    44    90    89    1
    45    99    98    1
    46    25    26    2
    47    87    89   ar
    48    87    85   ar
    49    30    32   ar
    50    56    55   ar
    51    89    88   ar
    52    85    84   ar
    53    98    97    1
    54    66    64   ar
    55    97    96    1
    56    55    57   ar
    57    55    54    1
    58    65    64   ar
    59    88    86   ar
    60    64    63    1
    61    51    50    1
    62    51    54    1
    63    51    52    1
    64    84    86   ar
    65    84    83    1
    66    91    92    1
    67    53    52    2
    68    70    69    2
    69    92    93    1
    70    92    95    1
    71    96    95    1
    72    94    93    2
    73    63    62    1
    74    83    80    1
    75    76    77    1
    76    76    75    1
    77    80    79    1
    78    80    81    1
    79    77    78    2
    80    82    81    2
    81    69    75   am
    82    69    68    1
    83    62    59    1
    84    73    71    1
    85    71    68    1
    86    71    72    1
    87    67    68    1
    88    67    60   am
    89    59    60    1
    90    59    58    1
    91    60    61    2
    92    72    74    1
