@<TRIPOS>MOLECULE
tmp/4mk1A02.pdb
 94 90 0 0 0
SMALL
GASTEIGER

@<TRIPOS>ATOM
      1  N         18.0340   11.4710  -16.1070 N.3    21  LEU21      -0.1245
      2  CA        16.6640   11.7380  -15.6700 C.3    21  LEU21       0.1561
      3  C         16.2240   13.1570  -16.0160 C.2    21  LEU21       0.2260
      4  O         15.0730   13.3790  -16.3850 O.2    21  LEU21      -0.2867
      5  CB        16.5280   11.4860  -14.1670 C.3    21  LEU21       0.0270
      6  CG        16.6020   10.0190  -13.7330 C.3    21  LEU21       0.0019
      7  CD1       16.5650    9.9400  -12.2190 C.3    21  LEU21       0.0001
      8  CD2       15.4860    9.1680  -14.3340 C.3    21  LEU21       0.0001
      9  N         15.6080   13.4510  -19.7770 N.3    24  LYS24      -0.1231
     10  CA        14.3490   12.7830  -20.0870 C.3    24  LYS24       0.1693
     11  C         13.1530   13.6600  -19.7200 C.2    24  LYS24       0.2591
     12  O         12.1920   13.7610  -20.4760 O.2    24  LYS24      -0.2718
     13  CB        14.2850   11.4350  -19.3750 C.3    24  LYS24       0.0285
     14  CG        15.1570   10.3900  -20.0560 C.3    24  LYS24       0.0035
     15  CD        15.0830    9.0280  -19.3900 C.3    24  LYS24       0.0206
     16  CE        16.1080    8.0760  -20.0030 C.3    24  LYS24       0.1093
     17  NZ        16.1150    6.7380  -19.3510 N.3    24  LYS24      -0.1314
     18  N         13.2260   14.3030  -18.5630 N.am   25  ALA25      -0.1980
     19  CA        12.1670   15.2040  -18.1130 C.3    25  ALA25       0.1597
     20  C         12.0110   16.4140  -19.0370 C.2    25  ALA25       0.2287
     21  O         10.9030   16.7430  -19.4540 O.2    25  ALA25      -0.2864
     22  CB        12.4450   15.6590  -16.7090 C.3    25  ALA25       0.0319
     23  N         10.3530   15.4220  -22.2330 N.3    28  GLU28      -0.1231
     24  CA         8.9280   15.1430  -22.0980 C.3    28  GLU28       0.1699
     25  C          8.1470   16.4440  -22.1780 C.2    28  GLU28       0.2592
     26  O          7.0500   16.4870  -22.7290 O.2    28  GLU28      -0.2718
     27  CB         8.5890   14.4180  -20.7870 C.3    28  GLU28       0.0402
     28  CG         7.2360   13.7060  -20.8810 C.3    28  GLU28       0.1161
     29  CD         6.8520   12.8980  -19.6510 C.2    28  GLU28       0.3649
     30  OE1        7.0910   13.3690  -18.5230 O.co2  28  GLU28      -0.2457
     31  OE2        6.3070   11.7830  -19.8130 O.co2  28  GLU28      -0.2457
     32  N          8.7380   17.5090  -21.6440 N.am   29  TYR29      -0.1976
     33  CA         8.0650   18.8000  -21.5750 C.3    29  TYR29       0.1639
     34  C          8.4280   19.7060  -22.7540 C.2    29  TYR29       0.2290
     35  O          8.0320   20.8680  -22.8010 O.2    29  TYR29      -0.2864
     36  CB         8.4090   19.4440  -20.2350 C.3    29  TYR29       0.0560
     37  CG         7.7790   18.6470  -19.1090 C.ar   29  TYR29      -0.0198
     38  CD1        6.4020   18.4720  -19.0260 C.ar   29  TYR29      -0.0009
     39  CD2        8.5770   18.0070  -18.1660 C.ar   29  TYR29      -0.0009
     40  CE1        5.8380   17.7060  -18.0140 C.ar   29  TYR29       0.0417
     41  CE2        8.0260   17.2410  -17.1530 C.ar   29  TYR29       0.0417
     42  CZ         6.6590   17.0950  -17.0800 C.ar   29  TYR29       0.1957
     43  OH         6.1130   16.3320  -16.0710 O.3    29  TYR29      -0.2866
     44  N          9.4090   12.6280   -8.0080 N.3    85  GLU85      -0.1231
     45  CA        10.1570   13.3570   -9.0210 C.3    85  GLU85       0.1699
     46  C         11.1470   12.3960   -9.6720 C.2    85  GLU85       0.2593
     47  O         11.6430   11.4710   -9.0160 O.2    85  GLU85      -0.2718
     48  CB        10.8500   14.5590   -8.3700 C.3    85  GLU85       0.0402
     49  CG        11.5930   15.4870   -9.2850 C.3    85  GLU85       0.1161
     50  CD        10.6810   16.1380  -10.2970 C.2    85  GLU85       0.3649
     51  OE1       10.4730   15.5310  -11.3560 O.co2  85  GLU85      -0.2457
     52  OE2       10.1020   17.1890   -9.9770 O.co2  85  GLU85      -0.2457
     53  N         11.4120   12.5820  -10.9680 N.am   86  GLY86      -0.1942
     54  CA        12.3210   11.7130  -11.6900 C.3    86  GLY86       0.2014
     55  C         11.6440   10.5920  -12.4670 C.2    86  GLY86       0.2639
     56  O         12.2580    9.9540  -13.3110 O.2    86  GLY86      -0.2714
     57  N         10.3940   10.3110  -12.1320 N.am   87  ARG87      -0.1963
     58  CA         9.6130    9.2750  -12.7890 C.3    87  ARG87       0.1729
     59  C          8.8700    9.8860  -13.9760 C.2    87  ARG87       0.2616
     60  O          8.4760   11.0550  -13.9160 O.2    87  ARG87      -0.2715
     61  CB         8.6170    8.6690  -11.8110 C.3    87  ARG87       0.0348
     62  CG         9.2560    8.0800  -10.5770 C.3    87  ARG87       0.0492
     63  CD         8.2800    7.3120   -9.7440 C.3    87  ARG87       0.2205
     64  NE         8.9000    6.8900   -8.4900 N.pl3  87  ARG87      -0.0865
     65  CZ         9.5390    5.7390   -8.3120 C.cat  87  ARG87       0.5346
     66  NH1        9.6450    4.8600   -9.3020 N.pl3  87  ARG87       0.1354
     67  NH2       10.0820    5.4700   -7.1350 N.pl3  87  ARG87       0.1354
     68  N          8.6560    9.1230  -15.0350 N.am   88  ASP88      -0.1957
     69  CA         7.8260    9.6380  -16.1250 C.3    88  ASP88       0.1840
     70  C          6.3810    9.7850  -15.6410 C.2    88  ASP88       0.2621
     71  O          6.0090    9.2710  -14.5750 O.2    88  ASP88      -0.2715
     72  CB         7.9560    8.7610  -17.3840 C.3    88  ASP88       0.1450
     73  CG         7.3450    7.3680  -17.2410 C.2    88  ASP88       0.3671
     74  OD1        6.3060    7.1850  -16.5810 O.co2  88  ASP88      -0.2456
     75  OD2        7.9370    6.4280  -17.8110 O.co2  88  ASP88      -0.2456
     76  N          5.5790   10.5130  -16.4140 N.am   89  ARG89      -0.1977
     77  CA         4.2240   10.8620  -16.0120 C.3    89  ARG89       0.1597
     78  C          3.3920    9.6660  -15.5620 C.2    89  ARG89       0.2287
     79  O          2.7590    9.6980  -14.5120 O.2    89  ARG89      -0.2864
     80  CB         3.5010   11.5600  -17.1540 C.3    89  ARG89       0.0334
     81  CG         3.6330   13.0660  -17.1870 C.3    89  ARG89       0.0492
     82  CD         2.5890   13.6160  -18.1460 C.3    89  ARG89       0.2205
     83  NE         3.0180   14.8090  -18.8650 N.pl3  89  ARG89      -0.0865
     84  CZ         3.6700   14.7940  -20.0220 C.cat  89  ARG89       0.5346
     85  NH1        3.9990   13.6420  -20.5980 N.pl3  89  ARG89       0.1354
     86  NH2        4.0050   15.9350  -20.6070 N.pl3  89  ARG89       0.1354
     87  N          1.7350   16.7470   -9.5940 N.3   111  LEU111     -0.1245
     88  CA         2.6670   15.7650   -9.0660 C.3   111  LEU111      0.1561
     89  C          3.5530   16.4520   -8.0250 C.2   111  LEU111      0.2260
     90  O          4.1730   17.4760   -8.3270 O.2   111  LEU111     -0.2867
     91  CB         3.5340   15.1390  -10.1520 C.3   111  LEU111      0.0270
     92  CG         2.8350   14.1340  -11.0740 C.3   111  LEU111      0.0019
     93  CD1        3.7720   13.7490  -12.1990 C.3   111  LEU111      0.0001
     94  CD2        2.3730   12.8890  -10.3120 C.3   111  LEU111      0.0001
@<TRIPOS>BOND
     1    35    34    2
     2    34    33    1
     3    26    25    2
     4    23    24    1
     5    25    24    1
     6    25    32   am
     7    24    27    1
     8    32    33    1
     9    33    36    1
    10    28    27    1
    11    28    29    1
    12    86    84    1
    13    85    84    1
    14    12    11    2
    15    36    37    1
    16    10     9    1
    17    10    11    1
    18    10    13    1
    19    14    15    1
    20    14    13    1
    21    84    83    2
    22    16    15    1
    23    16    17    1
    24    31    29   ar
    25    11    18   am
    26    29    30   ar
    27    21    20    2
    28    37    38   ar
    29    37    39   ar
    30    20    19    1
    31    38    40   ar
    32    83    82    1
    33    18    19    1
    34    39    41   ar
    35    82    81    1
    36    19    22    1
    37    40    42   ar
    38    75    73   ar
    39    72    73    1
    40    72    69    1
    41    73    74   ar
    42    81    80    1
    43    80    77    1
    44    41    42   ar
    45    42    43    1
    46    76    77    1
    47    76    70   am
    48     4     3    2
    49    69    70    1
    50    69    68    1
    51     1     2    1
    52     3     2    1
    53    77    78    1
    54     2     5    1
    55    70    71    2
    56    78    79    2
    57    68    59   am
    58     8     6    1
    59     5     6    1
    60    59    60    2
    61    59    58    1
    62     6     7    1
    63    56    55    2
    64    58    57    1
    65    58    61    1
    66    55    57   am
    67    55    54    1
    68    93    92    1
    69    61    62    1
    70    54    53    1
    71    51    50   ar
    72    92    94    1
    73    92    91    1
    74    53    46   am
    75    62    63    1
    76    50    52   ar
    77    50    49    1
    78    91    88    1
    79    63    64    1
    80    46    45    1
    81    46    47    2
    82    87    88    1
    83    66    65    1
    84    49    48    1
    85    88    89    1
    86    45    48    1
    87    45    44    1
    88    64    65    2
    89    90    89    2
    90    65    67    1
