@<TRIPOS>MOLECULE
tmp/4mk2A00.pdb
 131 122 0 0 0
SMALL
GASTEIGER

@<TRIPOS>ATOM
      1  N          8.8410   17.6780  -20.7450 N.3    29  TYR29      -0.1241
      2  CA         8.3610   19.0540  -20.6090 C.3    29  TYR29       0.1605
      3  C          8.3610   19.7950  -21.9660 C.2    29  TYR29       0.2264
      4  O          7.8280   20.8940  -22.0650 O.2    29  TYR29      -0.2867
      5  CB         9.2030   19.8720  -19.5940 C.3    29  TYR29       0.0534
      6  CG         9.3200   19.3740  -18.1310 C.ar   29  TYR29      -0.0201
      7  CD1       10.3760   19.8020  -17.3160 C.ar   29  TYR29      -0.0009
      8  CD2        8.3720   18.5250  -17.5570 C.ar   29  TYR29      -0.0009
      9  CE1       10.4980   19.3830  -15.9730 C.ar   29  TYR29       0.0417
     10  CE2        8.4890   18.0950  -16.2100 C.ar   29  TYR29       0.0417
     11  CZ         9.5530   18.5270  -15.4190 C.ar   29  TYR29       0.1957
     12  OH         9.6610   18.0980  -14.0800 O.3    29  TYR29      -0.2866
     13  N         11.2780   20.7120  -23.6340 N.3    31  GLU31      -0.1245
     14  CA        12.3460   21.7070  -23.5020 C.3    31  GLU31       0.1567
     15  C         13.6710   21.0440  -23.8620 C.2    31  GLU31       0.2260
     16  O         13.8820   19.8840  -23.5240 O.2    31  GLU31      -0.2867
     17  CB        12.4120   22.2490  -22.0650 C.3    31  GLU31       0.0388
     18  CG        11.0820   22.7550  -21.4690 C.3    31  GLU31       0.1160
     19  CD        10.8640   24.2560  -21.5990 C.2    31  GLU31       0.3649
     20  OE1        9.7070   24.6920  -21.4420 O.co2  31  GLU31      -0.2457
     21  OE2       11.8290   25.0020  -21.8530 O.co2  31  GLU31      -0.2457
     22  N         17.8060   25.9950  -17.0080 N.3    39  LYS39      -0.1245
     23  CA        16.6970   25.1640  -16.5780 C.3    39  LYS39       0.1561
     24  C         17.2020   23.7400  -16.2980 C.2    39  LYS39       0.2260
     25  O         16.8100   23.0990  -15.3200 O.2    39  LYS39      -0.2867
     26  CB        15.6190   25.1710  -17.6580 C.3    39  LYS39       0.0271
     27  CG        14.2130   24.8780  -17.2030 C.3    39  LYS39       0.0035
     28  CD        13.2060   25.1750  -18.3200 C.3    39  LYS39       0.0206
     29  CE        13.0480   26.6710  -18.5410 C.3    39  LYS39       0.1093
     30  NZ        11.9150   27.0010  -19.4460 N.3    39  LYS39      -0.1314
     31  N         18.9710   23.6790  -13.0820 N.3    42  ALA42      -0.1231
     32  CA        17.9970   23.8060  -12.0140 C.3    42  ALA42       0.1694
     33  C         17.2410   22.4900  -11.7820 C.2    42  ALA42       0.2591
     34  O         16.9940   22.0960  -10.6280 O.2    42  ALA42      -0.2718
     35  CB        17.0220   24.9330  -12.3290 C.3    42  ALA42       0.0304
     36  N         16.8930   21.8050  -12.8680 N.am   43  ILE43      -0.1980
     37  CA        16.1950   20.5220  -12.7750 C.3    43  ILE43       0.1595
     38  C         17.1050   19.4770  -12.1300 C.2    43  ILE43       0.2287
     39  O         16.6650   18.7260  -11.2520 O.2    43  ILE43      -0.2864
     40  CB        15.6940   20.0450  -14.1540 C.3    43  ILE43       0.0276
     41  CG1       14.5490   20.9590  -14.6260 C.3    43  ILE43       0.0022
     42  CG2       15.2180   18.5900  -14.1170 C.3    43  ILE43       0.0022
     43  CD1       14.2050   20.8310  -16.1130 C.3    43  ILE43       0.0001
     44  N         17.3650   20.3720   -8.3320 N.3    46  HIS46      -0.1241
     45  CA        16.1380   20.0210   -7.6290 C.3    46  HIS46       0.1621
     46  C         15.9640   18.5050   -7.4740 C.2    46  HIS46       0.2264
     47  O         15.6040   18.0250   -6.3950 O.2    46  HIS46      -0.2867
     48  CB        14.9400   20.6330   -8.3460 C.3    46  HIS46       0.0745
     49  CG        13.6120   20.1590   -7.8410 C.ar   46  HIS46       0.0817
     50  ND1       12.9730   19.0540   -8.3600 N.ar   46  HIS46      -0.2268
     51  CD2       12.7840   20.6600   -6.8920 C.ar   46  HIS46       0.1154
     52  CE1       11.8200   18.8780   -7.7360 C.ar   46  HIS46       0.1986
     53  NE2       11.6710   19.8520   -6.8550 N.ar   46  HIS46      -0.2212
     54  N          9.3110   12.5720   -7.8150 N.3    85  GLU85      -0.1245
     55  CA        10.0360   13.3410   -8.8140 C.3    85  GLU85       0.1567
     56  C         11.0430   12.4180   -9.4660 C.2    85  GLU85       0.2260
     57  O         11.5790   11.5140   -8.8130 O.2    85  GLU85      -0.2867
     58  CB        10.7390   14.5400   -8.1640 C.3    85  GLU85       0.0388
     59  CG        11.4870   15.4520   -9.1040 C.3    85  GLU85       0.1160
     60  CD        10.5520   16.1370  -10.0720 C.2    85  GLU85       0.3649
     61  OE1       10.3580   15.6690  -11.1980 O.co2  85  GLU85      -0.2457
     62  OE2        9.9460   17.1320   -9.6610 O.co2  85  GLU85      -0.2457
     63  N          1.5760   16.6790   -9.3540 N.3   111  LEU111     -0.1245
     64  CA         2.5650   15.7620   -8.8090 C.3   111  LEU111      0.1561
     65  C          3.4210   16.4460   -7.7390 C.2   111  LEU111      0.2260
     66  O          4.0340   17.4770   -7.9970 O.2   111  LEU111     -0.2867
     67  CB         3.4720   15.1910   -9.8950 C.3   111  LEU111      0.0270
     68  CG         2.8040   14.2170  -10.8630 C.3   111  LEU111      0.0019
     69  CD1        3.7490   13.8970  -11.9990 C.3   111  LEU111      0.0001
     70  CD2        2.3940   12.9260  -10.1460 C.3   111  LEU111      0.0001
     71  N          6.7050   15.9400   -4.8670 N.3   113  ASP113     -0.1239
     72  CA         8.0420   15.3800   -5.0030 C.3   113  ASP113      0.1674
     73  C          8.3270   14.1080   -4.2280 C.2   113  ASP113      0.2266
     74  O          9.0470   13.2340   -4.7210 O.2   113  ASP113     -0.2867
     75  CB         9.0480   16.4450   -4.5970 C.3   113  ASP113      0.1410
     76  CG         9.1090   17.5660   -5.6010 C.2   113  ASP113      0.3668
     77  OD1        9.1310   17.2120   -6.7900 O.co2 113  ASP113     -0.2456
     78  OD2        9.1150   18.7600   -5.2120 O.co2 113  ASP113     -0.2456
     79  N          6.1460   18.8750   -1.2850 N.3   124  GLU124     -0.1231
     80  CA         6.6710   19.5970   -2.4290 C.3   124  GLU124      0.1699
     81  C          7.9890   20.2390   -2.0290 C.2   124  GLU124      0.2592
     82  O          8.0230   21.0540   -1.1100 O.2   124  GLU124     -0.2718
     83  CB         5.6890   20.6690   -2.9150 C.3   124  GLU124      0.0402
     84  CG         6.2660   21.5890   -3.9960 C.3   124  GLU124      0.1161
     85  CD         6.6200   20.8270   -5.2560 C.2   124  GLU124      0.3649
     86  OE1        5.9410   19.8180   -5.5370 O.co2 124  GLU124     -0.2457
     87  OE2        7.6010   21.2080   -5.9320 O.co2 124  GLU124     -0.2457
     88  N          9.0550   19.8720   -2.7340 N.am  125  ILE125     -0.1966
     89  CA        10.3870   20.4390   -2.5230 C.3   125  ILE125      0.1727
     90  C         10.5790   21.6080   -3.4570 C.2   125  ILE125      0.2616
     91  O         10.3410   21.4930   -4.6570 O.2   125  ILE125     -0.2715
     92  CB        11.5010   19.4160   -2.7810 C.3   125  ILE125      0.0290
     93  CG1       11.4130   18.2340   -1.8000 C.3   125  ILE125      0.0022
     94  CG2       12.8940   20.0880   -2.7070 C.3   125  ILE125      0.0023
     95  CD1       11.7470   18.5800   -0.3750 C.3   125  ILE125      0.0001
     96  N         11.0180   22.7340   -2.9100 N.am  126  GLY126     -0.1955
     97  CA        11.3990   23.8730   -3.7220 C.3   126  GLY126      0.1869
     98  C         12.8620   24.2130   -3.5410 C.2   126  GLY126      0.2309
     99  O         13.3890   24.1380   -2.4310 O.2   126  GLY126     -0.2863
    100  N         16.6530   30.4440   -6.2640 N.3   129  ARG129     -0.1245
    101  CA        17.7200   31.4390   -6.3020 C.3   129  ARG129      0.1563
    102  C         17.2370   32.7920   -5.7820 C.2   129  ARG129      0.2260
    103  O         18.0110   33.7420   -5.7160 O.2   129  ARG129     -0.2867
    104  CB        18.2510   31.5970   -7.7280 C.3   129  ARG129      0.0307
    105  CG        19.0790   30.4230   -8.2220 C.3   129  ARG129      0.0489
    106  CD        18.2360   29.4240   -8.9860 C.3   129  ARG129      0.2205
    107  NE        18.1460   29.7520  -10.4060 N.pl3 129  ARG129     -0.0865
    108  CZ        17.2900   29.1870  -11.2540 C.cat 129  ARG129      0.5346
    109  NH1       16.4280   28.2770  -10.8280 N.pl3 129  ARG129      0.1354
    110  NH2       17.2950   29.5360  -12.5320 N.pl3 129  ARG129      0.1354
    111  N          9.1450   32.4980   -3.1000 N.3   135  TYR135     -0.1241
    112  CA         9.0070   31.2230   -3.7730 C.3   135  TYR135      0.1605
    113  C          8.0180   30.3390   -3.0390 C.2   135  TYR135      0.2264
    114  O          7.2700   29.5900   -3.6650 O.2   135  TYR135     -0.2867
    115  CB        10.3540   30.5280   -3.8960 C.3   135  TYR135      0.0534
    116  CG        10.3330   29.3760   -4.8650 C.ar  135  TYR135     -0.0201
    117  CD1        9.9780   29.5680   -6.1900 C.ar  135  TYR135     -0.0009
    118  CD2       10.6940   28.1020   -4.4670 C.ar  135  TYR135     -0.0009
    119  CE1        9.9540   28.5210   -7.0830 C.ar  135  TYR135      0.0417
    120  CE2       10.6850   27.0540   -5.3570 C.ar  135  TYR135      0.0417
    121  CZ        10.3150   27.2670   -6.6630 C.ar  135  TYR135      0.1957
    122  OH        10.3060   26.2160   -7.5490 O.3   135  TYR135     -0.2866
    123  N          4.6300   28.4820   -4.7650 N.3   139  LYS139     -0.1245
    124  CA         4.3170   27.0590   -4.6650 C.3   139  LYS139      0.1561
    125  C          2.9570   26.8350   -4.0320 C.2   139  LYS139      0.2260
    126  O          2.1640   26.0160   -4.5030 O.2   139  LYS139     -0.2867
    127  CB         5.3730   26.3210   -3.8420 C.3   139  LYS139      0.0271
    128  CG         6.6680   26.0600   -4.5630 C.3   139  LYS139      0.0035
    129  CD         6.4750   25.1250   -5.7450 C.3   139  LYS139      0.0206
    130  CE         7.8130   24.5900   -6.2060 C.3   139  LYS139      0.1093
    131  NZ         7.7310   23.8910   -7.4970 N.3   139  LYS139     -0.1314
@<TRIPOS>BOND
     1    15    16    2
     2    15    14    1
     3    13    14    1
     4    14    17    1
     5     4     3    2
     6    17    18    1
     7     3     2    1
     8    21    19   ar
     9    19    18    1
    10    19    20   ar
    11     1     2    1
    12     2     5    1
    13     5     6    1
    14    30    29    1
    15    29    28    1
    16    28    27    1
    17     6     8   ar
    18     6     7   ar
    19    26    27    1
    20    26    23    1
    21     8    10   ar
    22     7     9   ar
    23    22    23    1
    24    23    24    1
    25    24    25    2
    26    10    11   ar
    27    43    41    1
    28     9    11   ar
    29    11    12    1
    30    41    40    1
    31    40    42    1
    32    40    37    1
    33    31    32    1
    34    36    37    1
    35    36    33   am
    36    37    38    1
    37   110   108    1
    38    35    32    1
    39    38    39    2
    40    32    33    1
    41    69    68    1
    42    33    34    2
    43   108   109    1
    44   108   107    2
    45    61    60   ar
    46    68    70    1
    47    68    67    1
    48   107   106    1
    49    60    62   ar
    50    60    59    1
    51    67    64    1
    52    56    55    1
    53    56    57    2
    54    63    64    1
    55    59    58    1
    56   106   105    1
    57    55    58    1
    58    55    54    1
    59    64    65    1
    60    50    49   ar
    61    50    52   ar
    62    48    49    1
    63    48    45    1
    64    44    45    1
    65   105   104    1
    66    66    65    2
    67    49    51   ar
    68    52    53   ar
    69   104   101    1
    70    45    46    1
    71   122   121    1
    72   131   130    1
    73    46    47    2
    74   119   121   ar
    75   119   117   ar
    76    51    53   ar
    77    77    76   ar
    78   121   120   ar
    79   101   100    1
    80   101   102    1
    81   130   129    1
    82   117   116   ar
    83    87    85   ar
    84   102   103    2
    85   129   128    1
    86    76    78   ar
    87    76    75    1
    88    86    85   ar
    89   120   118   ar
    90    85    84    1
    91    72    71    1
    92    72    75    1
    93    72    73    1
    94   116   118   ar
    95   116   115    1
    96   123   124    1
    97    74    73    2
    98   124   125    1
    99   124   127    1
   100    91    90    2
   101   128   127    1
   102   126   125    2
   103    84    83    1
   104   115   112    1
   105   112   111    1
   106   112   113    1
   107    97    98    1
   108    97    96    1
   109   114   113    2
   110    98    99    2
   111    90    96   am
   112    90    89    1
   113    83    80    1
   114    92    94    1
   115    92    89    1
   116    92    93    1
   117    88    89    1
   118    88    81   am
   119    80    81    1
   120    80    79    1
   121    81    82    2
   122    93    95    1
