@<TRIPOS>MOLECULE
tmp/4mk3A02.pdb
 97 94 0 0 0
SMALL
GASTEIGER

@<TRIPOS>ATOM
      1  N          6.3130   14.3940   31.3120 N.3     6  SER6       -0.1217
      2  CA         7.7550   14.4520   31.1770 C.3     6  SER6        0.1889
      3  C          8.0180   15.4450   30.0580 C.2     6  SER6        0.2288
      4  O          7.1080   15.7860   29.2900 O.2     6  SER6       -0.2866
      5  CB         8.3380   13.0880   30.8500 C.3     6  SER6        0.2089
      6  OG         8.0120   12.7440   29.5150 O.3     6  SER6       -0.2183
      7  N          9.8800   14.9720   27.5480 N.3     8  THR8       -0.1203
      8  CA        10.0580   14.2820   26.2600 C.3     8  THR8        0.1994
      9  C          8.7560   13.7030   25.7190 C.2     8  THR8        0.2619
     10  O          8.6190   13.5710   24.4990 O.2     8  THR8       -0.2717
     11  CB        11.0980   13.1360   26.3690 C.3     8  THR8        0.1784
     12  OG1       10.7490   12.2680   27.4560 O.3     8  THR8       -0.2211
     13  CG2       12.4660   13.6940   26.6110 C.3     8  THR8        0.0376
     14  N          7.7930   13.3990   26.5890 N.am    9  SER9       -0.1938
     15  CA         6.5600   12.7180   26.1880 C.3     9  SER9        0.2040
     16  C          5.8300   13.5300   25.1290 C.2     9  SER9        0.2485
     17  O          5.4610   14.6750   25.3890 O.2     9  SER9       -0.2729
     18  CB         5.6210   12.4980   27.3810 C.3     9  SER9        0.2129
     19  OG         4.3000   12.1360   26.9460 O.3     9  SER9       -0.2179
     20  N          5.5970   12.9350   23.9440 N.am   10  PRO10      -0.2715
     21  CA         4.9190   13.7200   22.8990 C.3    10  PRO10       0.1536
     22  C          3.4350   13.8830   23.1690 C.2    10  PRO10       0.2598
     23  O          2.8310   14.8840   22.7630 O.2    10  PRO10      -0.2715
     24  CB         5.1930   12.9080   21.6390 C.3    10  PRO10       0.0310
     25  CG         5.3940   11.5120   22.0970 C.3    10  PRO10       0.0237
     26  CD         6.0610   11.6260   23.4410 C.3    10  PRO10       0.0939
     27  N          2.8360   12.9210   23.8670 N.am   11  TYR11      -0.1974
     28  CA         1.4480   13.0580   24.2830 C.3    11  TYR11       0.1639
     29  C          1.3240   14.1630   25.3170 C.2    11  TYR11       0.2290
     30  O          0.3600   14.9300   25.3020 O.2    11  TYR11      -0.2864
     31  CB         0.9200   11.7400   24.8730 C.3    11  TYR11       0.0560
     32  CG         1.1020   10.4920   24.0210 C.ar   11  TYR11      -0.0198
     33  CD1        0.1750   10.1160   23.0750 C.ar   11  TYR11      -0.0009
     34  CD2        2.1730    9.6600   24.2530 C.ar   11  TYR11      -0.0009
     35  CE1        0.3590    8.9380   22.3420 C.ar   11  TYR11       0.0417
     36  CE2        2.3680    8.5190   23.5520 C.ar   11  TYR11       0.0417
     37  CZ         1.4680    8.1520   22.6030 C.ar   11  TYR11       0.1957
     38  OH         1.6690    6.9770   21.9200 O.3    11  TYR11      -0.2866
     39  N          8.6900    5.0040   33.8730 N.3    34  TRP34      -0.1241
     40  CA         9.4070    3.7400   33.6840 C.3    34  TRP34       0.1605
     41  C         10.2600    3.3550   34.8800 C.2    34  TRP34       0.2264
     42  O         10.8380    2.2720   34.9030 O.2    34  TRP34      -0.2867
     43  CB        10.2700    3.7960   32.4230 C.3    34  TRP34       0.0550
     44  CG         9.4260    3.9980   31.2170 C.ar   34  TRP34       0.0003
     45  CD1        9.2690    5.1500   30.5230 C.ar   34  TRP34       0.0946
     46  CD2        8.5910    3.0250   30.5860 C.ar   34  TRP34       0.0152
     47  NE1        8.3860    4.9630   29.4870 N.ar   34  TRP34      -0.2442
     48  CE2        7.9570    3.6630   29.5070 C.ar   34  TRP34       0.0810
     49  CE3        8.3220    1.6760   30.8260 C.ar   34  TRP34       0.0012
     50  CZ2        7.0640    2.9970   28.6600 C.ar   34  TRP34       0.0191
     51  CZ3        7.4320    1.0170   29.9810 C.ar   34  TRP34       0.0001
     52  CH2        6.8190    1.6790   28.9220 C.ar   34  TRP34       0.0015
     53  N          0.3960    5.8520   33.0500 N.3    48  LYS48      -0.1245
     54  CA         0.8920    6.6650   31.9450 C.3    48  LYS48       0.1561
     55  C          0.7920    8.1560   32.2130 C.2    48  LYS48       0.2260
     56  O         -0.0570    8.6170   32.9860 O.2    48  LYS48      -0.2867
     57  CB         0.1430    6.3300   30.6420 C.3    48  LYS48       0.0271
     58  CG         0.4110    4.9320   30.1350 C.3    48  LYS48       0.0035
     59  CD        -0.4800    4.5950   28.9590 C.3    48  LYS48       0.0206
     60  CE        -0.1500    3.2680   28.4090 C.3    48  LYS48       0.1093
     61  NZ         1.0780    3.3770   27.5750 N.3    48  LYS48      -0.1314
     62  N         -6.8430   10.1900   29.1850 N.3    62  ASP62      -0.1239
     63  CA        -5.4720   10.3680   28.6960 C.3    62  ASP62       0.1674
     64  C         -5.2920   11.7340   28.0220 C.2    62  ASP62       0.2266
     65  O         -6.0630   12.6590   28.2750 O.2    62  ASP62      -0.2867
     66  CB        -5.1510    9.1960   27.7470 C.3    62  ASP62       0.1410
     67  CG        -5.9680    9.2190   26.4630 C.2    62  ASP62       0.3668
     68  OD1       -6.8850   10.0350   26.3290 O.co2  62  ASP62      -0.2456
     69  OD2       -5.6690    8.3910   25.5860 O.co2  62  ASP62      -0.2456
     70  N          1.7640    6.0970   18.8720 N.3   102  ASP102     -0.1239
     71  CA         1.6340    4.7830   19.5060 C.3   102  ASP102      0.1674
     72  C          2.6120    3.8030   18.8570 C.2   102  ASP102      0.2266
     73  O          3.2650    3.0250   19.5460 O.2   102  ASP102     -0.2867
     74  CB         0.2220    4.2360   19.3510 C.3   102  ASP102      0.1410
     75  CG        -0.8380    5.0240   20.1310 C.2   102  ASP102      0.3668
     76  OD1       -0.5130    5.7560   21.1100 O.co2 102  ASP102     -0.2456
     77  OD2       -2.0350    4.8350   19.7770 O.co2 102  ASP102     -0.2456
     78  N          6.3000    4.7950   19.7450 N.3   105  LEU105     -0.1245
     79  CA         6.6250    4.3530   21.0860 C.3   105  LEU105      0.1561
     80  C          6.8810    2.8590   21.1450 C.2   105  LEU105      0.2260
     81  O          7.8240    2.4170   21.7720 O.2   105  LEU105     -0.2867
     82  CB         5.5290    4.7390   22.0880 C.3   105  LEU105      0.0270
     83  CG         5.7970    5.9700   22.9610 C.3   105  LEU105      0.0019
     84  CD1        7.0630    5.8260   23.8230 C.3   105  LEU105      0.0001
     85  CD2        5.8790    7.1860   22.0780 C.3   105  LEU105      0.0001
     86  N          8.4000   14.6560   17.3220 N.3   166  TYR166     -0.1241
     87  CA         8.8500   13.4560   18.0190 C.3   166  TYR166      0.1605
     88  C          9.6990   12.5670   17.1190 C.2   166  TYR166      0.2264
     89  O         10.7220   12.0380   17.5510 O.2   166  TYR166     -0.2867
     90  CB         7.6840   12.6610   18.5940 C.3   166  TYR166      0.0534
     91  CG         8.1410   11.5050   19.4370 C.ar  166  TYR166     -0.0201
     92  CD1        8.6730   11.7100   20.7000 C.ar  166  TYR166     -0.0009
     93  CD2        8.0150   10.2000   18.9930 C.ar  166  TYR166     -0.0009
     94  CE1        9.0950   10.6450   21.4820 C.ar  166  TYR166      0.0417
     95  CE2        8.4180    9.1470   19.7680 C.ar  166  TYR166      0.0417
     96  CZ         8.9420    9.3730   21.0130 C.ar  166  TYR166      0.1957
     97  OH         9.3770    8.3120   21.8030 O.3   166  TYR166     -0.2866
@<TRIPOS>BOND
     1    88    89    2
     2    88    87    1
     3    86    87    1
     4    87    90    1
     5    90    91    1
     6    72    71    1
     7    72    73    2
     8    70    71    1
     9    93    91   ar
    10    93    95   ar
    11    74    71    1
    12    74    75    1
    13    91    92   ar
    14    78    79    1
    15    95    96   ar
    16    77    75   ar
    17    75    76   ar
    18    92    94   ar
    19    96    94   ar
    20    96    97    1
    21    79    80    1
    22    79    82    1
    23    80    81    2
    24    24    25    1
    25    24    21    1
    26    38    37    1
    27    85    83    1
    28    82    83    1
    29    25    26    1
    30    35    37   ar
    31    35    33   ar
    32    37    36   ar
    33    23    22    2
    34    21    22    1
    35    21    20    1
    36    83    84    1
    37    33    32   ar
    38    22    27   am
    39    26    20    1
    40    36    34   ar
    41    27    28    1
    42    20    16   am
    43    32    34   ar
    44    32    31    1
    45    28    31    1
    46    28    29    1
    47    10     9    2
    48    16    17    2
    49    16    15    1
    50    30    29    2
    51    69    67   ar
    52     9     8    1
    53     9    14   am
    54    15    14    1
    55    15    18    1
    56     8    11    1
    57     8     7    1
    58    68    67   ar
    59    11    13    1
    60    11    12    1
    61    67    66    1
    62    19    18    1
    63    61    60    1
    64    66    63    1
    65    64    65    2
    66    64    63    1
    67    60    59    1
    68    50    52   ar
    69    50    48   ar
    70    63    62    1
    71    52    51   ar
    72    59    58    1
    73     4     3    2
    74    47    48   ar
    75    47    45   ar
    76    48    46   ar
    77     6     5    1
    78    51    49   ar
    79     3     2    1
    80    58    57    1
    81    45    44   ar
    82    46    49   ar
    83    46    44   ar
    84    57    54    1
    85     5     2    1
    86     2     1    1
    87    44    43    1
    88    54    55    1
    89    54    53    1
    90    55    56    2
    91    43    40    1
    92    40    39    1
    93    40    41    1
    94    41    42    2
