@<TRIPOS>MOLECULE
tmp/4mk3A00.pdb
 90 89 0 0 0
SMALL
GASTEIGER

@<TRIPOS>ATOM
      1  N          6.3130   14.3940   31.3120 N.3     6  SER6       -0.1202
      2  CA         7.7550   14.4520   31.1770 C.3     6  SER6        0.2020
      3  C          8.0180   15.4450   30.0580 C.2     6  SER6        0.2619
      4  O          7.1080   15.7860   29.2900 O.2     6  SER6       -0.2717
      5  CB         8.3380   13.0880   30.8500 C.3     6  SER6        0.2103
      6  OG         8.0120   12.7440   29.5150 O.3     6  SER6       -0.2182
      7  N          9.2580   15.9130   29.9870 N.am    7  GLN7       -0.1965
      8  CA         9.6230   16.9180   28.9970 C.3     7  GLN7        0.1733
      9  C          9.8230   16.3010   27.6180 C.2     7  GLN7        0.2617
     10  O          9.9140   17.0310   26.6220 O.2     7  GLN7       -0.2715
     11  CB        10.8940   17.6490   29.4280 C.3     7  GLN7        0.0408
     12  CG        10.7710   18.4420   30.7380 C.3     7  GLN7        0.0908
     13  CD        10.0740   19.7890   30.5730 C.2     7  GLN7        0.2608
     14  OE1       10.0350   20.3550   29.4790 O.2     7  GLN7       -0.2717
     15  NE2        9.5410   20.3190   31.6730 N.am    7  GLN7       -0.0878
     16  N          9.8800   14.9720   27.5480 N.am    8  THR8       -0.1951
     17  CA        10.0580   14.2820   26.2600 C.3     8  THR8        0.1897
     18  C          8.7560   13.7030   25.7190 C.2     8  THR8        0.2313
     19  O          8.6190   13.5710   24.4990 O.2     8  THR8       -0.2863
     20  CB        11.0980   13.1360   26.3690 C.3     8  THR8        0.1794
     21  OG1       10.7490   12.2680   27.4560 O.3     8  THR8       -0.2208
     22  CG2       12.4660   13.6940   26.6110 C.3     8  THR8        0.0378
     23  N          7.4350   16.6230   36.6860 N.3    30  GLU30      -0.1231
     24  CA         8.0940   15.6170   35.8620 C.3    30  GLU30       0.1699
     25  C          8.0030   14.3100   36.6110 C.2    30  GLU30       0.2592
     26  O          8.3370   14.2590   37.8010 O.2    30  GLU30      -0.2718
     27  CB         9.5730   15.9440   35.6030 C.3    30  GLU30       0.0402
     28  CG         9.8180   17.0790   34.6160 C.3    30  GLU30       0.1161
     29  CD         9.8010   18.4470   35.2590 C.2    30  GLU30       0.3649
     30  OE1        9.6380   19.4520   34.5270 O.co2  30  GLU30      -0.2457
     31  OE2        9.9710   18.5230   36.4930 O.co2  30  GLU30      -0.2457
     32  N          7.5720   13.2640   35.9200 N.am   31  GLU31      -0.1966
     33  CA         7.3990   11.9440   36.5070 C.3    31  GLU31       0.1733
     34  C          7.9640   10.9210   35.5300 C.2    31  GLU31       0.2616
     35  O          7.5500   10.9070   34.3660 O.2    31  GLU31      -0.2715
     36  CB         5.8970   11.7090   36.7210 C.3    31  GLU31       0.0429
     37  CG         5.5330   10.3820   37.3530 C.3    31  GLU31       0.1163
     38  CD         6.0870   10.2110   38.7570 C.2    31  GLU31       0.3649
     39  OE1        6.3710   11.2200   39.4570 O.co2  31  GLU31      -0.2457
     40  OE2        6.2880    9.0470   39.1550 O.co2  31  GLU31      -0.2457
     41  N          8.9270   10.1150   35.9680 N.am   32  ASN32      -0.1958
     42  CA         9.4560    8.9900   35.1720 C.3    32  ASN32       0.1819
     43  C          8.6530    7.7150   35.3660 C.2    32  ASN32       0.2621
     44  O          8.8790    6.9380   36.3110 O.2    32  ASN32      -0.2715
     45  CB        10.9200    8.7120   35.5020 C.3    32  ASN32       0.1195
     46  CG        11.4970    7.5660   34.6880 C.2    32  ASN32       0.2630
     47  OD1       10.8740    7.0830   33.7470 O.2    32  ASN32      -0.2716
     48  ND2       12.6970    7.1290   35.0520 N.am   32  ASN32      -0.0877
     49  N          7.7260    7.5020   34.4390 N.am   33  VAL33      -0.1963
     50  CA         6.7900    6.3910   34.5300 C.3    33  VAL33       0.1727
     51  C          7.4450    5.0290   34.3490 C.2    33  VAL33       0.2616
     52  O          6.8300    4.0110   34.6350 O.2    33  VAL33      -0.2715
     53  CB         5.6350    6.5360   33.5290 C.3    33  VAL33       0.0290
     54  CG1        4.8280    7.7760   33.8550 C.3    33  VAL33       0.0023
     55  CG2        6.1590    6.5760   32.1210 C.3    33  VAL33       0.0023
     56  N          8.6900    5.0040   33.8730 N.am   34  TRP34      -0.1960
     57  CA         9.4070    3.7400   33.6840 C.3    34  TRP34       0.1771
     58  C         10.2600    3.3550   34.8800 C.2    34  TRP34       0.2620
     59  O         10.8380    2.2720   34.9030 O.2    34  TRP34      -0.2715
     60  CB        10.2700    3.7960   32.4230 C.3    34  TRP34       0.0590
     61  CG         9.4260    3.9980   31.2170 C.ar   34  TRP34       0.0006
     62  CD1        9.2690    5.1500   30.5230 C.ar   34  TRP34       0.0946
     63  CD2        8.5910    3.0250   30.5860 C.ar   34  TRP34       0.0152
     64  NE1        8.3860    4.9630   29.4870 N.ar   34  TRP34      -0.2442
     65  CE2        7.9570    3.6630   29.5070 C.ar   34  TRP34       0.0810
     66  CE3        8.3220    1.6760   30.8260 C.ar   34  TRP34       0.0012
     67  CZ2        7.0640    2.9970   28.6600 C.ar   34  TRP34       0.0191
     68  CZ3        7.4320    1.0170   29.9810 C.ar   34  TRP34       0.0001
     69  CH2        6.8190    1.6790   28.9220 C.ar   34  TRP34       0.0015
     70  N         10.3510    4.2410   35.8680 N.am   35  SER35      -0.1950
     71  CA        11.0500    3.9230   37.1070 C.3    35  SER35       0.1924
     72  C         10.2090    2.9860   37.9730 C.2    35  SER35       0.2314
     73  O          8.9890    3.1450   38.0490 O.2    35  SER35      -0.2863
     74  CB        11.3270    5.2100   37.8680 C.3    35  SER35       0.2116
     75  OG        11.7820    4.9070   39.1770 O.3    35  SER35      -0.2180
     76  N         10.0600    3.2030   40.9350 N.3    37  ASP37      -0.1225
     77  CA         9.6280    4.0780   42.0270 C.3    37  ASP37       0.1805
     78  C          8.5600    5.0960   41.6310 C.2    37  ASP37       0.2598
     79  O          8.2460    6.0230   42.3860 O.2    37  ASP37      -0.2718
     80  CB        10.8370    4.8010   42.6070 C.3    37  ASP37       0.1424
     81  CG        11.6570    3.9110   43.4840 C.2    37  ASP37       0.3668
     82  OD1       11.0400    3.1420   44.2420 O.co2  37  ASP37      -0.2456
     83  OD2       12.9010    3.9720   43.4140 O.co2  37  ASP37      -0.2456
     84  N          7.9910    4.9410   40.4480 N.am   38  THR38      -0.1953
     85  CA         7.0050    5.9010   40.0010 C.3    38  THR38       0.1897
     86  C          5.7640    5.8690   40.8830 C.2    38  THR38       0.2313
     87  O          5.3710    4.8150   41.3530 O.2    38  THR38      -0.2863
     88  CB         6.6180    5.6800   38.5220 C.3    38  THR38       0.1794
     89  OG1        5.7220    6.7110   38.1110 O.3    38  THR38      -0.2208
     90  CG2        5.9350    4.3300   38.3010 C.3    38  THR38       0.0378
@<TRIPOS>BOND
     1    19    18    2
     2    18    17    1
     3    17    20    1
     4    17    16    1
     5    20    22    1
     6    20    21    1
     7    10     9    2
     8    16     9   am
     9     9     8    1
    10    67    69   ar
    11    67    65   ar
    12    69    68   ar
    13     8    11    1
    14     8     7    1
    15     4     3    2
    16    11    12    1
    17    14    13    2
    18    64    65   ar
    19    64    62   ar
    20    65    63   ar
    21     6     5    1
    22    68    66   ar
    23     7     3   am
    24     3     2    1
    25    62    61   ar
    26    13    12    1
    27    13    15   am
    28    63    66   ar
    29    63    61   ar
    30     5     2    1
    31     2     1    1
    32    61    60    1
    33    55    53    1
    34    60    57    1
    35    53    54    1
    36    53    50    1
    37    57    56    1
    38    57    58    1
    39    47    46    2
    40    56    51   am
    41    51    50    1
    42    51    52    2
    43    35    34    2
    44    49    50    1
    45    49    43   am
    46    30    29   ar
    47    28    29    1
    48    28    27    1
    49    46    48   am
    50    46    45    1
    51    58    59    2
    52    58    70   am
    53    42    43    1
    54    42    45    1
    55    42    41    1
    56    29    31   ar
    57    43    44    2
    58    34    41   am
    59    34    33    1
    60    27    24    1
    61    24    25    1
    62    24    23    1
    63    70    71    1
    64    32    33    1
    65    32    25   am
    66    33    36    1
    67    25    26    2
    68    36    37    1
    69    71    74    1
    70    71    72    1
    71    37    38    1
    72    74    75    1
    73    72    73    2
    74    89    88    1
    75    90    88    1
    76    88    85    1
    77    38    40   ar
    78    38    39   ar
    79    85    84    1
    80    85    86    1
    81    84    78   am
    82    86    87    2
    83    76    77    1
    84    78    77    1
    85    78    79    2
    86    77    80    1
    87    80    81    1
    88    83    81   ar
    89    81    82   ar
