@<TRIPOS>MOLECULE
tmp/4mk5A00.pdb
 133 124 0 0 0
SMALL
GASTEIGER

@<TRIPOS>ATOM
      1  N         13.1250   14.4530  -18.5640 N.3    25  ALA25      -0.1231
      2  CA        11.9850   15.2390  -18.0850 C.3    25  ALA25       0.1694
      3  C         11.8310   16.4970  -18.9620 C.2    25  ALA25       0.2591
      4  O         10.7210   16.8500  -19.3830 O.2    25  ALA25      -0.2718
      5  CB        12.1930   15.5940  -16.6500 C.3    25  ALA25       0.0304
      6  N         12.9500   17.1370  -19.3020 N.am   26  MET26      -0.1979
      7  CA        12.9050   18.2820  -20.2190 C.3    26  MET26       0.1605
      8  C         12.3470   17.9410  -21.5830 C.2    26  MET26       0.2287
      9  O         11.5250   18.6730  -22.1300 O.2    26  MET26      -0.2864
     10  CB        14.3030   18.8800  -20.3520 C.3    26  MET26       0.0413
     11  CG        14.6950   19.6290  -19.0910 C.3    26  MET26       0.0598
     12  SD        16.2720   20.5250  -19.3000 S.3    26  MET26      -0.1393
     13  CE        15.6870   22.0310  -20.0730 C.3    26  MET26       0.0692
     14  N          8.5750   17.4060  -21.5340 N.3    29  TYR29      -0.1241
     15  CA         7.8450   18.6870  -21.4840 C.3    29  TYR29       0.1605
     16  C          8.1680   19.6560  -22.6460 C.2    29  TYR29       0.2264
     17  O          7.6950   20.7880  -22.6670 O.2    29  TYR29      -0.2867
     18  CB         8.0850   19.3850  -20.1330 C.3    29  TYR29       0.0534
     19  CG         7.3360   18.7130  -18.9890 C.ar   29  TYR29      -0.0201
     20  CD1        5.9960   18.9950  -18.7450 C.ar   29  TYR29      -0.0009
     21  CD2        7.9730   17.8050  -18.1440 C.ar   29  TYR29      -0.0009
     22  CE1        5.2990   18.3620  -17.7150 C.ar   29  TYR29       0.0417
     23  CE2        7.2960   17.1870  -17.1010 C.ar   29  TYR29       0.0417
     24  CZ         5.9640   17.4740  -16.8890 C.ar   29  TYR29       0.1957
     25  OH         5.2870   16.8500  -15.8610 O.3    29  TYR29      -0.2866
     26  N         11.1740   20.8830  -23.7450 N.3    31  GLU31      -0.1245
     27  CA        12.2410   21.8550  -23.5470 C.3    31  GLU31       0.1567
     28  C         13.5710   21.2040  -23.8710 C.2    31  GLU31       0.2260
     29  O         13.7440   20.0030  -23.6410 O.2    31  GLU31      -0.2867
     30  CB        12.2310   22.3290  -22.1030 C.3    31  GLU31       0.0388
     31  CG        10.8920   22.9660  -21.7100 C.3    31  GLU31       0.1160
     32  CD        10.9670   23.6800  -20.3780 C.2    31  GLU31       0.3649
     33  OE1       11.5890   23.1380  -19.4550 O.co2  31  GLU31      -0.2457
     34  OE2       10.3930   24.7830  -20.2640 O.co2  31  GLU31      -0.2457
     35  N         17.8930   26.2570  -16.8970 N.3    39  LYS39      -0.1245
     36  CA        16.7980   25.4140  -16.4240 C.3    39  LYS39       0.1561
     37  C         17.2370   23.9600  -16.2270 C.2    39  LYS39       0.2260
     38  O         16.8310   23.2930  -15.2520 O.2    39  LYS39      -0.2867
     39  CB        15.6170   25.4700  -17.3660 C.3    39  LYS39       0.0271
     40  CG        14.4810   24.5600  -16.9440 C.3    39  LYS39       0.0035
     41  CD        13.1570   25.2830  -16.8580 C.3    39  LYS39       0.0206
     42  CE        12.1100   24.4500  -16.0930 C.3    39  LYS39       0.1093
     43  NZ        10.9320   24.1530  -16.9960 N.3    39  LYS39      -0.1314
     44  N         19.0290   23.7800  -13.0390 N.3    42  ALA42      -0.1231
     45  CA        18.0720   23.9070  -11.9430 C.3    42  ALA42       0.1694
     46  C         17.3190   22.5830  -11.7090 C.2    42  ALA42       0.2591
     47  O         17.1590   22.1800  -10.5550 O.2    42  ALA42      -0.2718
     48  CB        17.0810   24.9990  -12.2110 C.3    42  ALA42       0.0304
     49  N         16.9140   21.9230  -12.7890 N.am   43  ILE43      -0.1980
     50  CA        16.2340   20.6150  -12.7220 C.3    43  ILE43       0.1595
     51  C         17.1500   19.5490  -12.0870 C.2    43  ILE43       0.2287
     52  O         16.7240   18.7800  -11.2140 O.2    43  ILE43      -0.2864
     53  CB        15.7320   20.1680  -14.1030 C.3    43  ILE43       0.0276
     54  CG1       14.5740   21.0710  -14.5500 C.3    43  ILE43       0.0022
     55  CG2       15.2650   18.7230  -14.1050 C.3    43  ILE43       0.0022
     56  CD1       14.2430   20.9170  -16.0380 C.3    43  ILE43       0.0001
     57  N         17.4310   20.4160   -8.2830 N.3    46  HIS46      -0.1241
     58  CA        16.2080   20.0590   -7.5870 C.3    46  HIS46       0.1621
     59  C         16.0710   18.5460   -7.4490 C.2    46  HIS46       0.2264
     60  O         15.7620   18.0590   -6.3530 O.2    46  HIS46      -0.2867
     61  CB        15.0160   20.6430   -8.3310 C.3    46  HIS46       0.0745
     62  CG        13.6820   20.2180   -7.8050 C.ar   46  HIS46       0.0817
     63  ND1       12.9970   19.1390   -8.3110 N.ar   46  HIS46      -0.2268
     64  CD2       12.8800   20.7580   -6.8640 C.ar   46  HIS46       0.1154
     65  CE1       11.8420   19.0100   -7.6870 C.ar   46  HIS46       0.1986
     66  NE2       11.7280   19.9950   -6.8240 N.ar   46  HIS46      -0.2212
     67  N          9.3610   12.7130   -7.8600 N.3    85  GLU85      -0.1245
     68  CA        10.1290   13.4320   -8.8700 C.3    85  GLU85       0.1567
     69  C         11.1390   12.4860   -9.5220 C.2    85  GLU85       0.2260
     70  O         11.6550   11.5650   -8.8870 O.2    85  GLU85      -0.2867
     71  CB        10.8610   14.5940   -8.2050 C.3    85  GLU85       0.0388
     72  CG        11.5750   15.5330   -9.0920 C.3    85  GLU85       0.1160
     73  CD        10.6400   16.1870  -10.0450 C.2    85  GLU85       0.3649
     74  OE1       10.5140   15.6730  -11.1600 O.co2  85  GLU85      -0.2457
     75  OE2        9.9870   17.1850   -9.6780 O.co2  85  GLU85      -0.2457
     76  N          1.6080   16.7530   -9.3780 N.3   111  LEU111     -0.1245
     77  CA         2.5800   15.8150   -8.8550 C.3   111  LEU111      0.1561
     78  C          3.4400   16.4780   -7.7600 C.2   111  LEU111      0.2260
     79  O          4.0490   17.5490   -7.9770 O.2   111  LEU111     -0.2867
     80  CB         3.4650   15.2980   -9.9690 C.3   111  LEU111      0.0270
     81  CG         2.8390   14.3030  -10.9510 C.3   111  LEU111      0.0019
     82  CD1        3.8040   13.9400  -12.0670 C.3   111  LEU111      0.0001
     83  CD2        2.3990   13.0370  -10.2460 C.3   111  LEU111      0.0001
     84  N          6.7640   15.9370   -4.8980 N.3   113  ASP113     -0.1239
     85  CA         8.1210   15.4040   -5.0690 C.3   113  ASP113      0.1674
     86  C          8.4140   14.1360   -4.2730 C.2   113  ASP113      0.2266
     87  O          9.1250   13.2440   -4.7740 O.2   113  ASP113     -0.2867
     88  CB         9.1060   16.4930   -4.6780 C.3   113  ASP113      0.1410
     89  CG         9.1510   17.6030   -5.6820 C.2   113  ASP113      0.3668
     90  OD1        9.1660   17.2890   -6.8750 O.co2 113  ASP113     -0.2456
     91  OD2        9.1580   18.7840   -5.2710 O.co2 113  ASP113     -0.2456
     92  N          6.2390   18.8690   -1.3140 N.3   124  GLU124     -0.1231
     93  CA         6.7730   19.6170   -2.4520 C.3   124  GLU124      0.1699
     94  C          8.0960   20.2480   -2.0430 C.2   124  GLU124      0.2592
     95  O          8.1440   21.0400   -1.1100 O.2   124  GLU124     -0.2718
     96  CB         5.7950   20.7170   -2.8980 C.3   124  GLU124      0.0402
     97  CG         6.2990   21.6280   -4.0120 C.3   124  GLU124      0.1161
     98  CD         6.6740   20.8530   -5.2650 C.2   124  GLU124      0.3649
     99  OE1        5.9970   19.8290   -5.5370 O.co2 124  GLU124     -0.2457
    100  OE2        7.6530   21.2290   -5.9510 O.co2 124  GLU124     -0.2457
    101  N          9.1650   19.8720   -2.7280 N.am  125  ILE125     -0.1966
    102  CA        10.4750   20.4770   -2.5350 C.3   125  ILE125      0.1727
    103  C         10.6660   21.6480   -3.4660 C.2   125  ILE125      0.2616
    104  O         10.4000   21.5570   -4.6530 O.2   125  ILE125     -0.2715
    105  CB        11.6120   19.4610   -2.8220 C.3   125  ILE125      0.0290
    106  CG1       11.5520   18.2850   -1.8390 C.3   125  ILE125      0.0022
    107  CG2       12.9580   20.1310   -2.7400 C.3   125  ILE125      0.0023
    108  CD1       11.8290   18.6730   -0.4180 C.3   125  ILE125      0.0001
    109  N         11.1580   22.7490   -2.9370 N.am  126  GLY126     -0.1955
    110  CA        11.5160   23.8770   -3.7650 C.3   126  GLY126      0.1869
    111  C         12.9680   24.2020   -3.5470 C.2   126  GLY126      0.2309
    112  O         13.4680   24.1790   -2.3990 O.2   126  GLY126     -0.2863
    113  N          9.1730   32.4580   -3.0710 N.3   135  TYR135     -0.1241
    114  CA         9.0250   31.1730   -3.7150 C.3   135  TYR135      0.1605
    115  C          8.0710   30.2610   -2.9560 C.2   135  TYR135      0.2264
    116  O          7.3400   29.4650   -3.5630 O.2   135  TYR135     -0.2867
    117  CB        10.3910   30.5240   -3.8890 C.3   135  TYR135      0.0534
    118  CG        10.3870   29.3900   -4.8790 C.ar  135  TYR135     -0.0201
    119  CD1       10.0980   29.6070   -6.2180 C.ar  135  TYR135     -0.0009
    120  CD2       10.7100   28.1120   -4.4880 C.ar  135  TYR135     -0.0009
    121  CE1       10.0870   28.5680   -7.1220 C.ar  135  TYR135      0.0417
    122  CE2       10.7300   27.0830   -5.3870 C.ar  135  TYR135      0.0417
    123  CZ        10.4230   27.3110   -6.7000 C.ar  135  TYR135      0.1957
    124  OH        10.4440   26.2590   -7.5610 O.3   135  TYR135     -0.2866
    125  N          4.6190   28.4400   -4.6640 N.3   139  LYS139     -0.1245
    126  CA         4.2940   27.0300   -4.6860 C.3   139  LYS139      0.1561
    127  C          3.0030   26.7550   -3.9250 C.2   139  LYS139      0.2260
    128  O          2.2180   25.8880   -4.3180 O.2   139  LYS139     -0.2867
    129  CB         5.4550   26.1900   -4.1620 C.3   139  LYS139      0.0271
    130  CG         6.4890   25.9990   -5.2520 C.3   139  LYS139      0.0035
    131  CD         7.1960   24.7320   -5.1290 C.3   139  LYS139      0.0206
    132  CE         8.1920   24.5180   -6.2330 C.3   139  LYS139      0.1093
    133  NZ         7.7150   23.9790   -7.4790 N.3   139  LYS139     -0.1314
@<TRIPOS>BOND
     1    28    29    2
     2    28    27    1
     3    26    27    1
     4    27    30    1
     5    17    16    2
     6    16    15    1
     7     9     8    2
     8    30    31    1
     9    31    32    1
    10     8     7    1
    11    14    15    1
    12    15    18    1
    13    32    34   ar
    14    32    33   ar
    15    10     7    1
    16    10    11    1
    17     7     6    1
    18    18    19    1
    19    13    12    1
    20     4     3    2
    21     6     3   am
    22    12    11    1
    23    19    20   ar
    24    19    21   ar
    25     3     2    1
    26    20    22   ar
    27     1     2    1
    28    21    23   ar
    29     2     5    1
    30    22    24   ar
    31    39    40    1
    32    39    36    1
    33    23    24   ar
    34    43    42    1
    35    40    41    1
    36    35    36    1
    37    24    25    1
    38    41    42    1
    39    36    37    1
    40    37    38    2
    41    56    54    1
    42    54    53    1
    43    55    53    1
    44    53    50    1
    45    44    45    1
    46    49    50    1
    47    49    46   am
    48    50    51    1
    49    48    45    1
    50    51    52    2
    51    82    81    1
    52    45    46    1
    53    46    47    2
    54    74    73   ar
    55    81    83    1
    56    81    80    1
    57    73    75   ar
    58    73    72    1
    59    80    77    1
    60    69    70    2
    61    69    68    1
    62    76    77    1
    63    72    71    1
    64    68    71    1
    65    68    67    1
    66    77    78    1
    67    61    62    1
    68    61    58    1
    69    63    62   ar
    70    63    65   ar
    71    57    58    1
    72    79    78    2
    73    62    64   ar
    74    65    66   ar
    75    58    59    1
    76   124   123    1
    77   133   132    1
    78    59    60    2
    79   121   123   ar
    80   121   119   ar
    81    90    89   ar
    82    64    66   ar
    83   123   122   ar
    84   132   131    1
    85   119   118   ar
    86   100    98   ar
    87    89    91   ar
    88    89    88    1
    89    99    98   ar
    90   122   120   ar
    91    98    97    1
    92   130   131    1
    93   130   129    1
    94    85    84    1
    95    85    88    1
    96    85    86    1
    97   118   120   ar
    98   118   117    1
    99    87    86    2
   100   126   125    1
   101   126   129    1
   102   126   127    1
   103   104   103    2
   104   128   127    2
   105    97    96    1
   106   117   114    1
   107   110   111    1
   108   110   109    1
   109   114   113    1
   110   114   115    1
   111   116   115    2
   112   111   112    2
   113   103   109   am
   114   103   102    1
   115    96    93    1
   116   105   107    1
   117   105   102    1
   118   105   106    1
   119   101   102    1
   120   101    94   am
   121    93    94    1
   122    93    92    1
   123    94    95    2
   124   106   108    1
