@<TRIPOS>MOLECULE
tmp/4mk7A00.pdb
 149 141 0 0 0
SMALL
GASTEIGER

@<TRIPOS>ATOM
      1  N         -0.8120    7.9080   12.9420 N.3   187  GLY187     -0.1210
      2  CA        -1.3870    8.2400   14.2420 C.3   187  GLY187      0.1956
      3  C         -2.1450    7.1340   14.9450 C.2   187  GLY187      0.2611
      4  O         -2.1340    7.0790   16.1780 O.2   187  GLY187     -0.2717
      5  N         -2.7910    6.2360   14.1770 N.am  188  PHE188     -0.1976
      6  CA        -3.5940    5.1320   14.7260 C.3   188  PHE188      0.1639
      7  C         -2.7950    4.0690   15.5050 C.2   188  PHE188      0.2290
      8  O         -3.3980    3.2490   16.1920 O.2   188  PHE188     -0.2864
      9  CB        -4.4550    4.4780   13.6340 C.3   188  PHE188      0.0560
     10  CG        -5.5550    5.3730   13.1080 C.ar  188  PHE188     -0.0200
     11  CD1       -6.3620    6.1010   13.9790 C.ar  188  PHE188     -0.0042
     12  CD2       -5.8100    5.4600   11.7460 C.ar  188  PHE188     -0.0042
     13  CE1       -7.4000    6.8990   13.4910 C.ar  188  PHE188     -0.0003
     14  CE2       -6.8450    6.2570   11.2600 C.ar  188  PHE188     -0.0003
     15  CZ        -7.6400    6.9610   12.1350 C.ar  188  PHE188     -0.0000
     16  N         -3.8010    7.2690   23.4590 N.3   192  PRO192     -0.2116
     17  CA        -3.8690    8.7280   23.7090 C.3   192  PRO192      0.1372
     18  C         -2.6000    9.2860   24.3780 C.2   192  PRO192      0.2244
     19  O         -2.0630   10.2690   23.8850 O.2   192  PRO192     -0.2868
     20  CB        -5.1330    8.9080   24.5540 C.3   192  PRO192      0.0268
     21  CG        -5.9240    7.6950   24.3340 C.3   192  PRO192      0.0207
     22  CD        -5.0130    6.5760   23.9450 C.3   192  PRO192      0.0892
     23  N          0.4780    9.3420   22.0120 N.3   195  ARG195     -0.1245
     24  CA         0.2910   10.4390   21.0550 C.3   195  ARG195      0.1563
     25  C          0.8060   11.7670   21.6390 C.2   195  ARG195      0.2260
     26  O          1.4500   12.5270   20.9130 O.2   195  ARG195     -0.2867
     27  CB        -1.1870   10.5650   20.6300 C.3   195  ARG195      0.0307
     28  CG        -1.4500   11.6470   19.5830 C.3   195  ARG195      0.0489
     29  CD        -2.9120   11.7210   19.2140 C.3   195  ARG195      0.2205
     30  NE        -3.2020   12.8400   18.3130 N.pl3 195  ARG195     -0.0865
     31  CZ        -3.2750   12.7420   16.9890 C.cat 195  ARG195      0.5346
     32  NH1       -3.0660   11.5790   16.3890 N.pl3 195  ARG195      0.1354
     33  NH2       -3.5440   13.8100   16.2530 N.pl3 195  ARG195      0.1354
     34  N         -3.9710   10.4760   10.3670 N.3   311  ASN311     -0.1240
     35  CA        -5.0190    9.5280   10.7620 C.3   311  ASN311      0.1653
     36  C         -6.2470    9.9560    9.9530 C.2   311  ASN311      0.2266
     37  O         -6.8490   10.9790   10.2730 O.2   311  ASN311     -0.2867
     38  CB        -5.3210    9.5950   12.2720 C.3   311  ASN311      0.1155
     39  CG        -4.6980   10.7370   13.0180 C.2   311  ASN311      0.2627
     40  OD1       -3.6880   10.5710   13.6860 O.2   311  ASN311     -0.2716
     41  ND2       -5.2740   11.9240   12.8970 N.am  311  ASN311     -0.0877
     42  N         -6.8570   19.1450   15.9770 N.3   360  SER360     -0.1202
     43  CA        -6.9930   18.0070   15.0710 C.3   360  SER360      0.2020
     44  C         -7.7420   16.9210   15.7960 C.2   360  SER360      0.2619
     45  O         -7.5880   16.7690   17.0100 O.2   360  SER360     -0.2717
     46  CB        -5.6370   17.4870   14.6140 C.3   360  SER360      0.2103
     47  OG        -5.7800   16.6040   13.5120 O.3   360  SER360     -0.2182
     48  N         -8.5800   16.1810   15.0560 N.am  361  CYS361     -0.1969
     49  CA        -9.4340   15.1130   15.5860 C.3   361  CYS361      0.1712
     50  C        -10.4190   15.6840   16.6130 C.2   361  CYS361      0.2296
     51  O        -10.7330   15.0220   17.6070 O.2   361  CYS361     -0.2864
     52  CB        -8.6030   13.9660   16.1640 C.3   361  CYS361      0.0983
     53  SG        -7.2790   13.3950   15.0730 S.3   361  CYS361     -0.0798
     54  N         -9.9000   17.7960   18.7840 N.3   363  SER363     -0.1217
     55  CA        -9.1540   17.8140   20.0400 C.3   363  SER363      0.1889
     56  C         -8.0070   18.8310   20.0660 C.2   363  SER363      0.2288
     57  O         -7.6540   19.4110   19.0330 O.2   363  SER363     -0.2866
     58  CB        -8.5450   16.4330   20.2860 C.3   363  SER363      0.2089
     59  OG        -9.5070   15.3970   20.2510 O.3   363  SER363     -0.2183
     60  N         -4.5500   15.0940   26.2850 N.3   379  LEU379     -0.1245
     61  CA        -5.4310   15.4330   25.1720 C.3   379  LEU379      0.1561
     62  C         -6.8630   15.6420   25.6470 C.2   379  LEU379      0.2260
     63  O         -7.4260   14.7990   26.3570 O.2   379  LEU379     -0.2867
     64  CB        -5.3830   14.3660   24.0750 C.3   379  LEU379      0.0270
     65  CG        -4.1100   14.3110   23.2620 C.3   379  LEU379      0.0019
     66  CD1       -3.8890   12.9270   22.7010 C.3   379  LEU379      0.0001
     67  CD2       -4.1210   15.3540   22.1820 C.3   379  LEU379      0.0001
     68  N        -10.8460   18.0030   24.5330 N.3   381  ARG381     -0.1245
     69  CA       -11.7490   18.4290   23.4660 C.3   381  ARG381      0.1563
     70  C        -12.9410   19.1870   24.0730 C.2   381  ARG381      0.2260
     71  O        -13.1460   19.1290   25.2900 O.2   381  ARG381     -0.2867
     72  CB       -12.2310   17.2090   22.6450 C.3   381  ARG381      0.0307
     73  CG       -13.2660   16.3030   23.3190 C.3   381  ARG381      0.0489
     74  CD       -14.0440   15.4990   22.2950 C.3   381  ARG381      0.2205
     75  NE       -15.0410   16.2960   21.5770 N.pl3 381  ARG381     -0.0865
     76  CZ       -15.4180   16.0680   20.3220 C.cat 381  ARG381      0.5346
     77  NH1      -14.8900   15.0660   19.6340 N.pl3 381  ARG381      0.1354
     78  NH2      -16.3250   16.8410   19.7440 N.pl3 381  ARG381      0.1354
     79  N        -21.1730    5.9090   23.3100 N.3   402  SER402     -0.1217
     80  CA       -20.1960    6.9800   23.1250 C.3   402  SER402      0.1889
     81  C        -19.5450    7.4060   24.4340 C.2   402  SER402      0.2288
     82  O        -18.3420    7.6620   24.4520 O.2   402  SER402     -0.2866
     83  CB       -20.8080    8.1700   22.3930 C.3   402  SER402      0.2089
     84  OG       -21.7380    8.8830   23.1860 O.3   402  SER402     -0.2183
     85  N        -16.6340    5.1320   25.3070 N.3   405  GLY405     -0.1210
     86  CA       -15.5140    5.4390   24.4250 C.3   405  GLY405      0.1956
     87  C        -14.8010    6.6950   24.8760 C.2   405  GLY405      0.2611
     88  O        -13.5720    6.7130   24.9400 O.2   405  GLY405     -0.2717
     89  N        -15.5850    7.7280   25.2560 N.am  406  ASN406     -0.1974
     90  CA       -15.1170    9.0180   25.7750 C.3   406  ASN406      0.1688
     91  C        -14.4390    8.9170   27.1410 C.2   406  ASN406      0.2292
     92  O        -13.5160    9.6830   27.3980 O.2   406  ASN406     -0.2864
     93  CB       -16.2490   10.0520   25.8050 C.3   406  ASN406      0.1181
     94  CG       -16.5050   10.7220   24.4730 C.2   406  ASN406      0.2629
     95  OD1      -15.5780   11.1300   23.7710 O.2   406  ASN406     -0.2716
     96  ND2      -17.7720   10.9000   24.1200 N.am  406  ASN406     -0.0877
     97  N        -10.9310    7.1620   26.1240 N.3   409  MET409     -0.1230
     98  CA       -10.0320    8.0650   25.3930 C.3   409  MET409      0.1702
     99  C         -9.7730    9.4280   26.0710 C.2   409  MET409      0.2592
    100  O         -8.6840    9.9770   25.9070 O.2   409  MET409     -0.2718
    101  CB       -10.4990    8.2690   23.9450 C.3   409  MET409      0.0401
    102  CG       -10.5710    6.9770   23.1150 C.3   409  MET409      0.0596
    103  SD        -9.0350    6.0230   23.0180 S.3   409  MET409     -0.1393
    104  CE        -8.3210    6.7060   21.5700 C.3   409  MET409      0.0692
    105  N        -10.7380    9.9730   26.8110 N.am  410  TYR410     -0.1976
    106  CA       -10.5420   11.2590   27.4830 C.3   410  TYR410      0.1639
    107  C        -10.5230   11.1510   29.0030 C.2   410  TYR410      0.2290
    108  O        -10.8470   12.1180   29.6930 O.2   410  TYR410     -0.2864
    109  CB       -11.5680   12.2970   27.0180 C.3   410  TYR410      0.0560
    110  CG       -11.4440   12.6580   25.5610 C.ar  410  TYR410     -0.0198
    111  CD1      -10.4640   13.5430   25.1230 C.ar  410  TYR410     -0.0009
    112  CD2      -12.3260   12.1400   24.6180 C.ar  410  TYR410     -0.0009
    113  CE1      -10.3460   13.8800   23.7760 C.ar  410  TYR410      0.0417
    114  CE2      -12.2260   12.4790   23.2700 C.ar  410  TYR410      0.0417
    115  CZ       -11.2350   13.3500   22.8540 C.ar  410  TYR410      0.1957
    116  OH       -11.1490   13.6880   21.5300 O.3   410  TYR410     -0.2866
    117  N        -16.6800    2.3980   20.3690 N.3   441  GLN441     -0.1231
    118  CA       -15.7700    2.6220   19.2500 C.3   441  GLN441      0.1698
    119  C        -14.4230    3.2390   19.6430 C.2   441  GLN441      0.2592
    120  O        -14.3680    4.3010   20.2700 O.2   441  GLN441     -0.2718
    121  CB       -16.4370    3.4390   18.1410 C.3   441  GLN441      0.0381
    122  CG       -17.2640    2.5780   17.2000 C.3   441  GLN441      0.0905
    123  CD       -17.7880    3.3520   16.0240 C.2   441  GLN441      0.2608
    124  OE1      -17.5320    4.5530   15.8680 O.2   441  GLN441     -0.2717
    125  NE2      -18.5330    2.6700   15.1580 N.am  441  GLN441     -0.0878
    126  N        -13.3350    2.5500   19.2610 N.am  442  ILE442     -0.1966
    127  CA       -11.9540    2.9840   19.4750 C.3   442  ILE442      0.1727
    128  C        -11.2710    2.9290   18.1050 C.2   442  ILE442      0.2616
    129  O        -11.1710    1.8490   17.5090 O.2   442  ILE442     -0.2715
    130  CB       -11.2380    2.1700   20.6040 C.3   442  ILE442      0.0290
    131  CG1      -11.7920    2.5680   21.9940 C.3   442  ILE442      0.0022
    132  CG2       -9.7050    2.3480   20.5730 C.3   442  ILE442      0.0023
    133  CD1      -11.9200    1.4290   22.9550 C.3   442  ILE442      0.0001
    134  N        -10.8770    4.1160   17.5760 N.am  443  TYR443     -0.1960
    135  CA       -10.2350    4.3000   16.2610 C.3   443  TYR443      0.1771
    136  C        -11.0200    3.6480   15.1110 C.2   443  TYR443      0.2620
    137  O        -10.4190    3.0380   14.2150 O.2   443  TYR443     -0.2715
    138  CB        -8.7710    3.8170   16.2710 C.3   443  TYR443      0.0574
    139  CG        -7.8010    4.6810   17.0460 C.ar  443  TYR443     -0.0198
    140  CD1       -8.1220    5.9930   17.3930 C.ar  443  TYR443     -0.0009
    141  CD2       -6.5350    4.2100   17.3840 C.ar  443  TYR443     -0.0009
    142  CE1       -7.2240    6.7980   18.0880 C.ar  443  TYR443      0.0417
    143  CE2       -5.6190    5.0180   18.0600 C.ar  443  TYR443      0.0417
    144  CZ        -5.9710    6.3110   18.4110 C.ar  443  TYR443      0.1957
    145  OH        -5.0870    7.1110   19.0830 O.3   443  TYR443     -0.2866
    146  N        -12.3500    3.7570   15.1700 N.am  444  GLY444     -0.1954
    147  CA       -13.2350    3.2000   14.1540 C.3   444  GLY444      0.1869
    148  C        -13.6100    1.7410   14.3220 C.2   444  GLY444      0.2309
    149  O        -14.5170    1.2670   13.6330 O.2   444  GLY444     -0.2863
@<TRIPOS>BOND
     1    36    37    2
     2    36    35    1
     3    34    35    1
     4    35    38    1
     5    14    12   ar
     6    14    15   ar
     7    12    10   ar
     8    15    13   ar
     9    38    39    1
    10    41    39   am
    11     1     2    1
    12    39    40    2
    13    10     9    1
    14    10    11   ar
    15    13    11   ar
    16    47    46    1
    17   149   148    2
    18     9     6    1
    19   147   148    1
    20   147   146    1
    21     5     6    1
    22     5     3   am
    23   137   136    2
    24     2     3    1
    25    46    43    1
    26     6     7    1
    27     3     4    2
    28    48    49    1
    29    48    44   am
    30    43    44    1
    31    43    42    1
    32    53    52    1
    33   136   146   am
    34   136   135    1
    35   125   123   am
    36     7     8    2
    37    49    52    1
    38    49    50    1
    39    44    45    2
    40   124   123    2
    41   123   122    1
    42    33    31    1
    43   135   138    1
    44   135   134    1
    45   138   139    1
    46    32    31    1
    47    50    51    2
    48    31    30    2
    49   139   141   ar
    50   139   140   ar
    51   122   121    1
    52   141   143   ar
    53   140   142   ar
    54   129   128    2
    55   134   128   am
    56   143   144   ar
    57   142   144   ar
    58   128   127    1
    59   121   118    1
    60    30    29    1
    61   144   145    1
    62    54    55    1
    63    57    56    2
    64    29    28    1
    65   118   119    1
    66   118   117    1
    67   126   127    1
    68   126   119   am
    69   127   130    1
    70    28    27    1
    71    77    76    1
    72   119   120    2
    73    78    76    1
    74    55    56    1
    75    55    58    1
    76    59    58    1
    77    76    75    2
    78   132   130    1
    79   130   131    1
    80    27    24    1
    81    26    25    2
    82    24    25    1
    83    24    23    1
    84   116   115    1
    85   104   103    1
    86    75    74    1
    87   131   133    1
    88    67    65    1
    89    74    73    1
    90    83    80    1
    91    83    84    1
    92    72    73    1
    93    72    69    1
    94    66    65    1
    95   115   114   ar
    96   115   113   ar
    97   103   102    1
    98   102   101    1
    99    80    79    1
   100    80    81    1
   101    65    64    1
   102   114   112   ar
   103    16    17    1
   104    16    22    1
   105    69    70    1
   106    69    68    1
   107    17    18    1
   108    17    20    1
   109    95    94    2
   110   113   111   ar
   111    19    18    2
   112   101    98    1
   113    22    21    1
   114    70    71    2
   115    64    61    1
   116    96    94   am
   117    21    20    1
   118    86    87    1
   119    86    85    1
   120    81    82    2
   121    94    93    1
   122   112   110   ar
   123    87    88    2
   124    87    89   am
   125   111   110   ar
   126    61    62    1
   127    61    60    1
   128    89    90    1
   129    98    99    1
   130    98    97    1
   131   110   109    1
   132    62    63    2
   133    90    93    1
   134    90    91    1
   135   100    99    2
   136    99   105   am
   137   105   106    1
   138   109   106    1
   139    91    92    2
   140   106   107    1
   141   107   108    2
