@<TRIPOS>MOLECULE
tmp/4mk9A00.pdb
 186 175 0 0 0
SMALL
GASTEIGER

@<TRIPOS>ATOM
      1  N        -23.7410   13.1280    2.0850 N.3   153  ARG153     -0.1245
      2  CA       -22.6670   12.6270    1.2320 C.3   153  ARG153      0.1563
      3  C        -23.2370   11.3840    0.5080 C.2   153  ARG153      0.2260
      4  O        -24.1910   10.7670    0.9860 O.2   153  ARG153     -0.2867
      5  CB       -21.4160   12.2420    2.0410 C.3   153  ARG153      0.0307
      6  CG       -20.6520   13.4370    2.6040 C.3   153  ARG153      0.0489
      7  CD       -19.2210   13.0650    2.9320 C.3   153  ARG153      0.2205
      8  NE       -19.1500   12.0090    3.9440 N.pl3 153  ARG153     -0.0865
      9  CZ       -18.0570   11.3050    4.2230 C.cat 153  ARG153      0.5346
     10  NH1      -16.9220   11.5380    3.5690 N.pl3 153  ARG153      0.1354
     11  NH2      -18.0900   10.3580    5.1550 N.pl3 153  ARG153      0.1354
     12  N         -1.7020    5.6220    6.6510 N.3   188  PHE188     -0.1241
     13  CA        -2.4990    4.5770    7.2970 C.3   188  PHE188      0.1605
     14  C         -1.6710    3.4710    7.9520 C.2   188  PHE188      0.2264
     15  O         -2.2500    2.6030    8.5930 O.2   188  PHE188     -0.2867
     16  CB        -3.5640    4.0180    6.3220 C.3   188  PHE188      0.0534
     17  CG        -4.6430    4.9840    5.8640 C.ar  188  PHE188     -0.0203
     18  CD1       -5.5360    5.5460    6.7770 C.ar  188  PHE188     -0.0042
     19  CD2       -4.8100    5.2790    4.5140 C.ar  188  PHE188     -0.0042
     20  CE1       -6.5480    6.4210    6.3450 C.ar  188  PHE188     -0.0003
     21  CE2       -5.8470    6.1290    4.0800 C.ar  188  PHE188     -0.0003
     22  CZ        -6.7030    6.6890    4.9980 C.ar  188  PHE188     -0.0000
     23  N         -2.4040    6.6360   16.0270 N.3   192  PRO192     -0.2116
     24  CA        -2.3260    8.1090   16.2380 C.3   192  PRO192      0.1372
     25  C         -0.9770    8.5780   16.8490 C.2   192  PRO192      0.2244
     26  O         -0.4460    9.6170   16.4550 O.2   192  PRO192     -0.2868
     27  CB        -3.5360    8.4020   17.1510 C.3   192  PRO192      0.0268
     28  CG        -4.5010    7.2690   16.8410 C.3   192  PRO192      0.0207
     29  CD        -3.5970    6.0600   16.6880 C.3   192  PRO192      0.0892
     30  N          1.6710    8.6010   14.2490 N.3   195  ARG195     -0.1245
     31  CA         1.4460    9.7210   13.3240 C.3   195  ARG195      0.1563
     32  C          2.0130   11.0230   13.9200 C.2   195  ARG195      0.2260
     33  O          2.6300   11.8130   13.2050 O.2   195  ARG195     -0.2867
     34  CB        -0.0480    9.8570   12.9670 C.3   195  ARG195      0.0307
     35  CG        -0.3330   11.0140   12.0080 C.3   195  ARG195      0.0489
     36  CD        -1.8210   11.2570   11.8700 C.3   195  ARG195      0.2205
     37  NE        -2.0930   12.3580   10.9520 N.pl3 195  ARG195     -0.0865
     38  CZ        -2.1920   12.2340    9.6310 C.cat 195  ARG195      0.5346
     39  NH1       -2.0730   11.0360    9.0530 N.pl3 195  ARG195      0.1354
     40  NH2       -2.4230   13.2960    8.8770 N.pl3 195  ARG195      0.1354
     41  N        -11.0690    2.3830   -3.0950 N.3   282  THR282     -0.1203
     42  CA       -11.3210    3.8050   -2.8060 C.3   282  THR282      0.1994
     43  C        -10.1360    4.4680   -2.0610 C.2   282  THR282      0.2618
     44  O         -9.5730    5.4230   -2.5620 O.2   282  THR282     -0.2717
     45  CB       -12.6660    4.0290   -2.0860 C.3   282  THR282      0.1784
     46  OG1      -13.7400    3.5860   -2.9290 O.3   282  THR282     -0.2211
     47  CG2      -12.8980    5.5250   -1.7100 C.3   282  THR282      0.0376
     48  N         -9.7660    3.9460   -0.9040 N.am  283  SER283     -0.1951
     49  CA        -8.6880    4.4670   -0.0600 C.3   283  SER283      0.1924
     50  C         -7.3150    4.4230   -0.7260 C.2   283  SER283      0.2314
     51  O         -6.6470    5.4620   -0.8000 O.2   283  SER283     -0.2863
     52  CB        -8.6740    3.7380    1.2810 C.3   283  SER283      0.2116
     53  OG        -7.6210    4.2020    2.1060 O.3   283  SER283     -0.2180
     54  N         -7.2860    6.6020   -3.8910 N.3   286  ASN286     -0.1240
     55  CA        -7.2360    8.0050   -3.4810 C.3   286  ASN286      0.1653
     56  C         -5.8590    8.3980   -2.9690 C.2   286  ASN286      0.2266
     57  O         -5.3760    9.4620   -3.3330 O.2   286  ASN286     -0.2867
     58  CB        -8.3170    8.3520   -2.4480 C.3   286  ASN286      0.1155
     59  CG        -9.6710    8.5600   -3.0510 C.2   286  ASN286      0.2627
     60  OD1       -9.8500    8.5700   -4.2820 O.2   286  ASN286     -0.2716
     61  ND2      -10.6530    8.7610   -2.1970 N.am  286  ASN286     -0.0877
     62  N         -3.2160   10.3930    3.3170 N.3   311  ASN311     -0.1225
     63  CA        -4.2530    9.4830    3.8130 C.3   311  ASN311      0.1785
     64  C         -5.4360    9.6590    2.8930 C.2   311  ASN311      0.2598
     65  O         -6.2090   10.5870    3.0960 O.2   311  ASN311     -0.2718
     66  CB        -4.6920    9.9010    5.2420 C.3   311  ASN311      0.1169
     67  CG        -3.6600    9.6100    6.2630 C.2   311  ASN311      0.2627
     68  OD1       -2.7140   10.3640    6.4330 O.2   311  ASN311     -0.2716
     69  ND2       -3.7830    8.4620    6.9000 N.am  311  ASN311     -0.0877
     70  N         -5.5810    8.7930    1.8940 N.am  312  GLY312     -0.1942
     71  CA        -6.6630    8.9380    0.9360 C.3   312  GLY312      0.2014
     72  C         -6.5700   10.2960    0.2750 C.2   312  GLY312      0.2639
     73  O         -5.5110   10.6810   -0.2260 O.2   312  GLY312     -0.2714
     74  N         -7.6410   11.0770    0.3930 N.am  313  ASP313     -0.1957
     75  CA        -7.7040   12.4290   -0.1500 C.3   313  ASP313      0.1840
     76  C         -7.1130   13.4840    0.7960 C.2   313  ASP313      0.2622
     77  O         -7.0750   14.6610    0.4380 O.2   313  ASP313     -0.2715
     78  CB        -9.1530   12.7790   -0.5060 C.3   313  ASP313      0.1450
     79  CG       -10.1460   12.8280    0.6490 C.2   313  ASP313      0.3671
     80  OD1       -9.8770   12.2000    1.6940 O.co2 313  ASP313     -0.2456
     81  OD2      -11.2210   13.4420    0.4780 O.co2 313  ASP313     -0.2456
     82  N         -6.6460   13.0800    1.9890 N.am  314  ASP314     -0.1971
     83  CA        -6.0660   14.0360    2.9310 C.3   314  ASP314      0.1709
     84  C         -4.5530   14.1400    2.7580 C.2   314  ASP314      0.2293
     85  O         -3.8420   13.1320    2.7990 O.2   314  ASP314     -0.2864
     86  CB        -6.4460   13.7290    4.3790 C.3   314  ASP314      0.1436
     87  CG        -6.1390   14.8740    5.3310 C.2   314  ASP314      0.3671
     88  OD1       -4.9550   15.0290    5.7190 O.co2 314  ASP314     -0.2456
     89  OD2       -7.0790   15.6010    5.7060 O.co2 314  ASP314     -0.2456
     90  N         -6.6750   15.5520    8.5400 N.3   361  CYS361     -0.1235
     91  CA        -7.5450   14.4420    8.9470 C.3   361  CYS361      0.1677
     92  C         -8.3890   14.9320   10.1430 C.2   361  CYS361      0.2270
     93  O         -8.5520   14.2120   11.1360 O.2   361  CYS361     -0.2867
     94  CB        -6.7300   13.1970    9.2940 C.3   361  CYS361      0.0956
     95  SG        -5.7330   12.5460    7.9180 S.3   361  CYS361     -0.0801
     96  N         -7.6830   16.8140   12.4410 N.3   363  SER363     -0.1217
     97  CA        -6.8990   16.7440   13.6540 C.3   363  SER363      0.1889
     98  C         -5.6910   17.6530   13.6670 C.2   363  SER363      0.2288
     99  O         -5.2510   18.0970   12.6100 O.2   363  SER363     -0.2866
    100  CB        -6.4450   15.3070   13.8530 C.3   363  SER363      0.2089
    101  OG        -7.5810   14.4840   14.0280 O.3   363  SER363     -0.2183
    102  N         -2.4750   13.5930   19.4570 N.3   379  LEU379     -0.1245
    103  CA        -3.4200   14.1300   18.4930 C.3   379  LEU379      0.1561
    104  C         -4.7580   14.3350   19.1430 C.2   379  LEU379      0.2260
    105  O         -5.2590   13.4850   19.8850 O.2   379  LEU379     -0.2867
    106  CB        -3.6030   13.2370   17.2540 C.3   379  LEU379      0.0270
    107  CG        -2.5270   13.2330   16.1860 C.3   379  LEU379      0.0019
    108  CD1       -2.6940   12.0230   15.2830 C.3   379  LEU379      0.0001
    109  CD2       -2.5100   14.5130   15.3660 C.3   379  LEU379      0.0001
    110  N        -19.6580    5.6750   16.8710 N.3   402  SER402     -0.1217
    111  CA       -18.5780    6.6660   16.7480 C.3   402  SER402      0.1889
    112  C        -17.9230    6.9580   18.0760 C.2   402  SER402      0.2288
    113  O        -16.7210    7.2120   18.0880 O.2   402  SER402     -0.2866
    114  CB       -19.0840    7.9620   16.1220 C.3   402  SER402      0.2089
    115  OG       -19.8750    8.6820   17.0490 O.3   402  SER402     -0.2183
    116  N        -15.1340    4.3840   18.6530 N.3   405  GLY405     -0.1210
    117  CA       -14.0410    4.6670   17.7360 C.3   405  GLY405      0.1956
    118  C        -13.2630    5.8840   18.2120 C.2   405  GLY405      0.2611
    119  O        -12.0320    5.8670   18.2110 O.2   405  GLY405     -0.2717
    120  N        -13.9810    6.9300   18.6810 N.am  406  ASN406     -0.1974
    121  CA       -13.3610    8.1650   19.1790 C.3   406  ASN406      0.1688
    122  C        -12.5910    7.9840   20.4900 C.2   406  ASN406      0.2292
    123  O        -11.5310    8.5850   20.6330 O.2   406  ASN406     -0.2864
    124  CB       -14.3650    9.3000   19.2760 C.3   406  ASN406      0.1181
    125  CG       -14.6050    9.9410   17.9420 C.2   406  ASN406      0.2629
    126  OD1      -13.6910   10.0680   17.1060 O.2   406  ASN406     -0.2716
    127  ND2      -15.8350   10.3420   17.7050 N.am  406  ASN406     -0.0877
    128  N         -9.2700    6.0800   19.2350 N.3   409  MET409     -0.1230
    129  CA        -8.3640    6.9240   18.4740 C.3   409  MET409      0.1702
    130  C         -7.9160    8.1830   19.2280 C.2   409  MET409      0.2592
    131  O         -6.7750    8.6330   19.0460 O.2   409  MET409     -0.2718
    132  CB        -8.9810    7.2460   17.1050 C.3   409  MET409      0.0401
    133  CG        -9.2280    5.9950   16.2660 C.3   409  MET409      0.0596
    134  SD        -7.7210    5.0190   15.9450 S.3   409  MET409     -0.1393
    135  CE        -7.0790    5.9140   14.5130 C.3   409  MET409      0.0692
    136  N         -8.7910    8.7370   20.0870 N.am  410  TYR410     -0.1976
    137  CA        -8.4830    9.9610   20.8270 C.3   410  TYR410      0.1639
    138  C         -8.4350    9.7650   22.3290 C.2   410  TYR410      0.2290
    139  O         -8.6140   10.7350   23.0710 O.2   410  TYR410     -0.2864
    140  CB        -9.4430   11.1000   20.4470 C.3   410  TYR410      0.0560
    141  CG        -9.3780   11.5110   18.9950 C.ar  410  TYR410     -0.0198
    142  CD1       -8.3240   12.2830   18.5160 C.ar  410  TYR410     -0.0009
    143  CD2      -10.3770   11.1360   18.1000 C.ar  410  TYR410     -0.0009
    144  CE1       -8.2480   12.6490   17.1750 C.ar  410  TYR410      0.0417
    145  CE2      -10.3150   11.4940   16.7550 C.ar  410  TYR410      0.0417
    146  CZ        -9.2460   12.2530   16.3000 C.ar  410  TYR410      0.1957
    147  OH        -9.2150   12.6720   15.0090 O.3   410  TYR410     -0.2866
    148  N        -15.3740    1.6350   13.6000 N.3   441  GLN441     -0.1231
    149  CA       -14.5220    1.6660   12.4140 C.3   441  GLN441      0.1698
    150  C        -13.2040    2.3310   12.7630 C.2   441  GLN441      0.2592
    151  O        -13.2030    3.3770   13.4200 O.2   441  GLN441     -0.2718
    152  CB       -15.2160    2.4140   11.2470 C.3   441  GLN441      0.0381
    153  CG       -16.3940    1.6480   10.6650 C.3   441  GLN441      0.0905
    154  CD       -16.8810    2.1930    9.3450 C.2   441  GLN441      0.2608
    155  OE1      -16.9760    3.4040    9.1290 O.2   441  GLN441     -0.2717
    156  NE2      -17.2410    1.2920    8.4410 N.am  441  GLN441     -0.0878
    157  N        -12.0890    1.7010   12.3530 N.am  442  ILE442     -0.1966
    158  CA       -10.7180    2.2110   12.5000 C.3   442  ILE442      0.1727
    159  C        -10.1220    2.1940   11.1070 C.2   442  ILE442      0.2616
    160  O         -9.9720    1.1210   10.5140 O.2   442  ILE442     -0.2715
    161  CB        -9.8360    1.4240   13.4900 C.3   442  ILE442      0.0290
    162  CG1      -10.4970    1.3270   14.8960 C.3   442  ILE442      0.0022
    163  CG2       -8.4650    2.1000   13.5880 C.3   442  ILE442      0.0023
    164  CD1      -10.1470    0.1020   15.6160 C.3   442  ILE442      0.0001
    165  N         -9.7780    3.3740   10.5900 N.am  443  TYR443     -0.1960
    166  CA        -9.2590    3.5610    9.2250 C.3   443  TYR443      0.1771
    167  C        -10.1530    2.8740    8.1680 C.2   443  TYR443      0.2620
    168  O         -9.6470    2.2220    7.2520 O.2   443  TYR443     -0.2715
    169  CB        -7.7570    3.1540    9.0830 C.3   443  TYR443      0.0574
    170  CG        -6.7610    3.9900    9.8620 C.ar  443  TYR443     -0.0198
    171  CD1       -7.1180    5.2330   10.3830 C.ar  443  TYR443     -0.0009
    172  CD2       -5.4210    3.6080    9.9530 C.ar  443  TYR443     -0.0009
    173  CE1       -6.1950    6.0320   11.0500 C.ar  443  TYR443      0.0417
    174  CE2       -4.4810    4.4050   10.6220 C.ar  443  TYR443      0.0417
    175  CZ        -4.8730    5.6220   11.1570 C.ar  443  TYR443      0.1957
    176  OH        -3.9720    6.4160   11.8230 O.3   443  TYR443     -0.2866
    177  N        -11.4700    2.9970    8.3530 N.am  444  GLY444     -0.1954
    178  CA       -12.5030    2.4840    7.4590 C.3   444  GLY444      0.1869
    179  C        -12.8480    1.0150    7.6190 C.2   444  GLY444      0.2309
    180  O        -13.8560    0.5690    7.0810 O.2   444  GLY444     -0.2863
    181  N        -11.6200    2.8230    3.8180 N.3   551  SER551     -0.1217
    182  CA       -12.8870    3.5730    3.7520 C.3   551  SER551      0.1889
    183  C        -13.7230    3.1830    2.5240 C.2   551  SER551      0.2288
    184  O        -13.2130    3.2110    1.4170 O.2   551  SER551     -0.2866
    185  CB       -12.6340    5.0780    3.7630 C.3   551  SER551      0.2089
    186  OG       -13.8440    5.7960    3.5600 O.3   551  SER551     -0.2183
@<TRIPOS>BOND
     1    60    59    2
     2    54    55    1
     3    55    56    1
     4    55    58    1
     5    57    56    2
     6    41    42    1
     7    59    58    1
     8    59    61   am
     9    46    45    1
    10    42    45    1
    11    42    43    1
    12    44    43    2
    13    45    47    1
    14    43    48   am
    15    48    49    1
    16    51    50    2
    17    50    49    1
    18    78    75    1
    19    78    79    1
    20    73    72    2
    21    75    74    1
    22    75    76    1
    23    49    52    1
    24    72    74   am
    25    72    71    1
    26    77    76    2
    27    81    79   ar
    28     3     4    2
    29     3     2    1
    30    79    80   ar
    31    76    82   am
    32    71    70    1
    33     2     5    1
    34     2     1    1
    35    52    53    1
    36   184   183    2
    37    70    64   am
    38    82    83    1
    39     5     6    1
    40   183   182    1
    41     6     7    1
    42    84    85    2
    43    84    83    1
    44    64    65    2
    45    64    63    1
    46    83    86    1
    47     7     8    1
    48    62    63    1
    49   186   185    1
    50    10     9    1
    51   182   185    1
    52   182   181    1
    53    63    66    1
    54     8     9    2
    55    21    19   ar
    56    21    22   ar
    57     9    11    1
    58    86    87    1
    59    19    17   ar
    60    22    20   ar
    61    66    67    1
    62    87    89   ar
    63    87    88   ar
    64    17    16    1
    65    17    18   ar
    66    67    68    2
    67    67    69   am
    68    16    13    1
    69    20    18   ar
    70    12    13    1
    71   180   179    2
    72   168   167    2
    73    13    14    1
    74   178   179    1
    75   178   177    1
    76    95    94    1
    77    14    15    2
    78   167   177   am
    79   167   166    1
    80   156   154   am
    81    90    91    1
    82    40    38    1
    83    91    94    1
    84    91    92    1
    85    39    38    1
    86   169   166    1
    87   169   170    1
    88   155   154    2
    89   166   165    1
    90   154   153    1
    91    38    37    2
    92   170   172   ar
    93   170   171   ar
    94   172   174   ar
    95    92    93    2
    96   171   173   ar
    97   160   159    2
    98   165   159   am
    99   174   175   ar
   100   153   152    1
   101    37    36    1
   102   173   175   ar
   103   159   158    1
   104   175   176    1
   105   152   149    1
   106    36    35    1
   107    35    34    1
   108   157   158    1
   109   157   150   am
   110   149   150    1
   111   149   148    1
   112    96    97    1
   113   158   161    1
   114    99    98    2
   115   150   151    2
   116    34    31    1
   117    33    32    2
   118    31    32    1
   119    31    30    1
   120   161   163    1
   121   161   162    1
   122    97    98    1
   123    97   100    1
   124   100   101    1
   125   135   134    1
   126   162   164    1
   127   147   146    1
   128   108   107    1
   129   109   107    1
   130   134   133    1
   131    23    24    1
   132    23    29    1
   133   114   111    1
   134   114   115    1
   135   107   106    1
   136    24    25    1
   137    24    27    1
   138   133   132    1
   139   146   145   ar
   140   146   144   ar
   141    26    25    2
   142    29    28    1
   143   111   110    1
   144   111   112    1
   145   145   143   ar
   146    28    27    1
   147   132   129    1
   148   126   125    2
   149   144   142   ar
   150   106   103    1
   151   127   125   am
   152   117   118    1
   153   117   116    1
   154   125   124    1
   155   112   113    2
   156   143   141   ar
   157   119   118    2
   158   118   120   am
   159   129   130    1
   160   129   128    1
   161   103   104    1
   162   103   102    1
   163   142   141   ar
   164   120   121    1
   165   141   140    1
   166   131   130    2
   167   104   105    2
   168   121   124    1
   169   121   122    1
   170   130   136   am
   171   136   137    1
   172   140   137    1
   173   122   123    2
   174   137   138    1
   175   138   139    2
