@<TRIPOS>MOLECULE
tmp/4mkaA00.pdb
 198 186 0 0 0
SMALL
GASTEIGER

@<TRIPOS>ATOM
      1  N        -23.8040   13.1260    1.6920 N.3   153  ARG153     -0.1245
      2  CA       -22.7120   12.6080    0.8690 C.3   153  ARG153      0.1563
      3  C        -23.2810   11.3700    0.1530 C.2   153  ARG153      0.2260
      4  O        -24.2350   10.7520    0.6430 O.2   153  ARG153     -0.2867
      5  CB       -21.4880   12.2130    1.7120 C.3   153  ARG153      0.0307
      6  CG       -20.7610   13.4160    2.3240 C.3   153  ARG153      0.0489
      7  CD       -19.3310   13.0810    2.6770 C.3   153  ARG153      0.2205
      8  NE       -19.2370   12.0370    3.7000 N.pl3 153  ARG153     -0.0865
      9  CZ       -18.1830   11.2430    3.8690 C.cat 153  ARG153      0.5346
     10  NH1      -17.1160   11.3660    3.0840 N.pl3 153  ARG153      0.1354
     11  NH2      -18.1880   10.3160    4.8220 N.pl3 153  ARG153      0.1354
     12  N         -0.0360    7.5480    5.2400 N.3   187  GLY187     -0.1210
     13  CA        -0.6120    7.8020    6.5560 C.3   187  GLY187      0.1956
     14  C         -1.2350    6.6440    7.3150 C.2   187  GLY187      0.2611
     15  O         -1.1620    6.6120    8.5460 O.2   187  GLY187     -0.2717
     16  N         -1.8660    5.6830    6.5980 N.am  188  PHE188     -0.1976
     17  CA        -2.6290    4.6180    7.2520 C.3   188  PHE188      0.1639
     18  C         -1.7680    3.5360    7.8960 C.2   188  PHE188      0.2290
     19  O         -2.3100    2.6840    8.5750 O.2   188  PHE188     -0.2864
     20  CB        -3.6890    4.0230    6.2840 C.3   188  PHE188      0.0560
     21  CG        -4.7560    4.9760    5.7920 C.ar  188  PHE188     -0.0200
     22  CD1       -5.6490    5.5720    6.6810 C.ar  188  PHE188     -0.0042
     23  CD2       -4.8850    5.2640    4.4340 C.ar  188  PHE188     -0.0042
     24  CE1       -6.6440    6.4500    6.2190 C.ar  188  PHE188     -0.0003
     25  CE2       -5.8980    6.1200    3.9730 C.ar  188  PHE188     -0.0003
     26  CZ        -6.7740    6.7010    4.8700 C.ar  188  PHE188     -0.0000
     27  N         -2.4260    6.6960   15.9340 N.3   192  PRO192     -0.2116
     28  CA        -2.3890    8.1670   16.1630 C.3   192  PRO192      0.1372
     29  C         -1.0580    8.6620   16.7680 C.2   192  PRO192      0.2244
     30  O         -0.5720    9.7270   16.3820 O.2   192  PRO192     -0.2868
     31  CB        -3.5830    8.4070   17.1060 C.3   192  PRO192      0.0268
     32  CG        -4.4950    7.2640   16.8400 C.3   192  PRO192      0.0207
     33  CD        -3.5840    6.0750   16.6170 C.3   192  PRO192      0.0892
     34  N          1.6270    8.7710   14.1080 N.3   195  ARG195     -0.1245
     35  CA         1.3670    9.8760   13.1770 C.3   195  ARG195      0.1563
     36  C          1.9270   11.1800   13.7650 C.2   195  ARG195      0.2260
     37  O          2.5240   11.9850   13.0460 O.2   195  ARG195     -0.2867
     38  CB        -0.1460    9.9930   12.8800 C.3   195  ARG195      0.0307
     39  CG        -0.4730   11.1340   11.9270 C.3   195  ARG195      0.0489
     40  CD        -1.9620   11.3460   11.7710 C.3   195  ARG195      0.2205
     41  NE        -2.2420   12.4730   10.8770 N.pl3 195  ARG195     -0.0865
     42  CZ        -2.3400   12.3640    9.5580 C.cat 195  ARG195      0.5346
     43  NH1       -2.1730   11.1830    8.9670 N.pl3 195  ARG195      0.1354
     44  NH2       -2.5990   13.4350    8.8160 N.pl3 195  ARG195      0.1354
     45  N        -13.3720   12.5830   -5.0610 N.3   220  ASP220     -0.1239
     46  CA       -13.8580   11.4640   -5.8900 C.3   220  ASP220      0.1674
     47  C        -14.2970   11.8980   -7.2960 C.2   220  ASP220      0.2266
     48  O        -14.0190   11.1950   -8.2570 O.2   220  ASP220     -0.2867
     49  CB       -14.9920   10.7130   -5.1920 C.3   220  ASP220      0.1410
     50  CG       -14.5300    9.9260   -3.9830 C.2   220  ASP220      0.3668
     51  OD1      -13.3060    9.9170   -3.7050 O.co2 220  ASP220     -0.2456
     52  OD2      -15.3770    9.3460   -3.3070 O.co2 220  ASP220     -0.2456
     53  N        -11.1360    2.3310   -3.2460 N.3   282  THR282     -0.1203
     54  CA       -11.3870    3.7640   -3.0150 C.3   282  THR282      0.1994
     55  C        -10.2320    4.4460   -2.2390 C.2   282  THR282      0.2618
     56  O         -9.6790    5.4340   -2.7180 O.2   282  THR282     -0.2717
     57  CB       -12.7630    4.0310   -2.3510 C.3   282  THR282      0.1784
     58  OG1      -13.7970    3.5530   -3.2170 O.3   282  THR282     -0.2211
     59  CG2      -13.0020    5.5390   -2.0750 C.3   282  THR282      0.0376
     60  N         -9.8580    3.8910   -1.0910 N.am  283  SER283     -0.1951
     61  CA        -8.8170    4.4400   -0.2250 C.3   283  SER283      0.1924
     62  C         -7.4460    4.4260   -0.8860 C.2   283  SER283      0.2314
     63  O         -6.8090    5.4840   -0.9690 O.2   283  SER283     -0.2863
     64  CB        -8.7900    3.7160    1.1150 C.3   283  SER283      0.2116
     65  OG        -7.7740    4.2580    1.9420 O.3   283  SER283     -0.2180
     66  N         -7.3750    6.6220   -4.0900 N.3   286  ASN286     -0.1240
     67  CA        -7.3380    8.0320   -3.6990 C.3   286  ASN286      0.1653
     68  C         -5.9770    8.4460   -3.1680 C.2   286  ASN286      0.2266
     69  O         -5.4800    9.4900   -3.5750 O.2   286  ASN286     -0.2867
     70  CB        -8.4530    8.3830   -2.6800 C.3   286  ASN286      0.1155
     71  CG        -9.7800    8.5760   -3.3340 C.2   286  ASN286      0.2627
     72  OD1       -9.9010    8.5470   -4.5660 O.2   286  ASN286     -0.2716
     73  ND2      -10.8180    8.7140   -2.5280 N.am  286  ASN286     -0.0877
     74  N         -3.4040   10.3710    3.2290 N.3   311  ASN311     -0.1225
     75  CA        -4.4150    9.4350    3.7230 C.3   311  ASN311      0.1785
     76  C         -5.6050    9.6420    2.8210 C.2   311  ASN311      0.2598
     77  O         -6.3510   10.5820    3.0510 O.2   311  ASN311     -0.2718
     78  CB        -4.8440    9.8290    5.1570 C.3   311  ASN311      0.1169
     79  CG        -3.8240    9.6030    6.2130 C.2   311  ASN311      0.2627
     80  OD1       -2.9010   10.3810    6.3760 O.2   311  ASN311     -0.2716
     81  ND2       -4.0310    8.5680    7.0120 N.am  311  ASN311     -0.0877
     82  N         -5.7760    8.8110    1.7950 N.am  312  GLY312     -0.1942
     83  CA        -6.8630    8.9960    0.8390 C.3   312  GLY312      0.2014
     84  C         -6.7060   10.3570    0.1800 C.2   312  GLY312      0.2639
     85  O         -5.6100   10.7170   -0.2540 O.2   312  GLY312     -0.2714
     86  N         -7.7600   11.1680    0.2260 N.am  313  ASP313     -0.1957
     87  CA        -7.7450   12.5280   -0.3180 C.3   313  ASP313      0.1840
     88  C         -7.1770   13.5540    0.6790 C.2   313  ASP313      0.2622
     89  O         -7.0680   14.7380    0.3380 O.2   313  ASP313     -0.2715
     90  CB        -9.1680   12.9270   -0.7290 C.3   313  ASP313      0.1450
     91  CG       -10.2040   13.0040    0.3890 C.2   313  ASP313      0.3671
     92  OD1       -9.9870   12.3770    1.4550 O.co2 313  ASP313     -0.2456
     93  OD2      -11.2510   13.6510    0.1780 O.co2 313  ASP313     -0.2456
     94  N         -6.8360   13.1110    1.9070 N.am  314  ASP314     -0.1971
     95  CA        -6.2930   14.0180    2.9150 C.3   314  ASP314      0.1709
     96  C         -4.7810   14.1500    2.7790 C.2   314  ASP314      0.2293
     97  O         -4.0560   13.1580    2.8930 O.2   314  ASP314     -0.2864
     98  CB        -6.6970   13.6010    4.3270 C.3   314  ASP314      0.1436
     99  CG        -6.4870   14.7210    5.3170 C.2   314  ASP314      0.3671
    100  OD1       -5.3350   14.8910    5.7910 O.co2 314  ASP314     -0.2456
    101  OD2       -7.4600   15.4500    5.5950 O.co2 314  ASP314     -0.2456
    102  N         -6.7730   15.4530    8.4360 N.3   361  CYS361     -0.1235
    103  CA        -7.6300   14.3150    8.8210 C.3   361  CYS361      0.1677
    104  C         -8.4670   14.8010   10.0190 C.2   361  CYS361      0.2270
    105  O         -8.6410   14.0870   11.0180 O.2   361  CYS361     -0.2867
    106  CB        -6.8070   13.0760    9.1720 C.3   361  CYS361      0.0956
    107  SG        -5.9150   12.3330    7.7750 S.3   361  CYS361     -0.0801
    108  N         -7.7190   16.6310   12.2980 N.3   363  SER363     -0.1217
    109  CA        -6.9060   16.5560   13.4880 C.3   363  SER363      0.1889
    110  C         -5.7330   17.5070   13.5070 C.2   363  SER363      0.2288
    111  O         -5.4100   18.1100   12.4880 O.2   363  SER363     -0.2866
    112  CB        -6.4010   15.1340   13.6650 C.3   363  SER363      0.2089
    113  OG        -7.5160   14.2940   13.8810 O.3   363  SER363     -0.2183
    114  N         -2.4850   13.5430   19.3210 N.3   379  LEU379     -0.1245
    115  CA        -3.4500   14.0270   18.3430 C.3   379  LEU379      0.1561
    116  C         -4.7860   14.2960   18.9930 C.2   379  LEU379      0.2260
    117  O         -5.2780   13.5100   19.7930 O.2   379  LEU379     -0.2867
    118  CB        -3.6330   13.0670   17.1480 C.3   379  LEU379      0.0270
    119  CG        -2.6850   13.2350   15.9480 C.3   379  LEU379      0.0019
    120  CD1       -2.8340   12.0930   14.9760 C.3   379  LEU379      0.0001
    121  CD2       -2.8660   14.5450   15.2270 C.3   379  LEU379      0.0001
    122  N        -19.6210    5.6760   16.7430 N.3   402  SER402     -0.1217
    123  CA       -18.5410    6.6750   16.6160 C.3   402  SER402      0.1889
    124  C        -17.8950    6.9940   17.9350 C.2   402  SER402      0.2288
    125  O        -16.7000    7.2840   17.9410 O.2   402  SER402     -0.2866
    126  CB       -19.0360    7.9570   15.9410 C.3   402  SER402      0.2089
    127  OG       -19.8450    8.7010   16.8320 O.3   402  SER402     -0.2183
    128  N        -15.0580    4.4310   18.4960 N.3   405  GLY405     -0.1210
    129  CA       -13.9450    4.7100   17.5960 C.3   405  GLY405      0.1956
    130  C        -13.2070    5.9550   18.0700 C.2   405  GLY405      0.2611
    131  O        -11.9770    5.9820   18.0770 O.2   405  GLY405     -0.2717
    132  N        -13.9620    6.9760   18.5250 N.am  406  ASN406     -0.1974
    133  CA       -13.3920    8.2180   19.0520 C.3   406  ASN406      0.1688
    134  C        -12.6290    8.0030   20.3600 C.2   406  ASN406      0.2292
    135  O        -11.5410    8.5420   20.4920 O.2   406  ASN406     -0.2864
    136  CB       -14.4410    9.3320   19.1650 C.3   406  ASN406      0.1181
    137  CG       -14.6960    9.9700   17.8290 C.2   406  ASN406      0.2629
    138  OD1      -13.7910   10.1050   16.9990 O.2   406  ASN406     -0.2716
    139  ND2      -15.9380   10.3210   17.5550 N.am  406  ASN406     -0.0877
    140  N         -9.2850    6.1490   19.1580 N.3   409  MET409     -0.1230
    141  CA        -8.3660    6.9950   18.4100 C.3   409  MET409      0.1702
    142  C         -7.9330    8.2570   19.1540 C.2   409  MET409      0.2592
    143  O         -6.7980    8.7130   18.9640 O.2   409  MET409     -0.2718
    144  CB        -8.9560    7.3160   17.0350 C.3   409  MET409      0.0401
    145  CG        -9.2230    6.0530   16.2140 C.3   409  MET409      0.0596
    146  SD        -7.7290    5.0530   15.9250 S.3   409  MET409     -0.1393
    147  CE        -7.1110    5.9240   14.4460 C.3   409  MET409      0.0692
    148  N         -8.8210    8.8100   20.0080 N.am  410  TYR410     -0.1976
    149  CA        -8.5460   10.0220   20.7710 C.3   410  TYR410      0.1639
    150  C         -8.5100    9.8120   22.2790 C.2   410  TYR410      0.2290
    151  O         -8.7290   10.7710   23.0140 O.2   410  TYR410     -0.2864
    152  CB        -9.5240   11.1540   20.3870 C.3   410  TYR410      0.0560
    153  CG        -9.4330   11.5580   18.9360 C.ar  410  TYR410     -0.0198
    154  CD1       -8.4160   12.3980   18.4880 C.ar  410  TYR410     -0.0009
    155  CD2      -10.3500   11.0790   18.0000 C.ar  410  TYR410     -0.0009
    156  CE1       -8.2920   12.7240   17.1370 C.ar  410  TYR410      0.0417
    157  CE2      -10.2530   11.4210   16.6520 C.ar  410  TYR410      0.0417
    158  CZ        -9.2270   12.2480   16.2260 C.ar  410  TYR410      0.1957
    159  OH        -9.1760   12.6170   14.9130 O.3   410  TYR410     -0.2866
    160  N        -15.3720    1.7490   13.6080 N.3   441  GLN441     -0.1231
    161  CA       -14.5310    1.8820   12.4260 C.3   441  GLN441      0.1698
    162  C        -13.2040    2.5200   12.7570 C.2   441  GLN441      0.2592
    163  O        -13.1660    3.5040   13.4930 O.2   441  GLN441     -0.2718
    164  CB       -15.2600    2.6680   11.3170 C.3   441  GLN441      0.0381
    165  CG       -16.4020    1.8660   10.7010 C.3   441  GLN441      0.0905
    166  CD       -16.8050    2.3290    9.3230 C.2   441  GLN441      0.2608
    167  OE1      -16.7250    3.5060    8.9830 O.2   441  GLN441     -0.2717
    168  NE2      -17.2650    1.3960    8.5000 N.am  441  GLN441     -0.0878
    169  N        -12.1060    1.9230   12.2500 N.am  442  ILE442     -0.1966
    170  CA       -10.7360    2.4310   12.3960 C.3   442  ILE442      0.1727
    171  C        -10.1610    2.4470   10.9830 C.2   442  ILE442      0.2616
    172  O        -10.0270    1.3840   10.3720 O.2   442  ILE442     -0.2715
    173  CB        -9.8550    1.6210   13.3920 C.3   442  ILE442      0.0290
    174  CG1      -10.4640    1.6200   14.8350 C.3   442  ILE442      0.0022
    175  CG2       -8.4360    2.1980   13.4340 C.3   442  ILE442      0.0023
    176  CD1      -10.1940    0.3860   15.5770 C.3   442  ILE442      0.0001
    177  N         -9.8410    3.6450   10.4620 N.am  443  TYR443     -0.1960
    178  CA        -9.3560    3.8500    9.0960 C.3   443  TYR443      0.1771
    179  C        -10.2680    3.1510    8.0470 C.2   443  TYR443      0.2620
    180  O         -9.7760    2.5070    7.1150 O.2   443  TYR443     -0.2715
    181  CB        -7.8620    3.4430    8.9300 C.3   443  TYR443      0.0574
    182  CG        -6.8560    4.2380    9.7440 C.ar  443  TYR443     -0.0198
    183  CD1       -7.1660    5.5070   10.2320 C.ar  443  TYR443     -0.0009
    184  CD2       -5.5540    3.7730    9.9220 C.ar  443  TYR443     -0.0009
    185  CE1       -6.2320    6.2600   10.9380 C.ar  443  TYR443      0.0417
    186  CE2       -4.5900    4.5450   10.5830 C.ar  443  TYR443      0.0417
    187  CZ        -4.9390    5.7810   11.1010 C.ar  443  TYR443      0.1957
    188  OH        -4.0210    6.5140   11.8060 O.3   443  TYR443     -0.2866
    189  N        -11.5860    3.2710    8.2510 N.am  444  GLY444     -0.1954
    190  CA       -12.6280    2.7540    7.3660 C.3   444  GLY444      0.1869
    191  C        -12.9650    1.2850    7.5150 C.2   444  GLY444      0.2309
    192  O        -13.9880    0.8480    6.9960 O.2   444  GLY444     -0.2863
    193  N        -11.6950    2.8980    3.6940 N.3   551  SER551     -0.1217
    194  CA       -12.9610    3.6580    3.6610 C.3   551  SER551      0.1889
    195  C        -13.7580    3.3010    2.4170 C.2   551  SER551      0.2288
    196  O        -13.2090    3.2970    1.3180 O.2   551  SER551     -0.2866
    197  CB       -12.7200    5.1620    3.7420 C.3   551  SER551      0.2089
    198  OG       -13.9450    5.8790    3.6720 O.3   551  SER551     -0.2183
@<TRIPOS>BOND
     1    48    47    2
     2    47    46    1
     3    46    49    1
     4    46    45    1
     5    49    50    1
     6    72    71    2
     7    66    67    1
     8    50    51   ar
     9    50    52   ar
    10    67    68    1
    11    67    70    1
    12    69    68    2
    13    71    70    1
    14    71    73   am
    15    53    54    1
    16    58    57    1
    17    54    57    1
    18    54    55    1
    19    56    55    2
    20    57    59    1
    21    55    60   am
    22    60    61    1
    23    63    62    2
    24    62    61    1
    25    90    87    1
    26    90    91    1
    27    87    86    1
    28    87    88    1
    29    85    84    2
    30    61    64    1
    31     3     4    2
    32     3     2    1
    33    93    91   ar
    34    84    86   am
    35    84    83    1
    36    89    88    2
    37    91    92   ar
    38    88    94   am
    39    83    82    1
    40     2     1    1
    41     2     5    1
    42    64    65    1
    43   196   195    2
    44     5     6    1
    45    82    76   am
    46    94    95    1
    47     6     7    1
    48   195   194    1
    49     7     8    1
    50    96    97    2
    51    96    95    1
    52    76    77    2
    53    76    75    1
    54    95    98    1
    55    10     9    1
    56    74    75    1
    57   194   193    1
    58   194   197    1
    59   198   197    1
    60     8     9    2
    61    75    78    1
    62     9    11    1
    63    25    23   ar
    64    25    26   ar
    65    98    99    1
    66    23    21   ar
    67    26    24   ar
    68    78    79    1
    69    12    13    1
    70    99   101   ar
    71    99   100   ar
    72    21    20    1
    73    21    22   ar
    74    79    80    2
    75    79    81   am
    76    24    22   ar
    77    20    17    1
    78    13    14    1
    79    16    17    1
    80    16    14   am
    81   192   191    2
    82   180   179    2
    83    17    18    1
    84    14    15    2
    85   190   191    1
    86   190   189    1
    87   107   106    1
    88    18    19    2
    89   179   189   am
    90   179   178    1
    91   102   103    1
    92   168   166   am
    93    44    42    1
    94   103   106    1
    95   103   104    1
    96   181   178    1
    97   181   182    1
    98    43    42    1
    99   167   166    2
   100   178   177    1
   101   166   165    1
   102    42    41    2
   103   182   184   ar
   104   182   183   ar
   105   184   186   ar
   106   104   105    2
   107   183   185   ar
   108   172   171    2
   109   177   171   am
   110   186   187   ar
   111   165   164    1
   112    41    40    1
   113   185   187   ar
   114   171   170    1
   115   187   188    1
   116   164   161    1
   117    40    39    1
   118    39    38    1
   119   169   170    1
   120   169   162   am
   121   108   109    1
   122   170   173    1
   123   161   162    1
   124   161   160    1
   125   111   110    2
   126   162   163    2
   127    38    35    1
   128    37    36    2
   129    35    36    1
   130    35    34    1
   131   173   175    1
   132   173   174    1
   133   109   110    1
   134   109   112    1
   135   112   113    1
   136   147   146    1
   137   174   176    1
   138   159   158    1
   139   120   119    1
   140   121   119    1
   141   146   145    1
   142    27    28    1
   143    27    33    1
   144   126   123    1
   145   126   127    1
   146   119   118    1
   147    28    29    1
   148    28    31    1
   149   145   144    1
   150   158   157   ar
   151   158   156   ar
   152    30    29    2
   153   123   122    1
   154   123   124    1
   155    33    32    1
   156   157   155   ar
   157    32    31    1
   158   138   137    2
   159   144   141    1
   160   156   154   ar
   161   118   115    1
   162   139   137   am
   163   129   130    1
   164   129   128    1
   165   137   136    1
   166   124   125    2
   167   155   153   ar
   168   130   131    2
   169   130   132   am
   170   115   116    1
   171   115   114    1
   172   141   142    1
   173   141   140    1
   174   154   153   ar
   175   132   133    1
   176   153   152    1
   177   143   142    2
   178   116   117    2
   179   133   136    1
   180   133   134    1
   181   142   148   am
   182   148   149    1
   183   134   135    2
   184   152   149    1
   185   149   150    1
   186   150   151    2
