@<TRIPOS>MOLECULE
tmp/4mkbB00.pdb
 194 182 0 0 0
SMALL
GASTEIGER

@<TRIPOS>ATOM
      1  N         19.2380  -13.0400   21.3560 N.3   153  ARG153     -0.1245
      2  CA        20.3090  -12.5390   22.2020 C.3   153  ARG153      0.1563
      3  C         19.6890  -11.3600   22.9570 C.2   153  ARG153      0.2260
      4  O         18.6910  -10.7900   22.4990 O.2   153  ARG153     -0.2867
      5  CB        21.5110  -12.0610   21.3800 C.3   153  ARG153      0.0307
      6  CG        22.3450  -13.2070   20.8040 C.3   153  ARG153      0.0489
      7  CD        23.7480  -12.7390   20.4740 C.3   153  ARG153      0.2205
      8  NE        23.7600  -11.7040   19.4400 N.pl3 153  ARG153     -0.0865
      9  CZ        24.8330  -10.9960   19.1070 C.cat 153  ARG153      0.5346
     10  NH1       25.9870  -11.1880   19.7350 N.pl3 153  ARG153      0.1354
     11  NH2       24.7620  -10.0880   18.1420 N.pl3 153  ARG153      0.1354
     12  N         41.1390   -5.1460   16.5470 N.3   188  PHE188     -0.1241
     13  CA        40.3200   -4.0950   15.9250 C.3   188  PHE188      0.1605
     14  C         41.1220   -2.9470   15.2700 C.2   188  PHE188      0.2264
     15  O         40.5280   -2.0980   14.6270 O.2   188  PHE188     -0.2867
     16  CB        39.2620   -3.5690   16.9150 C.3   188  PHE188      0.0534
     17  CG        38.1970   -4.5710   17.3490 C.ar  188  PHE188     -0.0203
     18  CD1       37.3230   -5.1390   16.4200 C.ar  188  PHE188     -0.0042
     19  CD2       38.0270   -4.8920   18.6890 C.ar  188  PHE188     -0.0042
     20  CE1       36.3200   -6.0510   16.8330 C.ar  188  PHE188     -0.0003
     21  CE2       37.0440   -5.8080   19.0970 C.ar  188  PHE188     -0.0003
     22  CZ        36.1730   -6.3590   18.1750 C.ar  188  PHE188     -0.0000
     23  N         40.5240   -5.9210    7.1720 N.3   192  PRO192     -0.2116
     24  CA        40.6510   -7.3650    6.8760 C.3   192  PRO192      0.1372
     25  C         41.9830   -7.7450    6.2090 C.2   192  PRO192      0.2244
     26  O         42.5470   -8.7760    6.5380 O.2   192  PRO192     -0.2868
     27  CB        39.4370   -7.6500    5.9770 C.3   192  PRO192      0.0268
     28  CG        38.4470   -6.5860    6.3530 C.3   192  PRO192      0.0207
     29  CD        39.3030   -5.3670    6.5550 C.3   192  PRO192      0.0892
     30  N         44.6130   -7.7990    8.7950 N.3   195  ARG195     -0.1245
     31  CA        44.4010   -8.9400    9.6830 C.3   195  ARG195      0.1563
     32  C         45.0160  -10.1940    9.0470 C.2   195  ARG195      0.2260
     33  O         45.7180  -10.9330    9.7230 O.2   195  ARG195     -0.2867
     34  CB        42.9070   -9.1510    9.9770 C.3   195  ARG195      0.0307
     35  CG        42.6710  -10.2810   10.9470 C.3   195  ARG195      0.0489
     36  CD        41.1930  -10.5580   11.1340 C.3   195  ARG195      0.2205
     37  NE        40.9740  -11.6970   12.0150 N.pl3 195  ARG195     -0.0865
     38  CZ        40.8620  -11.6170   13.3340 C.cat 195  ARG195      0.5346
     39  NH1       40.9450  -10.4400   13.9460 N.pl3 195  ARG195      0.1354
     40  NH2       40.6570  -12.7060   14.0510 N.pl3 195  ARG195      0.1354
     41  N         29.8890  -12.5820   27.9970 N.3   220  ASP220     -0.1239
     42  CA        29.3800  -11.4980   28.8530 C.3   220  ASP220      0.1674
     43  C         28.9630  -11.9590   30.2440 C.2   220  ASP220      0.2266
     44  O         29.2520  -11.2580   31.2060 O.2   220  ASP220     -0.2867
     45  CB        28.2340  -10.7330   28.1760 C.3   220  ASP220      0.1410
     46  CG        28.7020   -9.9120   26.9980 C.2   220  ASP220      0.3668
     47  OD1       29.9280   -9.9120   26.7190 O.co2 220  ASP220     -0.2456
     48  OD2       27.8560   -9.2390   26.3790 O.co2 220  ASP220     -0.2456
     49  N         31.8690   -2.3080   26.5010 N.3   282  THR282     -0.1203
     50  CA        31.6470   -3.7360   26.1880 C.3   282  THR282      0.1994
     51  C         32.8170   -4.3510   25.3960 C.2   282  THR282      0.2618
     52  O         33.3930   -5.3400   25.8350 O.2   282  THR282     -0.2717
     53  CB        30.2910   -3.9610   25.4690 C.3   282  THR282      0.1784
     54  OG1       29.2360   -3.4740   26.2950 O.3   282  THR282     -0.2211
     55  CG2       30.0460   -5.4490   25.1390 C.3   282  THR282      0.0376
     56  N         33.1670   -3.7500   24.2620 N.am  283  SER283     -0.1951
     57  CA        34.2310   -4.2360   23.4000 C.3   283  SER283      0.1924
     58  C         35.6070   -4.1780   24.0680 C.2   283  SER283      0.2314
     59  O         36.2830   -5.2040   24.1460 O.2   283  SER283     -0.2863
     60  CB        34.2210   -3.4920   22.0630 C.3   283  SER283      0.2116
     61  OG        35.2650   -3.9420   21.2120 O.3   283  SER283     -0.2180
     62  N         35.7130   -6.4810   27.1580 N.3   286  ASN286     -0.1240
     63  CA        35.8330   -7.8870   26.7320 C.3   286  ASN286      0.1653
     64  C         37.2110   -8.2350   26.1870 C.2   286  ASN286      0.2266
     65  O         37.7440   -9.3100   26.5150 O.2   286  ASN286     -0.2867
     66  CB        34.7380   -8.2900   25.7330 C.3   286  ASN286      0.1155
     67  CG        33.3920   -8.4850   26.3630 C.2   286  ASN286      0.2627
     68  OD1       33.2530   -8.4780   27.5890 O.2   286  ASN286     -0.2716
     69  ND2       32.3580   -8.6930   25.5550 N.am  286  ASN286     -0.0877
     70  N         39.8210   -9.9420   19.7440 N.3   311  ASN311     -0.1225
     71  CA        38.7910   -8.9900   19.2870 C.3   311  ASN311      0.1785
     72  C         37.6230   -9.2390   20.1960 C.2   311  ASN311      0.2598
     73  O         36.8790  -10.1990   19.9510 O.2   311  ASN311     -0.2718
     74  CB        38.3200   -9.3050   17.8350 C.3   311  ASN311      0.1169
     75  CG        39.3320   -9.0500   16.7810 C.2   311  ASN311      0.2627
     76  OD1       40.2710   -9.8160   16.6190 O.2   311  ASN311     -0.2716
     77  ND2       39.1310   -7.9900   16.0170 N.am  311  ASN311     -0.0877
     78  N         37.5090   -8.4550   21.2760 N.am  312  GLY312     -0.1942
     79  CA        36.4470   -8.6810   22.2460 C.3   312  GLY312      0.2014
     80  C         36.5700  -10.0700   22.8410 C.2   312  GLY312      0.2639
     81  O         37.6470  -10.4520   23.3070 O.2   312  GLY312     -0.2714
     82  N         35.5050  -10.8650   22.7290 N.am  313  ASP313     -0.1957
     83  CA        35.4590  -12.2420   23.2280 C.3   313  ASP313      0.1840
     84  C         36.0510  -13.2440   22.2180 C.2   313  ASP313      0.2622
     85  O         36.0880  -14.4430   22.4940 O.2   313  ASP313     -0.2715
     86  CB        34.0110  -12.6270   23.5930 C.3   313  ASP313      0.1450
     87  CG        32.9590  -12.4960   22.4990 C.2   313  ASP313      0.3671
     88  OD1       33.2810  -11.9410   21.4120 O.co2 313  ASP313     -0.2456
     89  OD2       31.7960  -12.8700   22.7520 O.co2 313  ASP313     -0.2456
     90  N         36.4700  -12.7710   21.0390 N.am  314  ASP314     -0.1971
     91  CA        37.0320  -13.6710   20.0380 C.3   314  ASP314      0.1709
     92  C         38.5490  -13.7410   20.1820 C.2   314  ASP314      0.2293
     93  O         39.2210  -12.7070   20.2500 O.2   314  ASP314     -0.2864
     94  CB        36.6020  -13.2770   18.6340 C.3   314  ASP314      0.1436
     95  CG        36.8490  -14.3790   17.6380 C.2   314  ASP314      0.3671
     96  OD1       38.0060  -14.4850   17.1420 O.co2 314  ASP314     -0.2456
     97  OD2       35.8980  -15.1520   17.3630 O.co2 314  ASP314     -0.2456
     98  N         36.1760  -15.1150   14.6050 N.3   361  CYS361     -0.1235
     99  CA        35.3340  -13.9840   14.2020 C.3   361  CYS361      0.1677
    100  C         34.5180  -14.5130   13.0110 C.2   361  CYS361      0.2270
    101  O         34.4100  -13.8460   11.9740 O.2   361  CYS361     -0.2867
    102  CB        36.1780  -12.7660   13.8240 C.3   361  CYS361      0.0956
    103  SG        37.1020  -12.0340   15.2070 S.3   361  CYS361     -0.0801
    104  N         35.2880  -16.4830   10.7920 N.3   363  SER363     -0.1217
    105  CA        36.0660  -16.4450    9.5680 C.3   363  SER363      0.1889
    106  C         37.2990  -17.3000    9.5190 C.2   363  SER363      0.2288
    107  O         37.8230  -17.7180   10.5430 O.2   363  SER363     -0.2866
    108  CB        36.4820  -15.0100    9.2870 C.3   363  SER363      0.2089
    109  OG        35.3330  -14.1860    9.2880 O.3   363  SER363     -0.2183
    110  N         40.3690  -13.0450    3.7420 N.3   379  LEU379     -0.1245
    111  CA        39.4350  -13.5700    4.7280 C.3   379  LEU379      0.1561
    112  C         38.0770  -13.8220    4.1240 C.2   379  LEU379      0.2260
    113  O         37.5470  -12.9790    3.3960 O.2   379  LEU379     -0.2867
    114  CB        39.3130  -12.6640    5.9620 C.3   379  LEU379      0.0270
    115  CG        40.5360  -12.6540    6.8820 C.3   379  LEU379      0.0019
    116  CD1       40.6150  -11.3450    7.6690 C.3   379  LEU379      0.0001
    117  CD2       40.5470  -13.8850    7.7840 C.3   379  LEU379      0.0001
    118  N         23.2480   -5.3340    6.6890 N.3   402  SER402     -0.1217
    119  CA        24.3610   -6.2960    6.8200 C.3   402  SER402      0.1889
    120  C         24.9870   -6.5900    5.4820 C.2   402  SER402      0.2288
    121  O         26.1860   -6.8540    5.4410 O.2   402  SER402     -0.2866
    122  CB        23.9180   -7.5870    7.5080 C.3   402  SER402      0.2089
    123  OG        23.1180   -8.3750    6.6480 O.3   402  SER402     -0.2183
    124  N         27.8050   -4.0000    4.8780 N.3   405  GLY405     -0.1210
    125  CA        28.9470   -4.3180    5.7410 C.3   405  GLY405      0.1956
    126  C         29.6960   -5.5250    5.1890 C.2   405  GLY405      0.2611
    127  O         30.9330   -5.5130    5.0980 O.2   405  GLY405     -0.2717
    128  N         28.9350   -6.5620    4.7560 N.am  406  ASN406     -0.1974
    129  CA        29.5050   -7.7780    4.1850 C.3   406  ASN406      0.1688
    130  C         30.2200   -7.5400    2.8630 C.2   406  ASN406      0.2292
    131  O         31.2930   -8.1090    2.6800 O.2   406  ASN406     -0.2864
    132  CB        28.4620   -8.8900    4.0830 C.3   406  ASN406      0.1181
    133  CG        28.2270   -9.5190    5.4320 C.2   406  ASN406      0.2629
    134  OD1       29.1640   -9.6870    6.2270 O.2   406  ASN406     -0.2716
    135  ND2       26.9850   -9.8790    5.7220 N.am  406  ASN406     -0.0877
    136  N         33.5470   -5.6020    4.0110 N.3   409  MET409     -0.1230
    137  CA        34.4860   -6.4180    4.7740 C.3   409  MET409      0.1702
    138  C         34.9010   -7.6920    4.0580 C.2   409  MET409      0.2592
    139  O         36.0400   -8.1100    4.2230 O.2   409  MET409     -0.2718
    140  CB        33.9410   -6.7000    6.1780 C.3   409  MET409      0.0401
    141  CG        33.7670   -5.4210    7.0090 C.3   409  MET409      0.0596
    142  SD        35.2980   -4.4930    7.2480 S.3   409  MET409     -0.1393
    143  CE        35.8710   -5.2420    8.7320 C.3   409  MET409      0.0692
    144  N         33.9900   -8.2950    3.2640 N.am  410  TYR410     -0.1976
    145  CA        34.2590   -9.5200    2.4930 C.3   410  TYR410      0.1639
    146  C         34.3190   -9.2950    0.9780 C.2   410  TYR410      0.2290
    147  O         34.1200  -10.2410    0.2200 O.2   410  TYR410     -0.2864
    148  CB        33.2630  -10.6480    2.8350 C.3   410  TYR410      0.0560
    149  CG        33.3800  -11.1370    4.2550 C.ar  410  TYR410     -0.0198
    150  CD1       34.4220  -11.9790    4.6400 C.ar  410  TYR410     -0.0009
    151  CD2       32.4510  -10.7540    5.2220 C.ar  410  TYR410     -0.0009
    152  CE1       34.5670  -12.3920    5.9650 C.ar  410  TYR410      0.0417
    153  CE2       32.5650  -11.1820    6.5450 C.ar  410  TYR410      0.0417
    154  CZ        33.6310  -11.9920    6.9130 C.ar  410  TYR410      0.1957
    155  OH        33.7220  -12.4360    8.1990 O.3   410  TYR410     -0.2866
    156  N         27.4800   -1.3300    9.8090 N.3   441  GLN441     -0.1231
    157  CA        28.3420   -1.3790   10.9870 C.3   441  GLN441      0.1698
    158  C         29.6650   -2.0500   10.6540 C.2   441  GLN441      0.2592
    159  O         29.6720   -3.0810    9.9760 O.2   441  GLN441     -0.2718
    160  CB        27.6530   -2.1060   12.1610 C.3   441  GLN441      0.0381
    161  CG        26.5060   -1.3260   12.8070 C.3   441  GLN441      0.0905
    162  CD        25.9620   -1.9800   14.0640 C.2   441  GLN441      0.2608
    163  OE1       25.9360   -3.2100   14.2160 O.2   441  GLN441     -0.2717
    164  NE2       25.4950   -1.1640   14.9910 N.am  441  GLN441     -0.0878
    165  N         30.7750   -1.4680   11.1380 N.am  442  ILE442     -0.1966
    166  CA        32.1370   -1.9900   10.9620 C.3   442  ILE442      0.1727
    167  C         32.7350   -2.0500   12.3610 C.2   442  ILE442      0.2616
    168  O         32.9110   -1.0070   12.9940 O.2   442  ILE442     -0.2715
    169  CB        33.0020   -1.1530    9.9900 C.3   442  ILE442      0.0290
    170  CG1       32.4770   -1.2670    8.5290 C.3   442  ILE442      0.0022
    171  CG2       34.4690   -1.6290   10.0450 C.3   442  ILE442      0.0023
    172  CD1       32.5710    0.0100    7.8090 C.3   442  ILE442      0.0001
    173  N         33.0240   -3.2630   12.8500 N.am  443  TYR443     -0.1960
    174  CA        33.5670   -3.5010   14.1990 C.3   443  TYR443      0.1771
    175  C         32.6870   -2.8580   15.2990 C.2   443  TYR443      0.2620
    176  O         33.2180   -2.3640   16.2970 O.2   443  TYR443     -0.2715
    177  CB        35.0490   -3.0260   14.3250 C.3   443  TYR443      0.0574
    178  CG        36.0520   -3.7560   13.4590 C.ar  443  TYR443     -0.0198
    179  CD1       35.7240   -4.9680   12.8450 C.ar  443  TYR443     -0.0009
    180  CD2       37.3730   -3.3060   13.3540 C.ar  443  TYR443     -0.0009
    181  CE1       36.6580   -5.6650   12.0800 C.ar  443  TYR443      0.0417
    182  CE2       38.3250   -4.0120   12.6140 C.ar  443  TYR443      0.0417
    183  CZ        37.9600   -5.1920   11.9780 C.ar  443  TYR443      0.1957
    184  OH        38.8750   -5.8900   11.2360 O.3   443  TYR443     -0.2866
    185  N         31.3640   -2.8290   15.0720 N.am  444  GLY444     -0.1954
    186  CA        30.3870   -2.3130   16.0320 C.3   444  GLY444      0.1869
    187  C         30.0590   -0.8420   15.8950 C.2   444  GLY444      0.2309
    188  O         29.0580   -0.3940   16.4420 O.2   444  GLY444     -0.2863
    189  N         31.2820   -2.5710   19.5950 N.3   551  SER551     -0.1217
    190  CA        30.0330   -3.3540   19.6650 C.3   551  SER551      0.1889
    191  C         29.2080   -2.9990   20.9110 C.2   551  SER551      0.2288
    192  O         29.7260   -3.0300   22.0230 O.2   551  SER551     -0.2866
    193  CB        30.3230   -4.8550   19.6390 C.3   551  SER551      0.2089
    194  OG        30.9790   -5.1800   18.4270 O.3   551  SER551     -0.2183
@<TRIPOS>BOND
     1   147   146    2
     2   146   145    1
     3   145   148    1
     4   145   144    1
     5   131   130    2
     6   148   149    1
     7   130   129    1
     8   144   138   am
     9   113   112    2
    10   110   111    1
    11   136   137    1
    12   138   139    2
    13   138   137    1
    14   132   129    1
    15   132   133    1
    16   112   111    1
    17   129   128    1
    18   149   150   ar
    19   149   151   ar
    20   150   152   ar
    21   111   114    1
    22   128   126   am
    23   137   140    1
    24   124   125    1
    25   127   126    2
    26   126   125    1
    27   151   153   ar
    28   133   135   am
    29   133   134    2
    30   121   120    2
    31   120   119    1
    32   114   115    1
    33   152   154   ar
    34    27    28    1
    35    27    24    1
    36   140   141    1
    37    25    26    2
    38    25    24    1
    39    28    29    1
    40   153   154   ar
    41    29    23    1
    42   123   122    1
    43   118   119    1
    44   119   122    1
    45    24    23    1
    46   115   116    1
    47   115   117    1
    48   154   155    1
    49   141   142    1
    50   142   143    1
    51   172   170    1
    52   170   169    1
    53    30    31    1
    54    32    31    1
    55    32    33    2
    56   108   109    1
    57   108   105    1
    58   106   105    1
    59   106   107    2
    60   105   104    1
    61    31    34    1
    62   156   157    1
    63   159   158    2
    64    34    35    1
    65   169   171    1
    66   169   166    1
    67   158   157    1
    68   158   165   am
    69    35    36    1
    70   166   165    1
    71   166   167    1
    72   157   160    1
    73    36    37    1
    74   184   183    1
    75   101   100    2
    76   183   181   ar
    77   183   182   ar
    78    37    38    2
    79   181   179   ar
    80   160   161    1
    81   167   173   am
    82   167   168    2
    83   182   180   ar
    84   161   162    1
    85   179   178   ar
    86   173   174    1
    87   100    99    1
    88    38    39    1
    89    38    40    1
    90   180   178   ar
    91   178   177    1
    92   102    99    1
    93   102   103    1
    94   162   163    2
    95   162   164   am
    96   174   177    1
    97   174   175    1
    98    99    98    1
    99    15    14    2
   100   185   175   am
   101   185   186    1
   102    14    13    1
   103   175   176    2
   104   187   186    1
   105   187   188    2
   106    13    12    1
   107    13    16    1
   108    77    75   am
   109    18    20   ar
   110    18    17   ar
   111    76    75    2
   112    75    74    1
   113    20    22   ar
   114    16    17    1
   115    96    95   ar
   116    17    19   ar
   117    97    95   ar
   118    95    94    1
   119    74    71    1
   120    11     9    1
   121    22    21   ar
   122   194   193    1
   123    94    91    1
   124    19    21   ar
   125     9     8    2
   126     9    10    1
   127    71    70    1
   128    71    72    1
   129     8     7    1
   130   189   190    1
   131   193   190    1
   132   190   191    1
   133    73    72    2
   134    91    92    1
   135    91    90    1
   136    92    93    2
   137    72    78   am
   138     7     6    1
   139     6     5    1
   140   191   192    2
   141    90    84   am
   142    61    60    1
   143    78    79    1
   144     1     2    1
   145     5     2    1
   146    88    87   ar
   147    60    57    1
   148     2     3    1
   149    84    85    2
   150    84    83    1
   151    79    80    1
   152    87    89   ar
   153    87    86    1
   154     4     3    2
   155    82    80   am
   156    82    83    1
   157    80    81    2
   158    83    86    1
   159    57    58    1
   160    57    56    1
   161    58    59    2
   162    56    51   am
   163    55    53    1
   164    51    52    2
   165    51    50    1
   166    53    50    1
   167    53    54    1
   168    69    67   am
   169    66    67    1
   170    66    63    1
   171    64    65    2
   172    64    63    1
   173    50    49    1
   174    67    68    2
   175    48    46   ar
   176    47    46   ar
   177    63    62    1
   178    46    45    1
   179    41    42    1
   180    45    42    1
   181    42    43    1
   182    43    44    2
