@<TRIPOS>MOLECULE
tmp/4mkcA00.pdb
 187 175 0 0 0
SMALL
GASTEIGER

@<TRIPOS>ATOM
      1  N        -28.9780   13.0550    0.3700 N.3    28  ARG28      -0.1245
      2  CA       -28.0790   12.0430    0.9300 C.3    28  ARG28       0.1563
      3  C        -26.6760   12.2390    0.4080 C.2    28  ARG28       0.2260
      4  O        -26.5140   12.8390   -0.6530 O.2    28  ARG28      -0.2867
      5  CB       -28.5930   10.6150    0.5740 C.3    28  ARG28       0.0307
      6  CG       -28.3750   10.2000   -0.8840 C.3    28  ARG28       0.0489
      7  CD       -28.9520    8.8450   -1.2300 C.3    28  ARG28       0.2205
      8  NE       -30.4100    8.8990   -1.3440 N.pl3  28  ARG28      -0.0865
      9  CZ       -31.2440    8.1150   -0.6710 C.cat  28  ARG28       0.5346
     10  NH1      -32.5550    8.2400   -0.8310 N.pl3  28  ARG28       0.1354
     11  NH2      -30.7730    7.1970    0.1690 N.pl3  28  ARG28       0.1354
     12  N        -23.1830   10.8990   -1.3580 N.3    30  LEU30      -0.1231
     13  CA       -22.8790    9.9210   -2.4160 C.3    30  LEU30       0.1693
     14  C        -21.4200    9.4950   -2.3760 C.2    30  LEU30       0.2593
     15  O        -20.9830    8.6610   -3.1750 O.2    30  LEU30      -0.2718
     16  CB       -23.1800   10.5250   -3.8020 C.3    30  LEU30       0.0284
     17  CG       -24.6120   10.9670   -4.1100 C.3    30  LEU30       0.0019
     18  CD1      -24.6700   11.6160   -5.4890 C.3    30  LEU30       0.0001
     19  CD2      -25.5820    9.7980   -4.0380 C.3    30  LEU30       0.0001
     20  N        -20.6670   10.1120   -1.4790 N.am   31  GLY31      -0.1942
     21  CA       -19.2370    9.8840   -1.3720 C.3    31  GLY31       0.2014
     22  C        -18.4710   11.1830   -1.4630 C.2    31  GLY31       0.2639
     23  O        -19.0640   12.2660   -1.4230 O.2    31  GLY31      -0.2714
     24  N        -17.1440   11.0840   -1.5990 N.am   32  HIS32      -0.1959
     25  CA       -16.2830   12.2560   -1.6130 C.3    32  HIS32       0.1787
     26  C        -15.5860   12.4850   -2.9320 C.2    32  HIS32       0.2621
     27  O        -15.2010   11.5410   -3.6200 O.2    32  HIS32      -0.2715
     28  CB       -15.2660   12.1890   -0.4520 C.3    32  HIS32       0.0785
     29  CG       -15.9220   12.0850    0.8950 C.ar   32  HIS32       0.0821
     30  ND1      -16.0370   13.1840    1.7320 N.ar   32  HIS32      -0.2267
     31  CD2      -16.5450   11.0290    1.4760 C.ar   32  HIS32       0.1154
     32  CE1      -16.7030   12.7600    2.7970 C.ar   32  HIS32       0.1986
     33  NE2      -17.0350   11.4720    2.6870 N.ar   32  HIS32      -0.2212
     34  N        -15.4570   13.7590   -3.2720 N.am   33  GLY33      -0.1940
     35  CA       -14.7250   14.2300   -4.4360 C.3    33  GLY33       0.2014
     36  C        -13.3170   14.5700   -3.9960 C.2    33  GLY33       0.2638
     37  O        -12.9180   14.2000   -2.8830 O.2    33  GLY33      -0.2714
     38  N        -12.5640   15.3000   -4.8510 N.am   34  ALA34      -0.1977
     39  CA       -11.1740   15.6960   -4.6120 C.3    34  ALA34       0.1597
     40  C        -10.9890   16.4000   -3.2730 C.2    34  ALA34       0.2287
     41  O        -10.0840   16.0480   -2.5070 O.2    34  ALA34      -0.2864
     42  CB       -10.6770   16.5740   -5.7520 C.3    34  ALA34       0.0319
     43  N        -19.9100   14.8530   -1.7560 N.3    38  VAL38      -0.1245
     44  CA       -20.8210   15.0560   -2.8900 C.3    38  VAL38       0.1561
     45  C        -22.1670   14.5300   -2.4220 C.2    38  VAL38       0.2260
     46  O        -22.2200   13.4660   -1.7980 O.2    38  VAL38      -0.2867
     47  CB       -20.3860   14.3960   -4.2270 C.3    38  VAL38       0.0252
     48  CG1      -21.3740   14.7360   -5.3500 C.3    38  VAL38       0.0019
     49  CG2      -18.9540   14.7890   -4.6130 C.3    38  VAL38       0.0019
     50  N        -26.5480   13.8920   -3.2540 N.3    40  GLU40      -0.1245
     51  CA       -27.6810   13.8580   -4.1490 C.3    40  GLU40       0.1567
     52  C        -28.5450   15.0540   -3.6340 C.2    40  GLU40       0.2260
     53  O        -28.6910   15.2470   -2.4240 O.2    40  GLU40      -0.2867
     54  CB       -28.4760   12.5490   -4.0270 C.3    40  GLU40       0.0388
     55  CG       -29.7420   12.5780   -4.8760 C.3    40  GLU40       0.1160
     56  CD       -30.6250   11.3480   -4.8690 C.2    40  GLU40       0.3649
     57  OE1      -30.2250   10.3080   -4.2990 O.co2  40  GLU40      -0.2457
     58  OE2      -31.7180   11.4220   -5.4710 O.co2  40  GLU40      -0.2457
     59  N        -26.4150   16.4960   -8.4670 N.3    50  ALA50      -0.1245
     60  CA       -25.2880   16.0650   -7.6710 C.3    50  ALA50       0.1562
     61  C        -24.7390   17.3970   -7.1440 C.2    50  ALA50       0.2260
     62  O        -24.5650   18.3470   -7.9110 O.2    50  ALA50      -0.2867
     63  CB       -24.2540   15.3710   -8.5340 C.3    50  ALA50       0.0290
     64  N        -21.6740   19.2000   -5.3770 N.3    52  LYS52      -0.1245
     65  CA       -20.2760   19.1730   -4.9460 C.3    52  LYS52       0.1561
     66  C        -20.1170   20.3160   -3.9590 C.2    52  LYS52       0.2260
     67  O        -20.5520   21.4280   -4.2390 O.2    52  LYS52      -0.2867
     68  CB       -19.3040   19.3340   -6.1340 C.3    52  LYS52       0.0271
     69  CG       -19.3300   18.1560   -7.1030 C.3    52  LYS52       0.0035
     70  CD       -18.1580   18.1990   -8.0450 C.3    52  LYS52       0.0206
     71  CE       -16.9240   17.5440   -7.4830 C.3    52  LYS52       0.1093
     72  NZ       -15.8500   17.5230   -8.4890 N.3    52  LYS52      -0.1314
     73  N        -20.9540   15.6290  -18.2630 N.3    82  VAL82      -0.1245
     74  CA       -21.9610   16.0170  -17.2650 C.3    82  VAL82       0.1561
     75  C        -22.2770   17.4950  -17.3620 C.2    82  VAL82       0.2260
     76  O        -21.3570   18.3120  -17.5110 O.2    82  VAL82      -0.2867
     77  CB       -21.6330   15.5730  -15.8130 C.3    82  VAL82       0.0252
     78  CG1      -21.5860   14.0440  -15.7000 C.3    82  VAL82       0.0019
     79  CG2      -20.3330   16.2030  -15.3010 C.3    82  VAL82       0.0019
     80  N        -24.4010   19.7770  -10.3560 N.3    98  LEU98      -0.1231
     81  CA       -24.1890   19.0390  -11.5950 C.3    98  LEU98       0.1693
     82  C        -25.3190   18.0740  -11.8690 C.2    98  LEU98       0.2592
     83  O        -26.0870   17.7310  -10.9680 O.2    98  LEU98      -0.2718
     84  CB       -22.8340   18.2780  -11.5410 C.3    98  LEU98       0.0284
     85  CG       -21.5860   19.1300  -11.2340 C.3    98  LEU98       0.0019
     86  CD1      -20.3790   18.2480  -11.0180 C.3    98  LEU98       0.0001
     87  CD2      -21.2910   20.1200  -12.3650 C.3    98  LEU98       0.0001
     88  N        -25.3970   17.6110  -13.1140 N.am   99  GLU99      -0.1966
     89  CA       -26.3770   16.6270  -13.5740 C.3    99  GLU99       0.1733
     90  C        -26.2370   15.3500  -12.7150 C.2    99  GLU99       0.2616
     91  O        -25.1320   14.8480  -12.5420 O.2    99  GLU99      -0.2715
     92  CB       -26.0840   16.3350  -15.0560 C.3    99  GLU99       0.0429
     93  CG       -26.8380   15.1750  -15.6850 C.3    99  GLU99       0.1163
     94  CD       -26.3590   14.8930  -17.0920 C.2    99  GLU99       0.3649
     95  OE1      -25.4280   15.5910  -17.5460 O.co2  99  GLU99      -0.2457
     96  OE2      -26.9450   14.0150  -17.7640 O.co2  99  GLU99      -0.2457
     97  N        -27.3310   14.8870  -12.1230 N.am  100  LEU100     -0.1963
     98  CA       -27.2960   13.6840  -11.3040 C.3   100  LEU100      0.1728
     99  C        -27.1880   12.4900  -12.2220 C.2   100  LEU100      0.2616
    100  O        -27.9650   12.3820  -13.1620 O.2   100  LEU100     -0.2715
    101  CB       -28.5370   13.5730  -10.3890 C.3   100  LEU100      0.0311
    102  CG       -28.5160   12.3750   -9.4040 C.3   100  LEU100      0.0022
    103  CD1      -27.3720   12.4800   -8.3930 C.3   100  LEU100      0.0001
    104  CD2      -29.8490   12.1930   -8.7120 C.3   100  LEU100      0.0001
    105  N        -26.2070   11.6110  -11.9710 N.am  101  MET101     -0.1963
    106  CA       -25.9860   10.4140  -12.7860 C.3   101  MET101      0.1736
    107  C        -26.4240    9.2190  -11.9470 C.2   101  MET101      0.2616
    108  O        -25.7170    8.7880  -11.0340 O.2   101  MET101     -0.2715
    109  CB       -24.5050   10.3550  -13.2370 C.3   101  MET101      0.0427
    110  CG       -24.0920   11.5740  -14.0740 C.3   101  MET101      0.0599
    111  SD       -24.8970   11.6010  -15.6950 S.3   101  MET101     -0.1393
    112  CE       -23.8560   10.3920  -16.5450 C.3   101  MET101      0.0692
    113  N        -27.6390    8.7390  -12.2210 N.am  102  ALA102     -0.1963
    114  CA       -28.3130    7.6860  -11.4550 C.3   102  ALA102      0.1728
    115  C        -27.7310    6.2620  -11.5760 C.2   102  ALA102      0.2617
    116  O        -28.1390    5.3690  -10.8350 O.2   102  ALA102     -0.2715
    117  CB       -29.8240    7.7230  -11.7060 C.3   102  ALA102      0.0334
    118  N        -26.7460    6.0760  -12.4640 N.am  103  GLY103     -0.1940
    119  CA       -26.0490    4.8020  -12.5890 C.3   103  GLY103      0.2014
    120  C        -24.7630    4.7630  -11.7850 C.2   103  GLY103      0.2639
    121  O        -24.0740    3.7340  -11.7750 O.2   103  GLY103     -0.2714
    122  N        -24.4220    5.8920  -11.1420 N.am  104  GLY104     -0.1939
    123  CA       -23.1840    6.0660  -10.3740 C.3   104  GLY104      0.2014
    124  C        -21.9460    6.1100  -11.2600 C.2   104  GLY104      0.2638
    125  O        -22.0490    6.3250  -12.4710 O.2   104  GLY104     -0.2714
    126  N        -20.7620    5.9210  -10.6600 N.am  105  ASP105     -0.1971
    127  CA       -19.4960    5.8840  -11.3900 C.3   105  ASP105      0.1709
    128  C        -19.3700    4.5450  -12.1410 C.2   105  ASP105      0.2293
    129  O        -19.9750    3.5380  -11.7510 O.2   105  ASP105     -0.2864
    130  CB       -18.2940    6.1280  -10.4540 C.3   105  ASP105      0.1436
    131  CG       -18.0100    4.9470   -9.5430 C.2   105  ASP105      0.3671
    132  OD1      -17.0050    4.2370   -9.7830 O.co2 105  ASP105     -0.2456
    133  OD2      -18.7990    4.7180   -8.6240 O.co2 105  ASP105     -0.2456
    134  N        -17.5360    1.3740  -10.2110 N.3   108  SER108     -0.1217
    135  CA       -18.4060    0.6380   -9.2870 C.3   108  SER108      0.1889
    136  C        -19.5430   -0.0530  -10.0430 C.2   108  SER108      0.2288
    137  O        -19.9380   -1.1330   -9.6510 O.2   108  SER108     -0.2866
    138  CB       -18.9360    1.5460   -8.1860 C.3   108  SER108      0.2089
    139  OG       -19.9070    2.4310   -8.7150 O.3   108  SER108     -0.2183
    140  N        -20.0510   -4.1090   -9.7070 N.3   112  GLU112     -0.1245
    141  CA       -21.3560   -4.5290   -9.1720 C.3   112  GLU112      0.1567
    142  C        -22.3040   -5.2120  -10.1660 C.2   112  GLU112      0.2260
    143  O        -23.1970   -5.9390   -9.7370 O.2   112  GLU112     -0.2867
    144  CB       -22.0780   -3.3370   -8.5320 C.3   112  GLU112      0.0388
    145  CG       -21.4240   -2.8380   -7.2510 C.3   112  GLU112      0.1160
    146  CD       -21.9240   -1.5080   -6.7120 C.2   112  GLU112      0.3649
    147  OE1      -23.0750   -1.1210   -7.0200 O.co2 112  GLU112     -0.2457
    148  OE2      -21.1660   -0.8660   -5.9480 O.co2 112  GLU112     -0.2457
    149  N        -12.9820    5.6470  -12.9900 N.3   155  ARG155     -0.1231
    150  CA       -13.4060    6.3680  -11.7720 C.3   155  ARG155      0.1694
    151  C        -13.9450    7.7860  -12.0830 C.2   155  ARG155      0.2592
    152  O        -14.6760    8.3520  -11.2670 O.2   155  ARG155     -0.2718
    153  CB       -12.2490    6.4400  -10.7320 C.3   155  ARG155      0.0321
    154  CG       -11.0730    7.2910  -11.2180 C.3   155  ARG155      0.0489
    155  CD        -9.8890    7.4300  -10.2450 C.3   155  ARG155      0.2205
    156  NE        -8.7800    8.0730  -10.9600 N.pl3 155  ARG155     -0.0865
    157  CZ        -7.9190    7.4120  -11.7280 C.cat 155  ARG155      0.5346
    158  NH1       -7.9770    6.0920  -11.8170 N.pl3 155  ARG155      0.1354
    159  NH2       -6.9970    8.0680  -12.4180 N.pl3 155  ARG155      0.1354
    160  N        -13.5880    8.3380  -13.2740 N.am  156  ASN156     -0.1974
    161  CA       -13.9810    9.6750  -13.7100 C.3   156  ASN156      0.1688
    162  C        -15.1730    9.6910  -14.6680 C.2   156  ASN156      0.2292
    163  O        -15.6010   10.7650  -15.0940 O.2   156  ASN156     -0.2864
    164  CB       -12.7650   10.4510  -14.2710 C.3   156  ASN156      0.1181
    165  CG       -11.7240   10.7650  -13.2210 C.2   156  ASN156      0.2629
    166  OD1      -10.5260   10.8280  -13.5000 O.2   156  ASN156     -0.2716
    167  ND2      -12.1400   10.9200  -11.9770 N.am  156  ASN156     -0.0877
    168  N        -19.2590    8.4290  -15.4580 N.3   158  LEU158     -0.1245
    169  CA       -20.5290    8.2140  -14.7580 C.3   158  LEU158      0.1561
    170  C        -21.5800    7.7150  -15.7410 C.2   158  LEU158      0.2260
    171  O        -21.4500    7.9120  -16.9600 O.2   158  LEU158     -0.2867
    172  CB       -20.9940    9.5530  -14.1270 C.3   158  LEU158      0.0270
    173  CG       -20.1190   10.1960  -13.0470 C.3   158  LEU158      0.0019
    174  CD1      -20.4100   11.6950  -12.9310 C.3   158  LEU158      0.0001
    175  CD2      -20.3710    9.5600  -11.6920 C.3   158  LEU158      0.0001
    176  N        -17.2750   12.8650  -16.0390 N.3   171  GLY171     -0.1210
    177  CA       -17.8180   13.6100  -14.9090 C.3   171  GLY171      0.1956
    178  C        -16.8360   14.2640  -13.9720 C.2   171  GLY171      0.2611
    179  O        -17.2530   14.7960  -12.9440 O.2   171  GLY171     -0.2717
    180  N        -15.5400   14.2540  -14.3050 N.am  172  ASP172     -0.1973
    181  CA       -14.5210   14.8880  -13.4590 C.3   172  ASP172      0.1709
    182  C        -13.4480   15.5500  -14.3070 C.2   172  ASP172      0.2293
    183  O        -13.0250   14.9690  -15.2910 O.2   172  ASP172     -0.2864
    184  CB       -13.8800   13.8670  -12.5170 C.3   172  ASP172      0.1436
    185  CG       -12.9890   14.4990  -11.4640 C.2   172  ASP172      0.3671
    186  OD1      -11.8100   14.7980  -11.7780 O.co2 172  ASP172     -0.2456
    187  OD2      -13.4580   14.6770  -10.3330 O.co2 172  ASP172     -0.2456
@<TRIPOS>BOND
     1    73    74    1
     2    96    94   ar
     3    95    94   ar
     4    76    75    2
     5    75    74    1
     6    74    77    1
     7    94    93    1
     8   171   170    2
     9   112   111    1
    10   176   177    1
    11    77    78    1
    12    77    79    1
    13   170   169    1
    14   111   110    1
    15    93    92    1
    16   168   169    1
    17   183   182    2
    18   163   162    2
    19    92    89    1
    20   177   178    1
    21   169   172    1
    22   162   161    1
    23   182   181    1
    24   180   178   am
    25   180   181    1
    26   164   161    1
    27   164   165    1
    28   172   173    1
    29   110   109    1
    30   178   179    2
    31   161   160    1
    32    89    88    1
    33    89    90    1
    34   166   165    2
    35   181   184    1
    36   160   151   am
    37   109   106    1
    38   165   167   am
    39   100    99    2
    40    88    82   am
    41   173   174    1
    42   173   175    1
    43   149   150    1
    44   106   105    1
    45   106   107    1
    46    90    91    2
    47    90    97   am
    48   119   118    1
    49   119   120    1
    50   184   185    1
    51   125   124    2
    52   118   115   am
    53   159   157    1
    54    87    85    1
    55    99   105   am
    56    99    98    1
    57   113   107   am
    58   113   114    1
    59   128   129    2
    60   128   127    1
    61    97    98    1
    62   151   150    1
    63   151   152    2
    64   107   108    2
    65    82    81    1
    66    82    83    2
    67   158   157    1
    68   120   121    2
    69   120   122   am
    70   186   185   ar
    71   150   153    1
    72   157   156    2
    73   117   114    1
    74    81    84    1
    75    81    80    1
    76   115   114    1
    77   115   116    2
    78    84    85    1
    79   185   187   ar
    80   127   126    1
    81   127   130    1
    82    98   101    1
    83   124   126   am
    84   124   123    1
    85    85    86    1
    86   154   153    1
    87   154   155    1
    88   122   123    1
    89   156   155    1
    90   130   131    1
    91   101   102    1
    92   134   135    1
    93   142   143    2
    94   142   141    1
    95   136   137    2
    96   136   135    1
    97   132   131   ar
    98   140   141    1
    99   131   133   ar
   100   102   104    1
   101   102   103    1
   102   135   138    1
   103   141   144    1
   104   139   138    1
   105    63    60    1
   106   144   145    1
   107    72    71    1
   108    59    60    1
   109    70    71    1
   110    70    69    1
   111    62    61    2
   112    60    61    1
   113   145   146    1
   114    69    68    1
   115   147   146   ar
   116   146   148   ar
   117    68    65    1
   118    42    39    1
   119    18    17    1
   120    58    56   ar
   121    64    65    1
   122    48    47    1
   123    65    66    1
   124    55    56    1
   125    55    54    1
   126    56    57   ar
   127    38    39    1
   128    38    36   am
   129    49    47    1
   130    39    40    1
   131    35    36    1
   132    35    34    1
   133    67    66    2
   134    47    44    1
   135    51    54    1
   136    51    52    1
   137    51    50    1
   138    17    19    1
   139    17    16    1
   140    36    37    2
   141    16    13    1
   142    52    53    2
   143    27    26    2
   144    40    41    2
   145    34    26   am
   146    15    14    2
   147    26    25    1
   148    44    45    1
   149    44    43    1
   150    45    46    2
   151    13    14    1
   152    13    12    1
   153    14    20   am
   154    25    24    1
   155    25    28    1
   156    24    22   am
   157    20    21    1
   158    22    23    2
   159    22    21    1
   160     8     7    1
   161     8     9    2
   162     7     6    1
   163     6     5    1
   164    10     9    1
   165     9    11    1
   166     4     3    2
   167    28    29    1
   168     1     2    1
   169     3     2    1
   170     5     2    1
   171    29    31   ar
   172    29    30   ar
   173    31    33   ar
   174    30    32   ar
   175    33    32   ar
