@<TRIPOS>MOLECULE
tmp/4mkhA00.pdb
 197 189 0 0 0
SMALL
GASTEIGER

@<TRIPOS>ATOM
      1  N         -8.5050   -7.5570  -14.5190 N.3    10  PRO10      -0.2102
      2  CA        -9.4670   -8.3160  -13.6810 C.3    10  PRO10       0.1504
      3  C        -10.2560   -9.3180  -14.6250 C.2    10  PRO10       0.2576
      4  O        -10.7980   -8.8690  -15.6320 O.2    10  PRO10      -0.2718
      5  CB       -10.4580   -7.1540  -13.2320 C.3    10  PRO10       0.0282
      6  CG        -9.5780   -5.8610  -13.1540 C.3    10  PRO10       0.0208
      7  CD        -8.6060   -6.0570  -14.3330 C.3    10  PRO10       0.0893
      8  N        -10.3820  -10.5690  -14.1750 N.am   11  GLY11      -0.1943
      9  CA       -11.0880  -11.5870  -14.9520 C.3    11  GLY11       0.2014
     10  C        -10.2430  -12.3460  -15.9770 C.2    11  GLY11       0.2639
     11  O        -10.8020  -13.2550  -16.6320 O.2    11  GLY11      -0.2714
     12  N         -8.9710  -12.0080  -16.1500 N.am   12  ALA12      -0.1963
     13  CA        -8.1600  -12.6050  -17.2260 C.3    12  ALA12       0.1728
     14  C         -7.8300  -14.0550  -16.9820 C.2    12  ALA12       0.2617
     15  O         -7.3460  -14.7630  -17.8830 O.2    12  ALA12      -0.2715
     16  CB        -6.9030  -11.7490  -17.4260 C.3    12  ALA12       0.0334
     17  N         -8.0220  -14.5130  -15.7420 N.am   13  GLY13      -0.1940
     18  CA        -7.6970  -15.9190  -15.4480 C.3    13  GLY13       0.2014
     19  C         -6.4780  -16.1540  -14.6120 C.2    13  GLY13       0.2639
     20  O         -5.9840  -17.2960  -14.5560 O.2    13  GLY13      -0.2714
     21  N         -5.9210  -15.1020  -14.0090 N.am   14  LYS14      -0.1963
     22  CA        -4.7590  -15.2690  -13.1230 C.3    14  LYS14       0.1728
     23  C         -4.9570  -16.2870  -12.0670 C.2    14  LYS14       0.2617
     24  O         -3.9770  -17.1180  -11.9470 O.2    14  LYS14      -0.2715
     25  CB        -4.3440  -13.8900  -12.4930 C.3    14  LYS14       0.0311
     26  CG        -3.9390  -12.8520  -13.5340 C.3    14  LYS14       0.0038
     27  CD        -3.5830  -11.4640  -12.8560 C.3    14  LYS14       0.0206
     28  CE        -4.6150  -10.8170  -11.9770 C.3    14  LYS14       0.1093
     29  NZ        -5.8330  -10.4370  -12.7600 N.3    14  LYS14      -0.1314
     30  N         -6.0450  -16.2460  -11.2730 N.am   15  GLY15      -0.1940
     31  CA        -6.2000  -17.1910  -10.1240 C.3    15  GLY15       0.2014
     32  C         -6.2840  -18.6090  -10.6910 C.2    15  GLY15       0.2639
     33  O         -5.6550  -19.5520  -10.1000 O.2    15  GLY15      -0.2714
     34  N         -7.0030  -18.7660  -11.8070 N.am   16  THR16      -0.1950
     35  CA        -7.1930  -20.1080  -12.3770 C.3    16  THR16       0.1897
     36  C         -5.8620  -20.6650  -12.8440 C.2    16  THR16       0.2313
     37  O         -5.5420  -21.8250  -12.5540 O.2    16  THR16      -0.2863
     38  CB        -8.2100  -19.9820  -13.5390 C.3    16  THR16       0.1794
     39  OG1       -9.4600  -19.5580  -12.9820 O.3    16  THR16      -0.2208
     40  CG2       -8.4880  -21.3640  -14.1700 C.3    16  THR16       0.0378
     41  N         -8.9660  -10.2630    1.3850 N.3    37  ARG37      -0.1245
     42  CA       -10.2040  -11.0080    1.7310 C.3    37  ARG37       0.1563
     43  C         -9.9770  -11.6990    3.0340 C.2    37  ARG37       0.2260
     44  O        -10.9070  -11.6820    3.8730 O.2    37  ARG37      -0.2867
     45  CB       -10.6920  -11.8970    0.5490 C.3    37  ARG37       0.0307
     46  CG       -11.2800  -10.9780   -0.5530 C.3    37  ARG37       0.0489
     47  CD       -11.9200  -11.7570   -1.7310 C.3    37  ARG37       0.2205
     48  NE       -10.9080  -12.5530   -2.4760 N.pl3  37  ARG37      -0.0865
     49  CZ       -10.3030  -12.1770   -3.6090 C.cat  37  ARG37       0.5346
     50  NH1      -10.5850  -10.9940   -4.1620 N.pl3  37  ARG37       0.1354
     51  NH2       -9.3640  -12.9510   -4.1270 N.pl3  37  ARG37       0.1354
     52  N          0.2940  -12.5040   -7.8490 N.3    85  ASP85      -0.1239
     53  CA        -1.0500  -12.4410   -8.5720 C.3    85  ASP85       0.1674
     54  C         -1.7680  -11.2570   -7.9810 C.2    85  ASP85       0.2266
     55  O         -2.2170  -11.3170   -6.8340 O.2    85  ASP85      -0.2867
     56  CB        -1.7370  -13.7960   -8.2960 C.3    85  ASP85       0.1410
     57  CG        -3.2000  -13.8420   -8.7520 C.2    85  ASP85       0.3668
     58  OD1       -3.6180  -12.8090   -9.3530 O.co2  85  ASP85      -0.2456
     59  OD2       -3.8380  -14.8980   -8.4610 O.co2  85  ASP85      -0.2456
     60  N        -16.6460  -12.7420  -18.1330 N.3   124  ARG124     -0.1231
     61  CA       -15.9920  -13.5970  -17.1400 C.3   124  ARG124      0.1694
     62  C        -16.2620  -13.2000  -15.6820 C.2   124  ARG124      0.2591
     63  O        -16.5370  -14.0600  -14.8360 O.2   124  ARG124     -0.2718
     64  CB       -14.4750  -13.5410  -17.2590 C.3   124  ARG124      0.0321
     65  CG       -14.1370  -14.3480  -18.5120 C.3   124  ARG124      0.0489
     66  CD       -12.7660  -14.6340  -18.5800 C.3   124  ARG124      0.2205
     67  NE       -12.3470  -15.3250  -19.8300 N.pl3 124  ARG124     -0.0865
     68  CZ       -11.0750  -15.6270  -19.9720 C.cat 124  ARG124      0.5346
     69  NH1      -10.1830  -15.2740  -19.0000 N.pl3 124  ARG124      0.1354
     70  NH2      -10.7430  -16.1730  -21.1550 N.pl3 124  ARG124      0.1354
     71  N        -16.3090  -11.9170  -15.4250 N.am  125  LEU125     -0.1980
     72  CA       -16.4900  -11.5080  -14.0690 C.3   125  LEU125      0.1596
     73  C        -17.9910  -11.5080  -13.6870 C.2   125  LEU125      0.2287
     74  O        -18.4090  -12.0230  -12.6160 O.2   125  LEU125     -0.2864
     75  CB       -15.9350  -10.0910  -13.9190 C.3   125  LEU125      0.0297
     76  CG       -14.3890  -10.1030  -13.9920 C.3   125  LEU125      0.0022
     77  CD1      -13.9270   -8.6490  -14.0340 C.3   125  LEU125      0.0001
     78  CD2      -13.7600  -10.8720  -12.8410 C.3   125  LEU125      0.0001
     79  N        -19.4000  -14.9020  -12.8410 N.3   128  ARG128     -0.1245
     80  CA       -18.8390  -15.7470  -11.7780 C.3   128  ARG128      0.1563
     81  C        -19.8410  -15.8240  -10.6110 C.2   128  ARG128      0.2260
     82  O        -20.5340  -14.8380  -10.2960 O.2   128  ARG128     -0.2867
     83  CB       -17.5080  -15.0910  -11.2730 C.3   128  ARG128      0.0307
     84  CG       -16.9390  -15.7850  -10.0260 C.3   128  ARG128      0.0489
     85  CD       -15.4730  -15.4890   -9.7890 C.3   128  ARG128      0.2205
     86  NE       -15.2270  -14.0400   -9.6580 N.pl3 128  ARG128     -0.0865
     87  CZ       -14.0340  -13.4820   -9.7730 C.cat 128  ARG128      0.5346
     88  NH1      -13.9280  -12.1470   -9.6930 N.pl3 128  ARG128      0.1354
     89  NH2      -12.9440  -14.2500   -9.9520 N.pl3 128  ARG128      0.1354
     90  N        -15.5310  -21.5180   -6.7200 N.3   137  THR137     -0.1203
     91  CA       -15.9090  -20.6150   -7.8170 C.3   137  THR137      0.1994
     92  C        -16.6750  -21.4540   -8.9070 C.2   137  THR137      0.2618
     93  O        -16.2590  -22.6100   -9.2910 O.2   137  THR137     -0.2717
     94  CB       -14.6710  -19.9650   -8.4880 C.3   137  THR137      0.1784
     95  OG1      -13.9970  -19.0980   -7.5070 O.3   137  THR137     -0.2211
     96  CG2      -15.0330  -19.0260   -9.6570 C.3   137  THR137      0.0376
     97  N        -17.7320  -20.8450   -9.4290 N.am  138  TYR138     -0.1961
     98  CA       -18.4680  -21.3620  -10.5750 C.3   138  TYR138      0.1771
     99  C        -18.5250  -20.2290  -11.5860 C.2   138  TYR138      0.2619
    100  O        -18.2890  -19.0600  -11.2630 O.2   138  TYR138     -0.2715
    101  CB       -19.8980  -21.7900  -10.2370 C.3   138  TYR138      0.0574
    102  CG       -19.9020  -22.9650   -9.2630 C.ar  138  TYR138     -0.0198
    103  CD1      -20.0170  -24.2730   -9.7630 C.ar  138  TYR138     -0.0009
    104  CD2      -19.8900  -22.7560   -7.8880 C.ar  138  TYR138     -0.0009
    105  CE1      -20.0190  -25.3480   -8.8860 C.ar  138  TYR138      0.0417
    106  CE2      -19.8120  -23.8390   -6.9850 C.ar  138  TYR138      0.0417
    107  CZ       -19.9150  -25.1120   -7.5060 C.ar  138  TYR138      0.1957
    108  OH       -19.9330  -26.1980   -6.6880 O.3   138  TYR138     -0.2866
    109  N        -18.8940  -20.5570  -12.8390 N.am  139  HIS139     -0.1973
    110  CA       -19.1200  -19.5400  -13.8490 C.3   139  HIS139      0.1656
    111  C        -20.3770  -19.9560  -14.6150 C.2   139  HIS139      0.2291
    112  O        -20.4730  -21.1240  -15.0970 O.2   139  HIS139     -0.2864
    113  CB       -17.9690  -19.3170  -14.7820 C.3   139  HIS139      0.0771
    114  CG       -18.2180  -18.1090  -15.6290 C.ar  139  HIS139      0.0820
    115  ND1      -19.0610  -18.1080  -16.7070 N.ar  139  HIS139     -0.2267
    116  CD2      -17.7430  -16.8050  -15.4790 C.ar  139  HIS139      0.1154
    117  CE1      -19.1300  -16.8850  -17.2190 C.ar  139  HIS139      0.1986
    118  NE2      -18.3770  -16.0690  -16.4420 N.ar  139  HIS139     -0.2212
    119  N        -19.1460  -20.7560  -18.3100 N.3   142  PHE142     -0.1227
    120  CA       -17.9320  -21.5710  -18.5200 C.3   142  PHE142      0.1736
    121  C        -17.7000  -22.7030  -17.5360 C.2   142  PHE142      0.2595
    122  O        -16.8680  -23.6200  -17.7660 O.2   142  PHE142     -0.2718
    123  CB       -16.7470  -20.6280  -18.4530 C.3   142  PHE142      0.0547
    124  CG       -16.7880  -19.5680  -19.5010 C.ar  142  PHE142     -0.0202
    125  CD1      -16.9490  -19.9040  -20.8490 C.ar  142  PHE142     -0.0042
    126  CD2      -16.7490  -18.2170  -19.1270 C.ar  142  PHE142     -0.0042
    127  CE1      -17.0340  -18.9040  -21.8160 C.ar  142  PHE142     -0.0003
    128  CE2      -16.8570  -17.2060  -20.0760 C.ar  142  PHE142     -0.0003
    129  CZ       -16.9410  -17.5510  -21.4120 C.ar  142  PHE142     -0.0000
    130  N        -18.3960  -22.6680  -16.3850 N.am  143  ASN143     -0.1974
    131  CA       -18.1830  -23.6880  -15.3810 C.3   143  ASN143      0.1688
    132  C        -19.4510  -23.6780  -14.4500 C.2   143  ASN143      0.2292
    133  O        -19.4070  -23.3630  -13.2330 O.2   143  ASN143     -0.2864
    134  CB       -16.9520  -23.4990  -14.4830 C.3   143  ASN143      0.1181
    135  CG       -16.7520  -24.7080  -13.4650 C.2   143  ASN143      0.2629
    136  OD1      -17.1750  -25.8450  -13.7460 O.2   143  ASN143     -0.2716
    137  ND2      -16.2860  -24.4160  -12.2490 N.am  143  ASN143     -0.0877
    138  N        -20.2590  -12.0390   -6.1270 N.3   161  ARG161     -0.1245
    139  CA       -19.3740  -11.2720   -5.2410 C.3   161  ARG161      0.1563
    140  C        -19.7040   -9.7710   -5.4490 C.2   161  ARG161      0.2260
    141  O        -20.1600   -9.3150   -6.5220 O.2   161  ARG161     -0.2867
    142  CB       -17.8770  -11.5860   -5.6070 C.3   161  ARG161      0.0307
    143  CG       -16.8040  -11.7780   -4.5950 C.3   161  ARG161      0.0489
    144  CD       -15.6230  -12.2020   -5.5110 C.3   161  ARG161      0.2205
    145  NE       -14.9020  -11.0890   -6.1780 N.pl3 161  ARG161     -0.0865
    146  CZ       -13.5800  -11.1730   -6.4650 C.cat 161  ARG161      0.5346
    147  NH1      -12.8270  -10.2070   -7.1030 N.pl3 161  ARG161      0.1354
    148  NH2      -13.0120  -12.3540   -6.2480 N.pl3 161  ARG161      0.1354
    149  N        -13.7120   -1.4480  -12.2340 N.3   172  ARG172     -0.1245
    150  CA       -12.4270   -2.1830  -12.0850 C.3   172  ARG172      0.1563
    151  C        -11.6300   -2.1640  -13.4000 C.2   172  ARG172      0.2260
    152  O        -10.4260   -2.0660  -13.3920 O.2   172  ARG172     -0.2867
    153  CB       -12.6770   -3.6960  -11.6850 C.3   172  ARG172      0.0307
    154  CG       -13.1660   -3.7730  -10.2920 C.3   172  ARG172      0.0489
    155  CD       -13.8630   -5.1500  -10.0140 C.3   172  ARG172      0.2205
    156  NE       -12.8820   -6.2300  -10.0970 N.pl3 172  ARG172     -0.0865
    157  CZ       -13.2470   -7.5100  -10.0240 C.cat 172  ARG172      0.5346
    158  NH1      -12.2260   -8.4380  -10.0190 N.pl3 172  ARG172      0.1354
    159  NH2      -14.5270   -7.8860  -10.0140 N.pl3 172  ARG172      0.1354
    160  N         -5.0360  -15.2360  -23.5340 N.3   198  GLY198     -0.1225
    161  CA        -5.8850  -15.8600  -22.5580 C.3   198  GLY198      0.1811
    162  C         -7.2570  -16.2270  -22.9780 C.2   198  GLY198      0.2280
    163  O         -7.9950  -16.7060  -22.1460 O.2   198  GLY198     -0.2866
    164  N         -8.7630  -18.5240  -24.5500 N.3   200  ARG200     -0.1231
    165  CA        -8.7220  -19.9190  -24.9490 C.3   200  ARG200      0.1694
    166  C         -9.0590  -20.7550  -23.7770 C.2   200  ARG200      0.2592
    167  O         -9.1110  -20.3020  -22.6150 O.2   200  ARG200     -0.2718
    168  CB        -7.3810  -20.3840  -25.5180 C.3   200  ARG200      0.0321
    169  CG        -6.9920  -19.5830  -26.6980 C.3   200  ARG200      0.0489
    170  CD        -5.5770  -20.0270  -27.0780 C.3   200  ARG200      0.2205
    171  NE        -4.5770  -19.5100  -26.1310 N.pl3 200  ARG200     -0.0865
    172  CZ        -3.3710  -20.0130  -25.9140 C.cat 200  ARG200      0.5346
    173  NH1       -2.9850  -21.1020  -26.6100 N.pl3 200  ARG200      0.1354
    174  NH2       -2.5220  -19.4100  -25.0530 N.pl3 200  ARG200      0.1354
    175  N         -9.2710  -22.0580  -24.0780 N.am  201  ASP201     -0.1960
    176  CA        -9.4250  -23.0240  -22.9970 C.3   201  ASP201      0.1840
    177  C         -8.3030  -22.8840  -21.9140 C.2   201  ASP201      0.2621
    178  O         -7.1760  -22.6730  -22.3140 O.2   201  ASP201     -0.2715
    179  CB        -9.4080  -24.4530  -23.6400 C.3   201  ASP201      0.1450
    180  CG        -9.7530  -25.5340  -22.6080 C.2   201  ASP201      0.3671
    181  OD1       -8.9320  -26.0100  -21.8000 O.co2 201  ASP201     -0.2456
    182  OD2      -10.9310  -25.8810  -22.5410 O.co2 201  ASP201     -0.2456
    183  N         -8.6290  -22.9970  -20.6490 N.am  202  ILE202     -0.1977
    184  CA        -7.6550  -22.8820  -19.5820 C.3   202  ILE202      0.1596
    185  C         -6.5040  -23.8550  -19.8120 C.2   202  ILE202      0.2287
    186  O         -5.3200  -23.5310  -19.4840 O.2   202  ILE202     -0.2864
    187  CB        -8.2900  -23.0540  -18.1490 C.3   202  ILE202      0.0276
    188  CG1       -8.6760  -24.4950  -17.8070 C.3   202  ILE202      0.0022
    189  CG2       -9.6170  -22.2650  -18.0100 C.3   202  ILE202      0.0022
    190  CD1       -8.4570  -24.7910  -16.3120 C.3   202  ILE202      0.0001
    191  N         -4.1690  -22.2350  -22.3480 N.3   205  VAL205     -0.1245
    192  CA        -3.4180  -21.1380  -21.7390 C.3   205  VAL205      0.1561
    193  C         -2.3310  -21.6830  -20.8120 C.2   205  VAL205      0.2260
    194  O         -1.2170  -21.2030  -20.8660 O.2   205  VAL205     -0.2867
    195  CB        -4.3390  -20.1970  -20.9500 C.3   205  VAL205      0.0252
    196  CG1       -3.5990  -18.9970  -20.3430 C.3   205  VAL205      0.0019
    197  CG2       -5.4540  -19.6480  -21.8500 C.3   205  VAL205      0.0019
@<TRIPOS>BOND
     1   170   169    1
     2   170   171    1
     3   169   168    1
     4   173   172    1
     5   171   172    2
     6   172   174    1
     7   168   165    1
     8   165   164    1
     9   165   166    1
    10   175   166   am
    11   175   176    1
    12   166   167    2
    13   179   176    1
    14   179   180    1
    15   160   161    1
    16   176   177    1
    17   162   161    1
    18   162   163    2
    19   180   182   ar
    20   180   181   ar
    21   191   192    1
    22   178   177    2
    23   177   183   am
    24   197   195    1
    25   127   129   ar
    26   127   125   ar
    27   192   195    1
    28   192   193    1
    29   129   128   ar
    30    70    68    1
    31   195   196    1
    32   194   193    2
    33   125   124   ar
    34   183   184    1
    35   128   126   ar
    36    68    67    2
    37    68    69    1
    38    67    66    1
    39   185   184    1
    40   185   186    2
    41   184   187    1
    42   124   126   ar
    43   124   123    1
    44    66    65    1
    45   120   123    1
    46   120   119    1
    47   120   121    1
    48    65    64    1
    49   187   189    1
    50   187   188    1
    51    60    61    1
    52    15    14    2
    53   188   190    1
    54   122   121    2
    55   121   130   am
    56    16    13    1
    57    64    61    1
    58    13    14    1
    59    13    12    1
    60   117   115   ar
    61   117   118   ar
    62    61    62    1
    63    14    17   am
    64   115   114   ar
    65    11    10    2
    66   118   116   ar
    67   130   131    1
    68    12    10   am
    69    10     9    1
    70    17    18    1
    71    62    71   am
    72    62    63    2
    73     4     3    2
    74   114   116   ar
    75   114   113    1
    76    18    19    1
    77    71    72    1
    78   131   134    1
    79   131   132    1
    80   112   111    2
    81     9     8    1
    82   113   110    1
    83     3     8   am
    84     3     2    1
    85   111   110    1
    86    19    20    2
    87    19    21   am
    88     1     7    1
    89     1     2    1
    90   134   135    1
    91   132   133    2
    92     7     6    1
    93    40    38    1
    94    72    75    1
    95    72    73    1
    96    77    76    1
    97    21    22    1
    98    76    75    1
    99    76    78    1
   100   110   109    1
   101   136   135    2
   102    73    74    2
   103     2     5    1
   104    38    39    1
   105    38    35    1
   106    26    27    1
   107    26    25    1
   108   135   137   am
   109   151   152    2
   110   151   150    1
   111     5     6    1
   112    22    25    1
   113    22    23    1
   114    27    28    1
   115    36    37    2
   116    36    35    1
   117    79    80    1
   118   109    99   am
   119    29    28    1
   120    35    34    1
   121   149   150    1
   122   150   153    1
   123    23    24    2
   124    23    30   am
   125    34    32   am
   126    80    83    1
   127    80    81    1
   128   153   154    1
   129    99   100    2
   130    99    98    1
   131    30    31    1
   132    83    84    1
   133    32    31    1
   134    32    33    2
   135    81    82    2
   136    98   101    1
   137    98    97    1
   138   154   155    1
   139   101   102    1
   140   156   157    2
   141   156   155    1
   142    84    85    1
   143   157   158    1
   144   157   159    1
   145    89    87    1
   146    85    86    1
   147    87    88    1
   148    87    86    2
   149   103   102   ar
   150   103   105   ar
   151    96    94    1
   152    97    92   am
   153    58    57   ar
   154    93    92    2
   155   102   104   ar
   156    92    91    1
   157   105   107   ar
   158    57    59   ar
   159    57    56    1
   160    53    56    1
   161    53    54    1
   162    53    52    1
   163    94    91    1
   164    94    95    1
   165    54    55    2
   166   104   106   ar
   167    91    90    1
   168   107   106   ar
   169   107   108    1
   170   147   146    1
   171   141   140    2
   172   146   148    1
   173   146   145    2
   174   145   144    1
   175   138   139    1
   176   142   139    1
   177   142   143    1
   178   144   143    1
   179   140   139    1
   180    50    49    1
   181    51    49    1
   182    49    48    2
   183    48    47    1
   184    47    46    1
   185    46    45    1
   186    45    42    1
   187    41    42    1
   188    42    43    1
   189    43    44    2
