@<TRIPOS>MOLECULE
tmp/4mkiB01.pdb
 146 134 0 0 0
SMALL
GASTEIGER

@<TRIPOS>ATOM
      1  N        131.6340  129.6390   -6.1680 N.3   132  VAL132     -0.1245
      2  CA       131.1920  130.5850   -7.2080 C.3   132  VAL132      0.1561
      3  C        131.3220  132.0250   -6.7940 C.2   132  VAL132      0.2260
      4  O        130.9150  132.9120   -7.5350 O.2   132  VAL132     -0.2867
      5  CB       129.7450  130.3450   -7.6610 C.3   132  VAL132      0.0252
      6  CG1      129.5540  128.8740   -7.9900 C.3   132  VAL132      0.0019
      7  CG2      128.7260  130.7910   -6.6140 C.3   132  VAL132      0.0019
      8  N        121.9500  140.9220   -8.7080 N.3   147  SER147     -0.1202
      9  CA       122.4370  141.1700  -10.1000 C.3   147  SER147      0.2020
     10  C        122.1480  139.9980  -11.0620 C.2   147  SER147      0.2619
     11  O        122.0940  138.8310  -10.6280 O.2   147  SER147     -0.2717
     12  CB       123.9770  141.2240  -10.1830 C.3   147  SER147      0.2103
     13  OG       124.5720  142.1480   -9.3340 O.3   147  SER147     -0.2182
     14  N        122.1080  140.3160  -12.3600 N.am  148  GLY148     -0.1942
     15  CA       122.1730  139.3070  -13.3800 C.3   148  GLY148      0.2014
     16  C        123.3140  138.3340  -13.1850 C.2   148  GLY148      0.2639
     17  O        123.1060  137.1240  -13.2270 O.2   148  GLY148     -0.2714
     18  N        124.4970  138.8510  -12.9050 N.am  149  GLY149     -0.1954
     19  CA       125.6530  138.0310  -12.7110 C.3   149  GLY149      0.1869
     20  C        125.6020  137.2070  -11.4460 C.2   149  GLY149      0.2309
     21  O        126.0430  136.0290  -11.4080 O.2   149  GLY149     -0.2863
     22  N        123.3280  134.3450  -11.9280 N.3   152  ARG152     -0.1231
     23  CA       123.9250  133.2910  -12.7220 C.3   152  ARG152      0.1694
     24  C        124.8570  132.4730  -11.8540 C.2   152  ARG152      0.2591
     25  O        124.9420  131.2620  -12.0180 O.2   152  ARG152     -0.2718
     26  CB       124.6250  133.8540  -13.9430 C.3   152  ARG152      0.0321
     27  CG       125.2940  132.7550  -14.7750 C.3   152  ARG152      0.0489
     28  CD       125.6850  133.2350  -16.1580 C.3   152  ARG152      0.2205
     29  NE       124.5550  133.6350  -16.9720 N.pl3 152  ARG152     -0.0865
     30  CZ       124.6300  134.0260  -18.2210 C.cat 152  ARG152      0.5346
     31  NH1      125.7860  133.9980  -18.8760 N.pl3 152  ARG152      0.1354
     32  NH2      123.5440  134.4520  -18.8340 N.pl3 152  ARG152      0.1354
     33  N        125.5320  133.1310  -10.9000 N.am  153  ARG153     -0.1980
     34  CA       126.3630  132.4420   -9.8680 C.3   153  ARG153      0.1597
     35  C        125.5730  131.4830   -9.0120 C.2   153  ARG153      0.2287
     36  O        125.9830  130.3680   -8.7650 O.2   153  ARG153     -0.2864
     37  CB       127.0370  133.4720   -8.9490 C.3   153  ARG153      0.0334
     38  CG       128.0590  134.3500   -9.6290 C.3   153  ARG153      0.0492
     39  CD       128.7280  135.2820   -8.6430 C.3   153  ARG153      0.2205
     40  NE       129.5300  136.3080   -9.3060 N.pl3 153  ARG153     -0.0865
     41  CZ       130.8290  136.1800   -9.5610 C.cat 153  ARG153      0.5346
     42  NH1      131.4880  137.1890  -10.1660 N.pl3 153  ARG153      0.1354
     43  NH2      131.4900  135.0660   -9.2150 N.pl3 153  ARG153      0.1354
     44  N        124.4250  128.4170  -10.8830 N.3   156  ILE156     -0.1245
     45  CA       125.5400  127.4630  -11.0700 C.3   156  ILE156      0.1561
     46  C        125.9660  126.7470   -9.7740 C.2   156  ILE156      0.2260
     47  O        126.3290  125.5480   -9.7710 O.2   156  ILE156     -0.2867
     48  CB       126.7220  128.1460  -11.7230 C.3   156  ILE156      0.0252
     49  CG1      126.3890  128.5330  -13.1680 C.3   156  ILE156      0.0019
     50  CG2      127.8990  127.2120  -11.7780 C.3   156  ILE156      0.0019
     51  CD1      127.4130  129.4810  -13.8050 C.3   156  ILE156      0.0001
     52  N        126.7620  122.7080   -8.7040 N.3   160  LEU160     -0.1245
     53  CA       127.9970  122.2860   -8.0510 C.3   160  LEU160      0.1561
     54  C        127.7860  121.7390   -6.6360 C.2   160  LEU160      0.2260
     55  O        128.5490  120.9080   -6.1640 O.2   160  LEU160     -0.2867
     56  CB       128.9620  123.4560   -7.9900 C.3   160  LEU160      0.0270
     57  CG       129.5220  123.9740   -9.3130 C.3   160  LEU160      0.0019
     58  CD1      130.2910  125.2500   -9.0490 C.3   160  LEU160      0.0001
     59  CD2      130.4450  122.9470   -9.9560 C.3   160  LEU160      0.0001
     60  N        131.2680  118.5330  -15.3940 N.3   167  LEU167     -0.1245
     61  CA       130.4500  119.7290  -15.4150 C.3   167  LEU167      0.1561
     62  C        130.2720  120.1970  -16.8400 C.2   167  LEU167      0.2260
     63  O        131.2390  120.4380  -17.5790 O.2   167  LEU167     -0.2867
     64  CB       131.0560  120.8140  -14.5590 C.3   167  LEU167      0.0270
     65  CG       130.2270  122.1110  -14.5720 C.3   167  LEU167      0.0019
     66  CD1      128.8550  121.9010  -13.9490 C.3   167  LEU167      0.0001
     67  CD2      130.9590  123.2410  -13.8900 C.3   167  LEU167      0.0001
     68  N        128.6760  122.9500  -19.3890 N.3   169  LEU169     -0.1245
     69  CA       128.0740  124.2720  -19.4910 C.3   169  LEU169      0.1561
     70  C        127.7100  124.6090  -20.9240 C.2   169  LEU169      0.2260
     71  O        128.5310  124.5280  -21.8070 O.2   169  LEU169     -0.2867
     72  CB       129.0270  125.3050  -18.9900 C.3   169  LEU169      0.0270
     73  CG       129.4130  125.0420  -17.5490 C.3   169  LEU169      0.0019
     74  CD1      130.8670  124.6500  -17.5350 C.3   169  LEU169      0.0001
     75  CD2      129.2460  126.3050  -16.7260 C.3   169  LEU169      0.0001
     76  N        126.6950  138.3460  -21.5050 N.3   176  LEU176     -0.1231
     77  CA       127.5700  139.0990  -20.6570 C.3   176  LEU176      0.1693
     78  C        128.3760  140.1430  -21.4160 C.2   176  LEU176      0.2592
     79  O        128.6750  139.9790  -22.5780 O.2   176  LEU176     -0.2718
     80  CB       128.5210  138.1250  -19.9340 C.3   176  LEU176      0.0284
     81  CG       127.8780  137.0550  -19.0530 C.3   176  LEU176      0.0019
     82  CD1      128.9580  136.1650  -18.4420 C.3   176  LEU176      0.0001
     83  CD2      127.0080  137.6870  -17.9610 C.3   176  LEU176      0.0001
     84  N        128.8220  141.1720  -20.6950 N.am  177  ASP177     -0.1974
     85  CA       129.6890  142.1540  -21.3070 C.3   177  ASP177      0.1709
     86  C        131.0980  141.5520  -21.4080 C.2   177  ASP177      0.2293
     87  O        131.3590  140.4350  -20.8830 O.2   177  ASP177     -0.2864
     88  CB       129.6090  143.4920  -20.5540 C.3   177  ASP177      0.1436
     89  CG       130.2150  143.4510  -19.1120 C.2   177  ASP177      0.3671
     90  OD1      130.8990  142.4790  -18.7130 O.co2 177  ASP177     -0.2456
     91  OD2      129.8960  144.3920  -18.3920 O.co2 177  ASP177     -0.2456
     92  N        133.9020  142.0190  -20.0570 N.3   179  LYS179     -0.1231
     93  CA       134.6220  141.6800  -18.8390 C.3   179  LYS179      0.1693
     94  C        133.9350  140.4820  -18.1480 C.2   179  LYS179      0.2592
     95  O        134.5890  139.6430  -17.6170 O.2   179  LYS179     -0.2718
     96  CB       134.7030  142.9200  -17.9450 C.3   179  LYS179      0.0285
     97  CG       135.2560  142.7050  -16.5550 C.3   179  LYS179      0.0035
     98  CD       135.5430  144.0620  -15.9310 C.3   179  LYS179      0.0206
     99  CE       135.8300  143.9650  -14.4560 C.3   179  LYS179      0.1093
    100  NZ       134.5520  144.1060  -13.6950 N.3   179  LYS179     -0.1314
    101  N        132.6070  140.4650  -18.1680 N.am  180  GLY180     -0.1957
    102  CA       131.8200  139.3650  -17.6570 C.3   180  GLY180      0.1869
    103  C        132.2050  138.0440  -18.3200 C.2   180  GLY180      0.2309
    104  O        132.3940  137.0150  -17.6610 O.2   180  GLY180     -0.2863
    105  N        135.5310  136.9080  -17.0500 N.3   183  GLU183     -0.1231
    106  CA       135.4350  136.4960  -15.6610 C.3   183  GLU183      0.1699
    107  C        134.8230  135.1140  -15.5090 C.2   183  GLU183      0.2592
    108  O        135.2610  134.3160  -14.6870 O.2   183  GLU183     -0.2718
    109  CB       134.7050  137.5090  -14.8330 C.3   183  GLU183      0.0402
    110  CG       134.5710  137.0770  -13.3930 C.3   183  GLU183      0.1161
    111  CD       133.8750  138.0990  -12.4970 C.2   183  GLU183      0.3649
    112  OE1      133.4170  139.1740  -12.9900 O.co2 183  GLU183     -0.2457
    113  OE2      133.8200  137.8220  -11.2770 O.co2 183  GLU183     -0.2457
    114  N        133.7690  134.8110  -16.2500 N.am  184  ILE184     -0.1980
    115  CA       133.1370  133.5150  -16.0640 C.3   184  ILE184      0.1595
    116  C        134.0640  132.4170  -16.5830 C.2   184  ILE184      0.2287
    117  O        134.2030  131.4050  -15.9580 O.2   184  ILE184     -0.2864
    118  CB       131.6730  133.4490  -16.6010 C.3   184  ILE184      0.0276
    119  CG1      131.0420  132.1160  -16.2330 C.3   184  ILE184      0.0022
    120  CG2      131.6460  133.5590  -18.1050 C.3   184  ILE184      0.0022
    121  CD1      129.5680  132.1210  -16.2270 C.3   184  ILE184      0.0001
    122  N        136.8570  131.8390  -14.0340 N.3   187  LYS187     -0.1231
    123  CA       136.3110  131.1070  -12.9070 C.3   187  LYS187      0.1693
    124  C        135.9780  129.6240  -13.2500 C.2   187  LYS187      0.2591
    125  O        136.1960  128.7110  -12.4480 O.2   187  LYS187     -0.2718
    126  CB       135.0520  131.8200  -12.4210 C.3   187  LYS187      0.0285
    127  CG       134.6030  131.4380  -11.0330 C.3   187  LYS187      0.0035
    128  CD       135.7170  131.6650  -10.0070 C.3   187  LYS187      0.0206
    129  CE       135.1770  131.9820   -8.6260 C.3   187  LYS187      0.1093
    130  NZ       136.1700  131.5510   -7.6160 N.3   187  LYS187     -0.1314
    131  N        135.5000  129.3770  -14.4480 N.am  188  ILE188     -0.1980
    132  CA       135.2670  128.0150  -14.8620 C.3   188  ILE188      0.1595
    133  C        136.5950  127.2470  -14.9020 C.2   188  ILE188      0.2287
    134  O        136.6430  126.1200  -14.4740 O.2   188  ILE188     -0.2864
    135  CB       134.6030  127.9790  -16.2480 C.3   188  ILE188      0.0276
    136  CG1      133.1820  128.4840  -16.1560 C.3   188  ILE188      0.0022
    137  CG2      134.5860  126.5740  -16.8400 C.3   188  ILE188      0.0022
    138  CD1      132.6220  128.8770  -17.5200 C.3   188  ILE188      0.0001
    139  N        138.0380  126.6320  -11.3570 N.3   191  ILE191     -0.1245
    140  CA       137.3270  125.5690  -10.6590 C.3   191  ILE191      0.1561
    141  C        137.6820  124.2020  -11.3120 C.2   191  ILE191      0.2260
    142  O        137.7980  123.1900  -10.6080 O.2   191  ILE191     -0.2867
    143  CB       135.8240  125.8110  -10.6910 C.3   191  ILE191      0.0252
    144  CG1      135.4410  126.9730   -9.8120 C.3   191  ILE191      0.0019
    145  CG2      135.0380  124.5880  -10.2290 C.3   191  ILE191      0.0019
    146  CD1      134.0780  127.5640  -10.1750 C.3   191  ILE191      0.0001
@<TRIPOS>BOND
     1    79    78    2
     2    71    70    2
     3    76    77    1
     4    78    84   am
     5    78    77    1
     6    86    85    1
     7    86    87    2
     8    85    84    1
     9    85    88    1
    10    70    69    1
    11    77    80    1
    12    88    89    1
    13    92    93    1
    14    80    81    1
    15    69    68    1
    16    69    72    1
    17    89    90   ar
    18    89    91   ar
    19    81    82    1
    20    81    83    1
    21    72    73    1
    22    31    30    1
    23    93    94    1
    24    93    96    1
    25    32    30    1
    26   103   104    2
    27   103   102    1
    28    30    29    2
    29   101    94   am
    30   101   102    1
    31    94    95    2
    32   120   118    1
    33    96    97    1
    34    63    62    2
    35    73    74    1
    36    73    75    1
    37   138   136    1
    38   105   106    1
    39    29    28    1
    40    62    61    1
    41   137   135    1
    42   118   119    1
    43   118   115    1
    44   116   115    1
    45   116   117    2
    46    97    98    1
    47   114   115    1
    48   114   107   am
    49   135   136    1
    50   135   132    1
    51   119   121    1
    52    28    27    1
    53    98    99    1
    54   106   107    1
    55   106   109    1
    56   107   108    2
    57    61    60    1
    58    61    64    1
    59   133   132    1
    60   133   134    2
    61   132   131    1
    62   109   110    1
    63    27    26    1
    64    65    64    1
    65    65    66    1
    66    65    67    1
    67    99   100    1
    68   131   124   am
    69   122   123    1
    70    26    23    1
    71    51    49    1
    72   110   111    1
    73    15    16    1
    74    15    14    1
    75   124   123    1
    76   124   125    2
    77    17    16    2
    78    16    18   am
    79    49    48    1
    80   112   111   ar
    81   123   126    1
    82    18    19    1
    83    23    22    1
    84    23    24    1
    85    19    20    1
    86   111   113   ar
    87   126   127    1
    88    14    10   am
    89    25    24    2
    90    24    33   am
    91    50    48    1
    92    48    45    1
    93    20    21    2
    94   139   140    1
    95   141   140    1
    96   141   142    2
    97    45    44    1
    98    45    46    1
    99    10    11    2
   100    10     9    1
   101   127   128    1
   102    33    34    1
   103   143   140    1
   104   143   145    1
   105   143   144    1
   106    12     9    1
   107    12    13    1
   108   146   144    1
   109    42    41    1
   110     9     8    1
   111   128   129    1
   112    59    57    1
   113    34    35    1
   114    34    37    1
   115    46    47    2
   116    38    37    1
   117    38    39    1
   118    41    40    2
   119    41    43    1
   120    57    58    1
   121    57    56    1
   122    40    39    1
   123    35    36    2
   124    52    53    1
   125   129   130    1
   126    53    56    1
   127    53    54    1
   128     6     5    1
   129     5     2    1
   130     5     7    1
   131     4     3    2
   132     2     3    1
   133     2     1    1
   134    54    55    2
