@<TRIPOS>MOLECULE
tmp/4mknA00.pdb
 97 92 0 0 0
SMALL
GASTEIGER

@<TRIPOS>ATOM
      1  N          9.1760    9.7170   12.1330 N.3    10  ASN10      -0.1225
      2  CA         9.8390    8.6270   11.3820 C.3    10  ASN10       0.1785
      3  C          9.6090    7.3220   12.0750 C.2    10  ASN10       0.2597
      4  O         10.2140    7.0240   13.1100 O.2    10  ASN10      -0.2718
      5  CB        11.3440    8.9240   11.2800 C.3    10  ASN10       0.1169
      6  CG        12.0970    7.8990   10.5220 C.2    10  ASN10       0.2627
      7  OD1       11.5170    7.0050    9.8940 O.2    10  ASN10      -0.2716
      8  ND2       13.4230    8.0020   10.5630 N.am   10  ASN10      -0.0877
      9  N          8.7030    6.5040   11.5140 N.am   11  TRP11      -0.1962
     10  CA         8.3740    5.2140   12.1470 C.3    11  TRP11       0.1771
     11  C          9.5100    4.2530   12.0010 C.2    11  TRP11       0.2619
     12  O          9.5340    3.1890   12.7130 O.2    11  TRP11      -0.2715
     13  CB         7.1430    4.6230   11.5320 C.3    11  TRP11       0.0590
     14  CG         5.8750    5.4460   11.7640 C.ar   11  TRP11       0.0006
     15  CD1        5.7940    6.6520   12.3950 C.ar   11  TRP11       0.0946
     16  CD2        4.5780    5.1150   11.3270 C.ar   11  TRP11       0.0152
     17  NE1        4.4750    7.0910   12.3620 N.ar   11  TRP11      -0.2442
     18  CE2        3.7330    6.1720   11.7050 C.ar   11  TRP11       0.0810
     19  CE3        4.0110    3.9850   10.6570 C.ar   11  TRP11       0.0012
     20  CZ2        2.3530    6.1460   11.4260 C.ar   11  TRP11       0.0191
     21  CZ3        2.6400    3.9910   10.3830 C.ar   11  TRP11       0.0001
     22  CH2        1.8280    5.0650   10.7880 C.ar   11  TRP11       0.0015
     23  N         10.4820    4.5000   11.1290 N.am   12  LYS12      -0.1977
     24  CA        11.6070    3.5620   10.8380 C.3    12  LYS12       0.1596
     25  C         10.9930    2.2200   10.4040 C.2    12  LYS12       0.2287
     26  O          9.9400    2.1710    9.8010 O.2    12  LYS12      -0.2864
     27  CB        12.6020    3.4910   11.9750 C.3    12  LYS12       0.0298
     28  CG        13.1180    4.9040   12.3620 C.3    12  LYS12       0.0038
     29  CD        14.2470    4.8340   13.3520 C.3    12  LYS12       0.0206
     30  CE        14.7010    6.2230   13.7800 C.3    12  LYS12       0.1093
     31  NZ        15.8930    6.1170   14.6800 N.3    12  LYS12      -0.1314
     32  N          9.3030   -0.3220   11.3840 N.3    14  ASN14      -0.1240
     33  CA         8.4200   -0.8140   12.4520 C.3    14  ASN14       0.1653
     34  C          7.0210   -0.7810   11.9170 C.2    14  ASN14       0.2266
     35  O          6.6080    0.0290   11.1090 O.2    14  ASN14      -0.2867
     36  CB         8.4900    0.1290   13.6840 C.3    14  ASN14       0.1155
     37  CG         9.7860    0.0450   14.3630 C.2    14  ASN14       0.2627
     38  OD1       10.0400   -0.9920   15.0680 O.2    14  ASN14      -0.2716
     39  ND2       10.6780    0.9850   14.2050 N.am   14  ASN14      -0.0877
     40  N         23.1870    9.3960   19.7030 N.3   170  ILE170     -0.1245
     41  CA        22.1520    8.3860   19.2830 C.3   170  ILE170      0.1561
     42  C         22.8420    7.0190   19.3360 C.2   170  ILE170      0.2260
     43  O         23.8250    6.7460   18.6600 O.2   170  ILE170     -0.2867
     44  CB        21.5270    8.7710   17.8300 C.3   170  ILE170      0.0252
     45  CG1       20.8300   10.1890   17.8250 C.3   170  ILE170      0.0019
     46  CG2       20.6110    7.5600   17.3940 C.3   170  ILE170      0.0019
     47  CD1       20.4590   10.7210   16.4200 C.3   170  ILE170      0.0001
     48  N         16.6630   16.2850   15.1820 N.3   209  GLY209     -0.1210
     49  CA        16.4340   14.8470   15.0190 C.3   209  GLY209      0.1956
     50  C         17.2010   14.0280   15.9720 C.2   209  GLY209      0.2612
     51  O         17.4470   12.8000   15.6920 O.2   209  GLY209     -0.2717
     52  N         17.5750   14.5560   17.1210 N.am  210  GLY210     -0.1942
     53  CA        18.1450   13.7530   18.2230 C.3   210  GLY210      0.2014
     54  C         17.0060   13.1240   18.9260 C.2   210  GLY210      0.2640
     55  O         15.8660   13.0830   18.3900 O.2   210  GLY210     -0.2714
     56  N         17.2190   12.6460   20.0630 N.am  211  SER211     -0.1935
     57  CA        16.1420   11.7730   20.6780 C.3   211  SER211      0.2055
     58  C         15.2250   12.9390   21.3040 C.2   211  SER211      0.2642
     59  O         15.5670   13.9090   22.0960 O.2   211  SER211     -0.2714
     60  CB        16.8010   10.8370   21.6460 C.3   211  SER211      0.2130
     61  OG        17.8070   10.0470   21.0330 O.3   211  SER211     -0.2179
     62  N         14.0120   12.8290   20.6870 N.am  212  VAL212     -0.1977
     63  CA        12.9010   13.7520   20.9910 C.3   212  VAL212      0.1596
     64  C         11.7830   12.9140   21.5540 C.2   212  VAL212      0.2287
     65  O         11.3270   11.9870   20.9210 O.2   212  VAL212     -0.2864
     66  CB        12.3610   14.5320   19.6650 C.3   212  VAL212      0.0276
     67  CG1       11.2250   15.5180   20.1110 C.3   212  VAL212      0.0022
     68  CG2       13.5190   15.2860   19.0180 C.3   212  VAL212      0.0022
     69  N         12.4260   15.9200   13.9710 N.3   230  LEU230     -0.1245
     70  CA        12.2920   14.6250   13.2690 C.3   230  LEU230      0.1561
     71  C         12.3370   13.5950   14.3530 C.2   230  LEU230      0.2260
     72  O         13.3910   13.3140   14.9460 O.2   230  LEU230     -0.2867
     73  CB        13.4000   14.4400   12.2380 C.3   230  LEU230      0.0270
     74  CG        13.1880   13.1510   11.3900 C.3   230  LEU230      0.0019
     75  CD1       11.8950   13.1460   10.6350 C.3   230  LEU230      0.0001
     76  CD2       14.3820   12.9470   10.4210 C.3   230  LEU230      0.0001
     77  N         11.8860   10.0160   16.2640 N.3   232  GLY232     -0.1210
     78  CA        12.1330    8.5500   16.0380 C.3   232  GLY232      0.1956
     79  C         11.1160    7.7530   16.8000 C.2   232  GLY232      0.2612
     80  O          9.9260    7.7970   16.5130 O.2   232  GLY232     -0.2717
     81  N         11.5600    6.9550   17.7930 N.am  233  GLY233     -0.1942
     82  CA        10.6650    5.9810   18.4690 C.3   233  GLY233      0.2014
     83  C          9.4130    6.5610   19.1040 C.2   233  GLY233      0.2638
     84  O          8.4050    5.8790   19.1580 O.2   233  GLY233     -0.2714
     85  N          9.4420    7.8090   19.5800 N.am  234  ALA234     -0.1977
     86  CA         8.2300    8.3790   20.1530 C.3   234  ALA234      0.1597
     87  C          7.1120    8.5070   19.1130 C.2   234  ALA234      0.2287
     88  O          5.9800    8.6650   19.4650 O.2   234  ALA234     -0.2864
     89  CB         8.5100    9.7460   20.8670 C.3   234  ALA234      0.0319
     90  N          5.9540    6.2920   17.3780 N.3   236  LEU236     -0.1245
     91  CA         5.1630    5.0560   17.3780 C.3   236  LEU236      0.1561
     92  C          4.1060    5.0220   18.4850 C.2   236  LEU236      0.2260
     93  O          3.3510    4.0650   18.5670 O.2   236  LEU236     -0.2867
     94  CB         6.0880    3.8450   17.5000 C.3   236  LEU236      0.0270
     95  CG         7.1210    3.7100   16.3760 C.3   236  LEU236      0.0019
     96  CD1        8.0860    2.5500   16.6840 C.3   236  LEU236      0.0001
     97  CD2        6.4520    3.5620   15.0320 C.3   236  LEU236      0.0001
@<TRIPOS>BOND
     1    26    25    2
     2     7     6    2
     3    21    19   ar
     4    21    22   ar
     5    25    24    1
     6    76    74    1
     7     6     8   am
     8     6     5    1
     9    75    74    1
    10    19    16   ar
    11    22    20   ar
    12    24    23    1
    13    24    27    1
    14    35    34    2
    15    23    11   am
    16     5     2    1
    17    16    18   ar
    18    16    14   ar
    19     2     3    1
    20     2     1    1
    21    32    33    1
    22    74    73    1
    23    20    18   ar
    24     9     3   am
    25     9    10    1
    26    13    14    1
    27    13    10    1
    28    18    17   ar
    29    14    15   ar
    30    34    33    1
    31    27    28    1
    32    11    10    1
    33    11    12    2
    34     3     4    2
    35    73    70    1
    36    17    15   ar
    37    28    29    1
    38    33    36    1
    39    70    69    1
    40    70    71    1
    41    29    30    1
    42    36    37    1
    43    30    31    1
    44    39    37   am
    45    71    72    2
    46    37    38    2
    47    49    48    1
    48    49    50    1
    49    97    95    1
    50    51    50    2
    51    50    52   am
    52    78    77    1
    53    78    79    1
    54    95    96    1
    55    95    94    1
    56    47    45    1
    57    80    79    2
    58    79    81   am
    59    52    53    1
    60    91    90    1
    61    91    94    1
    62    91    92    1
    63    46    44    1
    64    81    82    1
    65    45    44    1
    66    44    41    1
    67    53    54    1
    68    55    54    2
    69    82    83    1
    70    92    93    2
    71    43    42    2
    72    54    56   am
    73    68    66    1
    74    83    84    2
    75    83    85   am
    76    87    88    2
    77    87    86    1
    78    41    42    1
    79    41    40    1
    80    85    86    1
    81    66    67    1
    82    66    63    1
    83    56    57    1
    84    86    89    1
    85    57    58    1
    86    57    60    1
    87    62    63    1
    88    62    58   am
    89    65    64    2
    90    63    64    1
    91    61    60    1
    92    58    59    2
