@<TRIPOS>MOLECULE
tmp/4mktA01.pdb
 168 167 0 0 0
SMALL
GASTEIGER

@<TRIPOS>ATOM
      1  N        -32.7740   -3.8770    3.9420 N.3   134  GLN134     -0.1231
      2  CA       -31.8300   -3.5260    2.8620 C.3   134  GLN134      0.1698
      3  C        -30.7000   -2.7330    3.4920 C.2   134  GLN134      0.2592
      4  O        -30.9980   -1.8480    4.2680 O.2   134  GLN134     -0.2718
      5  CB       -32.5120   -2.7330    1.7240 C.3   134  GLN134      0.0381
      6  CG       -31.6550   -2.5260    0.4620 C.3   134  GLN134      0.0905
      7  CD       -32.4060   -1.8230   -0.6490 C.2   134  GLN134      0.2608
      8  OE1      -33.2650   -0.9780   -0.3950 O.2   134  GLN134     -0.2717
      9  NE2      -32.0950   -2.1940   -1.8920 N.am  134  GLN134     -0.0878
     10  N        -29.4280   -2.9960    3.1310 N.am  135  ALA135     -0.1980
     11  CA       -28.9690   -4.0440    2.1960 C.3   135  ALA135      0.1597
     12  C        -28.8640   -5.4170    2.7840 C.2   135  ALA135      0.2287
     13  O        -29.4020   -6.3760    2.2270 O.2   135  ALA135     -0.2864
     14  CB       -27.6120   -3.6230    1.5350 C.3   135  ALA135      0.0319
     15  N        -34.8400    6.4150    5.5810 N.3   265  TYR265     -0.1241
     16  CA       -35.0050    6.6770    4.1360 C.3   265  TYR265      0.1605
     17  C        -36.2230    7.4670    3.8170 C.2   265  TYR265      0.2264
     18  O        -37.1440    7.5530    4.6310 O.2   265  TYR265     -0.2867
     19  CB       -35.0590    5.2980    3.4240 C.3   265  TYR265      0.0534
     20  CG       -33.7380    4.5450    3.5340 C.ar  265  TYR265     -0.0201
     21  CD1      -32.6000    4.9250    2.7790 C.ar  265  TYR265     -0.0009
     22  CD2      -33.6010    3.4510    4.3300 C.ar  265  TYR265     -0.0009
     23  CE1      -31.3940    4.2350    2.8870 C.ar  265  TYR265      0.0417
     24  CE2      -32.4080    2.7630    4.4580 C.ar  265  TYR265      0.0417
     25  CZ       -31.2730    3.1380    3.7150 C.ar  265  TYR265      0.1957
     26  OH       -30.0440    2.4900    3.9010 O.3   265  TYR265     -0.2866
     27  N        -24.7260   -6.3480   -4.4960 N.3   309  TRP309     -0.1227
     28  CA       -24.8040   -4.9320   -4.1730 C.3   309  TRP309      0.1737
     29  C        -23.8160   -4.0770   -4.9390 C.2   309  TRP309      0.2595
     30  O        -23.9700   -2.8560   -5.0110 O.2   309  TRP309     -0.2718
     31  CB       -24.6620   -4.6890   -2.6910 C.3   309  TRP309      0.0564
     32  CG       -25.8490   -5.3300   -1.9090 C.ar  309  TRP309      0.0003
     33  CD1      -25.7810   -6.3970   -1.0460 C.ar  309  TRP309      0.0946
     34  CD2      -27.2500   -5.0860   -2.1200 C.ar  309  TRP309      0.0152
     35  NE1      -27.0540   -6.7710   -0.6260 N.ar  309  TRP309     -0.2442
     36  CE2      -27.9750   -5.9880   -1.2940 C.ar  309  TRP309      0.0810
     37  CE3      -27.9460   -4.1150   -2.8290 C.ar  309  TRP309      0.0012
     38  CZ2      -29.3640   -5.9760   -1.2350 C.ar  309  TRP309      0.0191
     39  CZ3      -29.3660   -4.1450   -2.8420 C.ar  309  TRP309      0.0001
     40  CH2      -30.0480   -5.0620   -1.9960 C.ar  309  TRP309      0.0015
     41  N        -22.7970   -4.7190   -5.5700 N.am  310  ASP310     -0.1974
     42  CA       -21.9400   -3.9470   -6.4520 C.3   310  ASP310      0.1709
     43  C        -22.6610   -3.3890   -7.7170 C.2   310  ASP310      0.2293
     44  O        -22.2010   -2.4390   -8.2050 O.2   310  ASP310     -0.2864
     45  CB       -20.8410   -4.8900   -6.9820 C.3   310  ASP310      0.1436
     46  CG       -19.8270   -5.2640   -5.9400 C.2   310  ASP310      0.3671
     47  OD1      -19.7880   -4.7820   -4.8070 O.co2 310  ASP310     -0.2456
     48  OD2      -18.9570   -6.0530   -6.3110 O.co2 310  ASP310     -0.2456
     49  N        -25.9270   -2.3160   -7.6170 N.3   312  PHE312     -0.1227
     50  CA       -27.0630   -1.5310   -7.0540 C.3   312  PHE312      0.1736
     51  C        -27.5720   -0.4630   -7.9710 C.2   312  PHE312      0.2595
     52  O        -28.7360   -0.1960   -7.9840 O.2   312  PHE312     -0.2718
     53  CB       -26.6160   -0.9580   -5.7240 C.3   312  PHE312      0.0547
     54  CG       -27.6970   -0.2140   -4.8960 C.ar  312  PHE312     -0.0202
     55  CD1      -28.8260   -0.8720   -4.4660 C.ar  312  PHE312     -0.0042
     56  CD2      -27.4470    1.1050   -4.5050 C.ar  312  PHE312     -0.0042
     57  CE1      -29.7660   -0.1520   -3.7330 C.ar  312  PHE312     -0.0003
     58  CE2      -28.3200    1.7780   -3.6330 C.ar  312  PHE312     -0.0003
     59  CZ       -29.4810    1.1200   -3.2850 C.ar  312  PHE312     -0.0000
     60  N        -26.6870    0.1630   -8.7770 N.am  313  TRP313     -0.1976
     61  CA       -27.1730    1.1050   -9.7400 C.3   313  TRP313      0.1640
     62  C        -28.2390    0.5450  -10.6830 C.2   313  TRP313      0.2290
     63  O        -29.0760    1.2880  -11.1820 O.2   313  TRP313     -0.2864
     64  CB       -26.0510    1.7500  -10.6290 C.3   313  TRP313      0.0576
     65  CG       -25.6930    0.9200  -11.7780 C.ar  313  TRP313      0.0006
     66  CD1      -24.7800   -0.0520  -11.8370 C.ar  313  TRP313      0.0946
     67  CD2      -26.1850    1.0510  -13.1370 C.ar  313  TRP313      0.0152
     68  NE1      -24.7070   -0.6030  -13.0390 N.ar  313  TRP313     -0.2442
     69  CE2      -25.5740    0.0440  -13.8750 C.ar  313  TRP313      0.0810
     70  CE3      -27.1210    1.8730  -13.7750 C.ar  313  TRP313      0.0012
     71  CZ2      -25.7840   -0.1010  -15.2650 C.ar  313  TRP313      0.0191
     72  CZ3      -27.3690    1.7080  -15.1010 C.ar  313  TRP313      0.0001
     73  CH2      -26.7070    0.7080  -15.8520 C.ar  313  TRP313      0.0015
     74  N        -16.3760    5.4960   -4.3310 N.3   360  PHE360     -0.1241
     75  CA       -17.8460    5.4210   -4.1340 C.3   360  PHE360      0.1605
     76  C        -18.5360    6.3750   -5.1460 C.2   360  PHE360      0.2264
     77  O        -19.7500    6.5210   -5.1000 O.2   360  PHE360     -0.2867
     78  CB       -18.3480    5.8060   -2.7080 C.3   360  PHE360      0.0534
     79  CG       -17.8570    4.9180   -1.5410 C.ar  360  PHE360     -0.0203
     80  CD1      -17.2010    3.7090   -1.7620 C.ar  360  PHE360     -0.0042
     81  CD2      -18.0860    5.3360   -0.1990 C.ar  360  PHE360     -0.0042
     82  CE1      -16.7490    2.9370   -0.7000 C.ar  360  PHE360     -0.0003
     83  CE2      -17.6670    4.5510    0.8710 C.ar  360  PHE360     -0.0003
     84  CZ       -17.0140    3.3360    0.6280 C.ar  360  PHE360     -0.0000
     85  N        -17.9720    5.7380   -8.4430 N.3   362  LYS362     -0.1231
     86  CA       -18.1170    4.8640   -9.5710 C.3   362  LYS362      0.1693
     87  C        -19.5470    4.3330   -9.6320 C.2   362  LYS362      0.2591
     88  O        -20.2020    4.2170   -8.5700 O.2   362  LYS362     -0.2718
     89  CB       -17.1760    3.6460   -9.4330 C.3   362  LYS362      0.0285
     90  CG       -15.6680    4.0110   -9.4620 C.3   362  LYS362      0.0035
     91  CD       -14.7440    2.9020   -8.9080 C.3   362  LYS362      0.0206
     92  CE       -13.2630    3.1530   -9.3010 C.3   362  LYS362      0.1093
     93  NZ       -12.5260    1.8810   -9.1760 N.3   362  LYS362     -0.1314
     94  N        -19.9980    4.0200  -10.8140 N.am  363  LEU363     -0.1980
     95  CA       -21.3490    3.4730  -10.9970 C.3   363  LEU363      0.1596
     96  C        -21.4210    2.0330  -10.5520 C.2   363  LEU363      0.2287
     97  O        -22.3480    1.6770   -9.7820 O.2   363  LEU363     -0.2864
     98  CB       -21.7680    3.6360  -12.4200 C.3   363  LEU363      0.0297
     99  CG       -23.2320    3.3080  -12.7640 C.3   363  LEU363      0.0022
    100  CD1      -24.0980    4.2930  -12.0410 C.3   363  LEU363      0.0001
    101  CD2      -23.4610    3.4190  -14.2650 C.3   363  LEU363      0.0001
    102  N        -19.4780   -0.5330   -8.1560 N.3   365  VAL365     -0.1245
    103  CA       -18.6200   -0.3870   -6.9830 C.3   365  VAL365      0.1561
    104  C        -18.0600   -1.7510   -6.5980 C.2   365  VAL365      0.2260
    105  O        -18.5690   -2.7660   -6.9850 O.2   365  VAL365     -0.2867
    106  CB       -19.3560    0.1890   -5.7460 C.3   365  VAL365      0.0252
    107  CG1      -19.7540    1.6590   -5.9140 C.3   365  VAL365      0.0019
    108  CG2      -20.5630   -0.6220   -5.3940 C.3   365  VAL365      0.0019
    109  N        -17.6770   -3.6330   -3.1900 N.3   367  LEU367     -0.1245
    110  CA       -17.9440   -3.5670   -1.7730 C.3   367  LEU367      0.1561
    111  C        -17.1820   -4.5870   -0.8970 C.2   367  LEU367      0.2260
    112  O        -17.5200   -4.8090    0.2700 O.2   367  LEU367     -0.2867
    113  CB       -19.4300   -3.7110   -1.5230 C.3   367  LEU367      0.0270
    114  CG       -20.2230   -2.5280   -2.0580 C.3   367  LEU367      0.0019
    115  CD1      -21.7180   -2.9430   -2.1160 C.3   367  LEU367      0.0001
    116  CD2      -20.0180   -1.2340   -1.2930 C.3   367  LEU367      0.0001
    117  N        -22.1080   -1.8120    3.3560 N.3   372  PRO372     -0.2102
    118  CA       -22.9590   -1.1360    2.4250 C.3   372  PRO372      0.1504
    119  C        -23.5740    0.1880    2.9200 C.2   372  PRO372      0.2575
    120  O        -23.8230    1.1280    2.0960 O.2   372  PRO372     -0.2718
    121  CB       -24.0880   -2.1510    2.1740 C.3   372  PRO372      0.0282
    122  CG       -23.3460   -3.4200    2.2470 C.3   372  PRO372      0.0208
    123  CD       -22.4570   -3.2370    3.4270 C.3   372  PRO372      0.0893
    124  N        -23.9140    0.2500    4.1870 N.am  373  ASP373     -0.1974
    125  CA       -24.5000    1.4750    4.7430 C.3   373  ASP373      0.1708
    126  C        -23.6020    2.6460    4.6630 C.2   373  ASP373      0.2293
    127  O        -24.0580    3.7840    4.5470 O.2   373  ASP373     -0.2864
    128  CB       -24.9500    1.2840    6.2000 C.3   373  ASP373      0.1436
    129  CG       -26.1920    0.3490    6.3850 C.2   373  ASP373      0.3671
    130  OD1      -27.0370    0.2790    5.4880 O.co2 373  ASP373     -0.2456
    131  OD2      -26.3410   -0.2360    7.4680 O.co2 373  ASP373     -0.2456
    132  N        -21.2290    3.0080    2.2760 N.3   375  ALA375     -0.1231
    133  CA       -21.1260    3.3240    0.8840 C.3   375  ALA375      0.1694
    134  C        -22.3460    4.0720    0.3140 C.2   375  ALA375      0.2592
    135  O        -22.2280    4.7440   -0.6800 O.2   375  ALA375     -0.2718
    136  CB       -20.8510    2.0670    0.0600 C.3   375  ALA375      0.0304
    137  N        -23.4990    3.8830    0.9340 N.am  376  TYR376     -0.1962
    138  CA       -24.7960    4.4070    0.4300 C.3   376  TYR376      0.1771
    139  C        -24.7360    5.8970    0.0910 C.2   376  TYR376      0.2620
    140  O        -24.2390    6.7160    0.8800 O.2   376  TYR376     -0.2715
    141  CB       -25.9250    4.0320    1.3970 C.3   376  TYR376      0.0574
    142  CG       -27.2700    4.4710    0.8540 C.ar  376  TYR376     -0.0198
    143  CD1      -27.9210    3.7280   -0.0940 C.ar  376  TYR376     -0.0009
    144  CD2      -27.8590    5.6790    1.2630 C.ar  376  TYR376     -0.0009
    145  CE1      -29.1690    4.0840   -0.5900 C.ar  376  TYR376      0.0417
    146  CE2      -29.0490    6.0550    0.7670 C.ar  376  TYR376      0.0417
    147  CZ       -29.7050    5.2890   -0.1550 C.ar  376  TYR376      0.1957
    148  OH       -30.9900    5.7300   -0.6740 O.3   376  TYR376     -0.2866
    149  N        -25.2340    6.2660   -1.0870 N.am  377  SER377     -0.1950
    150  CA       -25.3070    7.6450   -1.4730 C.3   377  SER377      0.1924
    151  C        -26.2410    7.7870   -2.6820 C.2   377  SER377      0.2314
    152  O        -26.7260    6.7870   -3.1950 O.2   377  SER377     -0.2863
    153  CB       -23.9590    8.1970   -1.8370 C.3   377  SER377      0.2116
    154  OG       -23.5900    7.7770   -3.1470 O.3   377  SER377     -0.2180
    155  N        -25.2280    8.6140   -5.5380 N.3   379  VAL379     -0.1231
    156  CA       -24.5080    8.3410   -6.7560 C.3   379  VAL379      0.1678
    157  C        -25.1280    7.2780   -7.7150 C.2   379  VAL379      0.2434
    158  O        -25.2960    7.5330   -8.9110 O.2   379  VAL379     -0.2733
    159  CB       -23.0270    7.9690   -6.4630 C.3   379  VAL379      0.0265
    160  CG1      -22.3350    7.4440   -7.7270 C.3   379  VAL379      0.0020
    161  CG2      -22.2920    9.2000   -5.9260 C.3   379  VAL379      0.0020
    162  N        -25.4750    6.0820   -7.2190 N.am  380  PRO380     -0.2729
    163  CA       -26.0300    5.1280   -8.0730 C.3   380  PRO380      0.1401
    164  C        -27.3460    5.5930   -8.6780 C.2   380  PRO380      0.2269
    165  O        -27.6470    5.2430   -9.7910 O.2   380  PRO380     -0.2865
    166  CB       -26.2600    3.8970   -7.1840 C.3   380  PRO380      0.0296
    167  CG       -26.1480    4.3130   -5.7790 C.3   380  PRO380      0.0237
    168  CD       -25.2190    5.5250   -5.8670 C.3   380  PRO380      0.0939
@<TRIPOS>BOND
     1    73    71   ar
     2    73    72   ar
     3    71    69   ar
     4    72    70   ar
     5   101    99    1
     6    69    67   ar
     7    69    68   ar
     8    70    67   ar
     9    67    65   ar
    10    68    66   ar
    11    99    98    1
    12    99   100    1
    13    98    95    1
    14    66    65   ar
    15    65    64    1
    16    63    62    2
    17    95    94    1
    18    95    96    1
    19    94    87   am
    20    62    61    1
    21    64    61    1
    22    96    97    2
    23   165   164    2
    24    61    60    1
    25    87    86    1
    26    87    88    2
    27    86    89    1
    28    86    85    1
    29    90    89    1
    30    90    91    1
    31    92    93    1
    32    92    91    1
    33   158   157    2
    34    60    51   am
    35   164   163    1
    36    44    43    2
    37   102   103    1
    38   163   162    1
    39   163   166    1
    40    52    51    2
    41    51    50    1
    42   160   159    1
    43    43    42    1
    44   157   162   am
    45   157   156    1
    46    49    50    1
    47   162   168    1
    48   166   167    1
    49    50    53    1
    50   105   104    2
    51   103   104    1
    52   103   106    1
    53    45    42    1
    54    45    46    1
    55   156   159    1
    56   156   155    1
    57   159   161    1
    58    42    41    1
    59    48    46   ar
    60    46    47   ar
    61   107   106    1
    62   168   167    1
    63   106   108    1
    64    53    54    1
    65    41    29   am
    66    76    77    2
    67    76    75    1
    68    30    29    2
    69    29    28    1
    70    54    56   ar
    71    54    55   ar
    72    56    58   ar
    73    27    28    1
    74    55    57   ar
    75    74    75    1
    76    28    31    1
    77    75    78    1
    78    57    59   ar
    79    58    59   ar
    80   152   151    2
    81   109   110    1
    82   154   153    1
    83    39    37   ar
    84    39    40   ar
    85    37    34   ar
    86    78    79    1
    87    31    32    1
    88   151   150    1
    89    34    32   ar
    90    34    36   ar
    91   115   114    1
    92   114   113    1
    93   114   116    1
    94    40    38   ar
    95    32    33   ar
    96     9     7   am
    97   153   150    1
    98   110   113    1
    99   110   111    1
   100    80    79   ar
   101    80    82   ar
   102    79    81   ar
   103   150   149    1
   104    36    38   ar
   105    36    35   ar
   106   149   139   am
   107    33    35   ar
   108   111   112    2
   109    82    84   ar
   110   135   134    2
   111   148   147    1
   112     7     8    2
   113     7     6    1
   114   145   147   ar
   115   145   143   ar
   116    81    83   ar
   117   147   146   ar
   118   143   142   ar
   119   136   133    1
   120   139   138    1
   121   139   140    2
   122   134   133    1
   123   134   137   am
   124   138   137    1
   125   138   141    1
   126     6     5    1
   127    84    83   ar
   128   146   144   ar
   129   142   144   ar
   130   142   141    1
   131   133   132    1
   132    14    11    1
   133     5     2    1
   134   120   119    2
   135   121   122    1
   136   121   118    1
   137    11    12    1
   138    11    10    1
   139    13    12    2
   140   122   123    1
   141   118   119    1
   142   118   117    1
   143    21    23   ar
   144    21    20   ar
   145     2     3    1
   146     2     1    1
   147    23    25   ar
   148   119   124   am
   149    10     3   am
   150   117   123    1
   151    19    20    1
   152    19    16    1
   153     3     4    2
   154    20    22   ar
   155    25    26    1
   156    25    24   ar
   157    17    16    1
   158    17    18    2
   159    16    15    1
   160   124   125    1
   161    22    24   ar
   162   127   126    2
   163   126   125    1
   164   125   128    1
   165   130   129   ar
   166   128   129    1
   167   129   131   ar
