@<TRIPOS>MOLECULE
tmp/4mktA00.pdb
 155 151 0 0 0
SMALL
GASTEIGER

@<TRIPOS>ATOM
      1  N        -32.7740   -3.8770    3.9420 N.3   134  GLN134     -0.1245
      2  CA       -31.8300   -3.5260    2.8620 C.3   134  GLN134      0.1566
      3  C        -30.7000   -2.7330    3.4920 C.2   134  GLN134      0.2260
      4  O        -30.9980   -1.8480    4.2680 O.2   134  GLN134     -0.2867
      5  CB       -32.5120   -2.7330    1.7240 C.3   134  GLN134      0.0367
      6  CG       -31.6550   -2.5260    0.4620 C.3   134  GLN134      0.0905
      7  CD       -32.4060   -1.8230   -0.6490 C.2   134  GLN134      0.2608
      8  OE1      -33.2650   -0.9780   -0.3950 O.2   134  GLN134     -0.2717
      9  NE2      -32.0950   -2.1940   -1.8920 N.am  134  GLN134     -0.0878
     10  N        -35.0110    5.8600    8.3750 N.3   264  PRO264     -0.2102
     11  CA       -33.7790    6.4700    7.7610 C.3   264  PRO264      0.1504
     12  C        -33.8810    6.9280    6.2930 C.2   264  PRO264      0.2576
     13  O        -33.0750    7.7430    5.8930 O.2   264  PRO264     -0.2718
     14  CB       -32.7110    5.3880    7.8580 C.3   264  PRO264      0.0282
     15  CG       -33.2830    4.4340    8.8970 C.3   264  PRO264      0.0208
     16  CD       -34.7560    4.5130    8.9310 C.3   264  PRO264      0.0893
     17  N        -34.8400    6.4150    5.5810 N.am  265  TYR265     -0.1963
     18  CA       -35.0050    6.6770    4.1360 C.3   265  TYR265      0.1771
     19  C        -36.2230    7.4670    3.8170 C.2   265  TYR265      0.2620
     20  O        -37.1440    7.5530    4.6310 O.2   265  TYR265     -0.2715
     21  CB       -35.0590    5.2980    3.4240 C.3   265  TYR265      0.0574
     22  CG       -33.7380    4.5450    3.5340 C.ar  265  TYR265     -0.0198
     23  CD1      -32.6000    4.9250    2.7790 C.ar  265  TYR265     -0.0009
     24  CD2      -33.6010    3.4510    4.3300 C.ar  265  TYR265     -0.0009
     25  CE1      -31.3940    4.2350    2.8870 C.ar  265  TYR265      0.0417
     26  CE2      -32.4080    2.7630    4.4580 C.ar  265  TYR265      0.0417
     27  CZ       -31.2730    3.1380    3.7150 C.ar  265  TYR265      0.1957
     28  OH       -30.0440    2.4900    3.9010 O.3   265  TYR265     -0.2866
     29  N        -36.2690    7.9710    2.5880 N.am  266  GLY266     -0.1940
     30  CA       -37.4870    8.5750    2.0390 C.3   266  GLY266      0.2014
     31  C        -38.5640    7.4960    1.8880 C.2   266  GLY266      0.2639
     32  O        -39.7130    7.7070    2.1600 O.2   266  GLY266     -0.2714
     33  N        -38.1490    6.3670    1.3980 N.am  267  GLY267     -0.1939
     34  CA       -39.0460    5.2210    1.1710 C.3   267  GLY267      0.2014
     35  C        -38.2330    3.9470    1.1790 C.2   267  GLY267      0.2639
     36  O        -37.0320    3.9350    0.9590 O.2   267  GLY267     -0.2714
     37  N        -38.9250    2.8330    1.3640 N.am  268  MET268     -0.1963
     38  CA       -38.3990    1.4780    1.1410 C.3   268  MET268      0.1736
     39  C        -39.4690    0.6920    0.4120 C.2   268  MET268      0.2616
     40  O        -40.5780    0.5500    0.8910 O.2   268  MET268     -0.2715
     41  CB       -37.8960    0.8180    2.3960 C.3   268  MET268      0.0427
     42  CG       -37.3340   -0.5770    2.1930 C.3   268  MET268      0.0599
     43  SD       -35.8580   -0.5090    1.1580 S.3   268  MET268     -0.1393
     44  CE       -36.0590   -2.1040    0.3710 C.3   268  MET268      0.0692
     45  N        -39.0630    0.1110   -0.7080 N.am  269  GLU269     -0.1977
     46  CA       -39.9490   -0.5500   -1.5980 C.3   269  GLU269      0.1602
     47  C        -40.3890   -1.9550   -1.1920 C.2   269  GLU269      0.2287
     48  O        -40.4840   -2.8950   -1.9730 O.2   269  GLU269     -0.2864
     49  CB       -39.2650   -0.5600   -2.9710 C.3   269  GLU269      0.0415
     50  CG       -38.0140   -1.4270   -3.0450 C.3   269  GLU269      0.1163
     51  CD       -36.7130   -0.6900   -2.8200 C.2   269  GLU269      0.3649
     52  OE1      -36.6880    0.4010   -2.2980 O.co2 269  GLU269     -0.2457
     53  OE2      -35.6480   -1.1890   -3.3050 O.co2 269  GLU269     -0.2457
     54  N        -41.3970   10.6530   -4.4840 N.3   290  VAL290     -0.1245
     55  CA       -40.9230    9.5380   -3.6900 C.3   290  VAL290      0.1561
     56  C        -41.8480    8.3400   -3.7910 C.2   290  VAL290      0.2260
     57  O        -41.3780    7.2050   -3.8850 O.2   290  VAL290     -0.2867
     58  CB       -40.6890    9.9660   -2.2430 C.3   290  VAL290      0.0252
     59  CG1      -40.2660    8.7880   -1.3740 C.3   290  VAL290      0.0019
     60  CG2      -39.7110   11.1330   -2.2170 C.3   290  VAL290      0.0019
     61  N        -41.2680    6.8080   -7.1580 N.3   293  HIS293     -0.1226
     62  CA       -40.0440    6.0000   -7.0870 C.3   293  HIS293      0.1752
     63  C        -40.3430    4.6440   -6.5170 C.2   293  HIS293      0.2595
     64  O        -39.9340    3.5890   -7.0150 O.2   293  HIS293     -0.2718
     65  CB       -39.0180    6.7520   -6.2700 C.3   293  HIS293      0.0759
     66  CG       -37.7200    6.0730   -6.1390 C.ar  293  HIS293      0.0818
     67  ND1      -36.6640    6.3320   -7.0080 N.ar  293  HIS293     -0.2268
     68  CD2      -37.2410    5.2010   -5.2070 C.ar  293  HIS293      0.1154
     69  CE1      -35.6160    5.6190   -6.5910 C.ar  293  HIS293      0.1986
     70  NE2      -35.9930    4.8320   -5.6050 N.ar  293  HIS293     -0.2212
     71  N        -40.9810    4.6300   -5.3290 N.am  294  GLU294     -0.1979
     72  CA       -41.2270    3.3490   -4.7490 C.3   294  GLU294      0.1602
     73  C        -42.1680    2.4300   -5.5070 C.2   294  GLU294      0.2287
     74  O        -41.9600    1.2220   -5.5720 O.2   294  GLU294     -0.2864
     75  CB       -41.8200    3.5800   -3.2930 C.3   294  GLU294      0.0415
     76  CG       -40.8930    4.3520   -2.3410 C.3   294  GLU294      0.1163
     77  CD       -39.4690    3.8490   -2.2420 C.2   294  GLU294      0.3649
     78  OE1      -39.2820    2.6410   -2.2910 O.co2 294  GLU294     -0.2457
     79  OE2      -38.5390    4.6390   -2.0190 O.co2 294  GLU294     -0.2457
     80  N        -25.9270   -2.3160   -7.6170 N.3   312  PHE312     -0.1241
     81  CA       -27.0630   -1.5310   -7.0540 C.3   312  PHE312      0.1605
     82  C        -27.5720   -0.4630   -7.9710 C.2   312  PHE312      0.2264
     83  O        -28.7360   -0.1960   -7.9840 O.2   312  PHE312     -0.2867
     84  CB       -26.6160   -0.9580   -5.7240 C.3   312  PHE312      0.0534
     85  CG       -27.6970   -0.2140   -4.8960 C.ar  312  PHE312     -0.0203
     86  CD1      -28.8260   -0.8720   -4.4660 C.ar  312  PHE312     -0.0042
     87  CD2      -27.4470    1.1050   -4.5050 C.ar  312  PHE312     -0.0042
     88  CE1      -29.7660   -0.1520   -3.7330 C.ar  312  PHE312     -0.0003
     89  CE2      -28.3200    1.7780   -3.6330 C.ar  312  PHE312     -0.0003
     90  CZ       -29.4810    1.1200   -3.2850 C.ar  312  PHE312     -0.0000
     91  N        -31.4460    1.1310   -8.8320 N.3   316  GLU316     -0.1245
     92  CA       -31.7790    2.5190   -8.5490 C.3   316  GLU316      0.1567
     93  C        -31.8290    3.4510   -9.7110 C.2   316  GLU316      0.2260
     94  O        -32.7200    4.3010   -9.8180 O.2   316  GLU316     -0.2867
     95  CB       -30.8870    3.1110   -7.4830 C.3   316  GLU316      0.0388
     96  CG       -30.9680    2.4350   -6.1660 C.3   316  GLU316      0.1160
     97  CD       -32.3730    2.4050   -5.5890 C.2   316  GLU316      0.3649
     98  OE1      -33.2530    3.1850   -6.0240 O.co2 316  GLU316     -0.2457
     99  OE2      -32.5770    1.4930   -4.8320 O.co2 316  GLU316     -0.2457
    100  N        -23.4990    3.8830    0.9340 N.3   376  TYR376     -0.1227
    101  CA       -24.7960    4.4070    0.4300 C.3   376  TYR376      0.1736
    102  C        -24.7360    5.8970    0.0910 C.2   376  TYR376      0.2596
    103  O        -24.2390    6.7160    0.8800 O.2   376  TYR376     -0.2718
    104  CB       -25.9250    4.0320    1.3970 C.3   376  TYR376      0.0548
    105  CG       -27.2700    4.4710    0.8540 C.ar  376  TYR376     -0.0200
    106  CD1      -27.9210    3.7280   -0.0940 C.ar  376  TYR376     -0.0009
    107  CD2      -27.8590    5.6790    1.2630 C.ar  376  TYR376     -0.0009
    108  CE1      -29.1690    4.0840   -0.5900 C.ar  376  TYR376      0.0417
    109  CE2      -29.0490    6.0550    0.7670 C.ar  376  TYR376      0.0417
    110  CZ       -29.7050    5.2890   -0.1550 C.ar  376  TYR376      0.1957
    111  OH       -30.9900    5.7300   -0.6740 O.3   376  TYR376     -0.2866
    112  N        -25.2340    6.2660   -1.0870 N.am  377  SER377     -0.1938
    113  CA       -25.3070    7.6450   -1.4730 C.3   377  SER377      0.2055
    114  C        -26.2410    7.7870   -2.6820 C.2   377  SER377      0.2643
    115  O        -26.7260    6.7870   -3.1950 O.2   377  SER377     -0.2714
    116  CB       -23.9590    8.1970   -1.8370 C.3   377  SER377      0.2130
    117  OG       -23.5900    7.7770   -3.1470 O.3   377  SER377     -0.2179
    118  N        -26.4480    9.0210   -3.1160 N.am  378  SER378     -0.1949
    119  CA       -27.2100    9.2710   -4.3410 C.3   378  SER378      0.1924
    120  C        -26.4660    9.0140   -5.6190 C.2   378  SER378      0.2314
    121  O        -27.0400    9.1130   -6.7130 O.2   378  SER378     -0.2863
    122  CB       -27.7560   10.7160   -4.4230 C.3   378  SER378      0.2116
    123  OG       -27.4290   11.4890   -3.3020 O.3   378  SER378     -0.2180
    124  N        -28.0840    6.3880   -7.9360 N.3   381  TYR381     -0.1241
    125  CA       -29.3600    6.9990   -8.3610 C.3   381  TYR381      0.1605
    126  C        -29.1650    7.9030   -9.5300 C.2   381  TYR381      0.2264
    127  O        -29.8270    7.7700  -10.5920 O.2   381  TYR381     -0.2867
    128  CB       -29.9940    7.8020   -7.2450 C.3   381  TYR381      0.0534
    129  CG       -30.4590    6.9380   -6.0790 C.ar  381  TYR381     -0.0201
    130  CD1      -29.5320    6.4160   -5.1500 C.ar  381  TYR381     -0.0009
    131  CD2      -31.7900    6.5520   -5.9100 C.ar  381  TYR381     -0.0009
    132  CE1      -29.9090    5.6040   -4.0710 C.ar  381  TYR381      0.0417
    133  CE2      -32.1750    5.7680   -4.8430 C.ar  381  TYR381      0.0417
    134  CZ       -31.2140    5.2380   -3.9520 C.ar  381  TYR381      0.1957
    135  OH       -31.6290    4.4200   -2.9420 O.3   381  TYR381     -0.2866
    136  N        -34.5780   11.1040    8.8620 N.3   561  ARG561     -0.1245
    137  CA       -34.2490   10.7510    7.5000 C.3   561  ARG561      0.1563
    138  C        -32.8040   11.1260    7.1970 C.2   561  ARG561      0.2260
    139  O        -32.4360   12.3110    7.3380 O.2   561  ARG561     -0.2867
    140  CB       -35.2120   11.4670    6.5810 C.3   561  ARG561      0.0307
    141  CG       -35.1940   11.1080    5.0680 C.3   561  ARG561      0.0489
    142  CD       -36.1950   11.9440    4.3710 C.3   561  ARG561      0.2205
    143  NE       -36.2400   11.6770    2.9120 N.pl3 561  ARG561     -0.0865
    144  CZ       -37.0300   12.3260    2.0680 C.cat 561  ARG561      0.5346
    145  NH1      -37.9590   13.1750    2.4910 N.pl3 561  ARG561      0.1354
    146  NH2      -36.9400   12.0530    0.8150 N.pl3 561  ARG561      0.1354
    147  N        -30.9230   11.7410    4.6960 N.3   563  LYS563     -0.1245
    148  CA       -30.6870   12.8040    3.7560 C.3   563  LYS563      0.1561
    149  C        -30.7410   14.1860    4.3580 C.2   563  LYS563      0.2260
    150  O        -30.0530   15.0760    3.8310 O.2   563  LYS563     -0.2867
    151  CB       -31.7490   12.6590    2.6310 C.3   563  LYS563      0.0271
    152  CG       -31.8710   13.7100    1.6480 C.3   563  LYS563      0.0035
    153  CD       -33.2100   13.5490    0.8780 C.3   563  LYS563      0.0206
    154  CE       -33.0720   14.5660   -0.1820 C.3   563  LYS563      0.1093
    155  NZ       -34.0840   14.4610   -1.2210 N.3   563  LYS563     -0.1314
@<TRIPOS>BOND
     1   127   126    2
     2    94    93    2
     3    93    92    1
     4   126   125    1
     5    91    92    1
     6    92    95    1
     7   125   124    1
     8   125   128    1
     9    83    82    2
    10    82    81    1
    11    80    81    1
    12    95    96    1
    13   128   129    1
    14    61    62    1
    15    62    63    1
    16    62    65    1
    17    81    84    1
    18    64    63    2
    19    67    69   ar
    20    67    66   ar
    21   121   120    2
    22    69    70   ar
    23    63    71   am
    24    65    66    1
    25    96    97    1
    26    66    68   ar
    27   129   131   ar
    28   129   130   ar
    29    98    97   ar
    30   131   133   ar
    31    84    85    1
    32   120   119    1
    33    70    68   ar
    34    97    99   ar
    35    74    73    2
    36    73    72    1
    37    71    72    1
    38   130   132   ar
    39    85    87   ar
    40    85    86   ar
    41   133   134   ar
    42    72    75    1
    43    87    89   ar
    44    54    55    1
    45    86    88   ar
    46   122   119    1
    47   122   123    1
    48   119   118    1
    49   132   134   ar
    50   134   135    1
    51    57    56    2
    52    56    55    1
    53    88    90   ar
    54    55    58    1
    55    89    90   ar
    56    53    51   ar
    57    75    76    1
    58   115   114    2
    59   117   116    1
    60   118   114   am
    61    50    49    1
    62    50    51    1
    63    49    46    1
    64    51    52   ar
    65   114   113    1
    66    76    77    1
    67    78    77   ar
    68    58    60    1
    69    58    59    1
    70    77    79   ar
    71    48    47    2
    72     9     7   am
    73   116   113    1
    74    46    47    1
    75    46    45    1
    76   113   112    1
    77   155   154    1
    78   112   102   am
    79    45    39   am
    80   111   110    1
    81     7     8    2
    82     7     6    1
    83   108   110   ar
    84   108   106   ar
    85   154   153    1
    86   110   109   ar
    87   106   105   ar
    88   102   101    1
    89   102   103    2
    90    44    43    1
    91    39    40    2
    92    39    38    1
    93   101   100    1
    94   101   104    1
    95     6     5    1
    96   109   107   ar
    97   146   144    1
    98   105   107   ar
    99   105   104    1
   100   153   152    1
   101    36    35    2
   102    38    37    1
   103    38    41    1
   104    43    42    1
   105    34    35    1
   106    34    33    1
   107    35    37   am
   108    33    31   am
   109   152   151    1
   110     5     2    1
   111    31    30    1
   112    31    32    2
   113    30    29    1
   114   144   145    1
   115   144   143    2
   116    42    41    1
   117    29    19   am
   118   151   148    1
   119    23    25   ar
   120    23    22   ar
   121     2     3    1
   122     2     1    1
   123    25    27   ar
   124   143   142    1
   125    21    22    1
   126    21    18    1
   127     3     4    2
   128    22    24   ar
   129    27    28    1
   130    27    26   ar
   131   148   149    1
   132   148   147    1
   133    19    18    1
   134    19    20    2
   135   150   149    2
   136    18    17    1
   137    24    26   ar
   138   142   141    1
   139   141   140    1
   140    17    12   am
   141    13    12    2
   142    12    11    1
   143   140   137    1
   144   138   139    2
   145   138   137    1
   146   137   136    1
   147    11    14    1
   148    11    10    1
   149    14    15    1
   150    10    16    1
   151    15    16    1
