@<TRIPOS>MOLECULE
tmp/4mkvB01.pdb
 117 112 0 0 0
SMALL
GASTEIGER

@<TRIPOS>ATOM
      1  N         49.3010  -68.1420    8.2490 N.3    20  THR20      -0.1218
      2  CA        47.9300  -68.2450    7.7610 C.3    20  THR20       0.1862
      3  C         47.6260  -69.6760    7.3170 C.2    20  THR20       0.2287
      4  O         48.5200  -70.3760    6.8260 O.2    20  THR20      -0.2866
      5  CB        47.6390  -67.2280    6.6550 C.3    20  THR20       0.1770
      6  OG1       48.4830  -67.5150    5.5620 O.3    20  THR20      -0.2211
      7  CG2       47.8460  -65.7930    7.1120 C.3    20  THR20       0.0375
      8  N         45.1800  -72.3620    5.0220 N.3    22  ASP22      -0.1239
      9  CA        44.4420  -72.3590    3.7390 C.3    22  ASP22       0.1674
     10  C         42.9410  -72.2440    3.9270 C.2    22  ASP22       0.2266
     11  O         42.2400  -71.9600    2.9710 O.2    22  ASP22      -0.2867
     12  CB        44.7760  -73.5730    2.8690 C.3    22  ASP22       0.1410
     13  CG        46.2230  -73.5790    2.3780 C.2    22  ASP22       0.3668
     14  OD1       46.8470  -72.4790    2.3290 O.co2  22  ASP22      -0.2456
     15  OD2       46.7300  -74.6710    2.0490 O.co2  22  ASP22      -0.2456
     16  N         41.2790  -64.1550    4.5360 N.3    26  LEU26      -0.1245
     17  CA        42.2830  -63.1090    4.7660 C.3    26  LEU26       0.1561
     18  C         41.7410  -61.7910    4.2330 C.2    26  LEU26       0.2260
     19  O         41.0910  -61.7840    3.1930 O.2    26  LEU26      -0.2867
     20  CB        43.6330  -63.4400    4.0720 C.3    26  LEU26       0.0270
     21  CG        44.2280  -64.8190    4.3230 C.3    26  LEU26       0.0019
     22  CD1       45.4710  -65.0370    3.4690 C.3    26  LEU26       0.0001
     23  CD2       44.4880  -65.0410    5.8040 C.3    26  LEU26       0.0001
     24  N         48.0970  -60.1960   11.3690 N.3    74  TYR74      -0.1227
     25  CA        49.3640  -60.9130   11.2700 C.3    74  TYR74       0.1736
     26  C         50.4680  -60.1610   10.5420 C.2    74  TYR74       0.2595
     27  O         51.5890  -60.6690   10.4350 O.2    74  TYR74      -0.2718
     28  CB        49.1320  -62.3090   10.6580 C.3    74  TYR74       0.0548
     29  CG        48.6520  -62.2890    9.2180 C.ar   74  TYR74      -0.0200
     30  CD1       47.2940  -62.2830    8.9150 C.ar   74  TYR74      -0.0009
     31  CD2       49.5600  -62.3120    8.1590 C.ar   74  TYR74      -0.0009
     32  CE1       46.8450  -62.2560    7.5930 C.ar   74  TYR74       0.0417
     33  CE2       49.1270  -62.2810    6.8360 C.ar   74  TYR74       0.0417
     34  CZ        47.7610  -62.2860    6.5560 C.ar   74  TYR74       0.1957
     35  OH        47.2860  -62.2650    5.2640 O.3    74  TYR74      -0.2866
     36  N         50.1750  -58.9460   10.0540 N.am   75  GLU75      -0.1979
     37  CA        51.1430  -58.1670    9.2800 C.3    75  GLU75       0.1602
     38  C         50.6640  -56.7740    9.0480 C.2    75  GLU75       0.2287
     39  O         49.5000  -56.5600    8.7020 O.2    75  GLU75      -0.2864
     40  CB        51.4160  -58.8180    7.9180 C.3    75  GLU75       0.0415
     41  CG        52.5110  -58.1250    7.1290 C.3    75  GLU75       0.1163
     42  CD        52.9580  -58.8540    5.8790 C.2    75  GLU75       0.3649
     43  OE1       53.6180  -58.2040    5.0380 O.co2  75  GLU75      -0.2457
     44  OE2       52.6990  -60.0760    5.7590 O.co2  75  GLU75      -0.2457
     45  N         46.9070  -56.7650    7.4530 N.3    89  TYR89      -0.1241
     46  CA        46.4780  -58.0570    6.9600 C.3    89  TYR89       0.1605
     47  C         45.8420  -58.7910    8.1180 C.2    89  TYR89       0.2264
     48  O         46.4800  -58.9510    9.1660 O.2    89  TYR89      -0.2867
     49  CB        47.6510  -58.8280    6.3580 C.3    89  TYR89       0.0534
     50  CG        48.1290  -58.2160    5.0610 C.ar   89  TYR89      -0.0201
     51  CD1       47.5130  -58.5270    3.8520 C.ar   89  TYR89      -0.0009
     52  CD2       49.1770  -57.2970    5.0440 C.ar   89  TYR89      -0.0009
     53  CE1       47.9330  -57.9480    2.6590 C.ar   89  TYR89       0.0417
     54  CE2       49.6230  -56.7290    3.8520 C.ar   89  TYR89       0.0417
     55  CZ        48.9970  -57.0580    2.6590 C.ar   89  TYR89       0.1957
     56  OH        49.4340  -56.5170    1.4640 O.3    89  TYR89      -0.2866
     57  N         40.7830  -62.8250    0.6590 N.3   128  ARG128     -0.1245
     58  CA        41.1630  -64.1190    0.1320 C.3   128  ARG128      0.1563
     59  C         40.0720  -65.0560    0.5890 C.2   128  ARG128      0.2260
     60  O         39.9900  -65.3410    1.7820 O.2   128  ARG128     -0.2867
     61  CB        42.5220  -64.5860    0.6480 C.3   128  ARG128      0.0307
     62  CG        43.0830  -65.8130   -0.1200 C.3   128  ARG128      0.0489
     63  CD        42.4540  -67.1650    0.2620 C.3   128  ARG128      0.2205
     64  NE        42.6200  -67.5120    1.6930 N.pl3 128  ARG128     -0.0865
     65  CZ        43.6850  -68.1120    2.2000 C.cat 128  ARG128      0.5346
     66  NH1       44.7160  -68.4110    1.4260 N.pl3 128  ARG128      0.1354
     67  NH2       43.7420  -68.3950    3.4990 N.pl3 128  ARG128      0.1354
     68  N         48.3390  -63.7500   -6.9780 N.3   345  LYS345     -0.1245
     69  CA        48.6010  -62.4420   -6.3690 C.3   345  LYS345      0.1561
     70  C         49.2970  -61.5550   -7.4330 C.2   345  LYS345      0.2260
     71  O         50.1700  -62.0400   -8.1680 O.2   345  LYS345     -0.2867
     72  CB        49.5480  -62.6210   -5.1780 C.3   345  LYS345      0.0271
     73  CG        49.8650  -61.3370   -4.4280 C.3   345  LYS345      0.0035
     74  CD        50.9760  -61.5230   -3.4240 C.3   345  LYS345      0.0206
     75  CE        51.4270  -60.1920   -2.9090 C.3   345  LYS345      0.1093
     76  NZ        52.6250  -60.3070   -2.0480 N.3   345  LYS345     -0.1314
     77  N         49.9310  -57.2880   -7.3110 N.3   347  ARG347     -0.1245
     78  CA        49.7430  -55.9420   -6.7640 C.3   347  ARG347      0.1563
     79  C         49.6280  -54.8420   -7.7980 C.2   347  ARG347      0.2260
     80  O         48.9530  -53.8500   -7.5390 O.2   347  ARG347     -0.2867
     81  CB        50.7790  -55.6230   -5.6830 C.3   347  ARG347      0.0307
     82  CG        50.6170  -56.4900   -4.4260 C.3   347  ARG347      0.0489
     83  CD        49.4210  -56.0880   -3.5670 C.3   347  ARG347      0.2205
     84  NE        49.5760  -54.7550   -2.9850 N.pl3 347  ARG347     -0.0865
     85  CZ        50.1600  -54.5050   -1.8140 C.cat 347  ARG347      0.5346
     86  NH1       50.6820  -55.4930   -1.1010 N.pl3 347  ARG347      0.1354
     87  NH2       50.2380  -53.2640   -1.3550 N.pl3 347  ARG347      0.1354
     88  N         45.7040  -58.5270   -4.0440 N.3   352  TYR352     -0.1227
     89  CA        46.4990  -58.6830   -2.8350 C.3   352  TYR352      0.1736
     90  C         46.7290  -60.1290   -2.4970 C.2   352  TYR352      0.2595
     91  O         47.6900  -60.4480   -1.8080 O.2   352  TYR352     -0.2718
     92  CB        45.8190  -57.9710   -1.6490 C.3   352  TYR352      0.0548
     93  CG        45.8640  -56.4580   -1.7380 C.ar  352  TYR352     -0.0200
     94  CD1       45.1300  -55.7700   -2.7120 C.ar  352  TYR352     -0.0009
     95  CD2       46.6410  -55.7120   -0.8540 C.ar  352  TYR352     -0.0009
     96  CE1       45.2150  -54.3820   -2.8340 C.ar  352  TYR352      0.0417
     97  CE2       46.6940  -54.3200   -0.9330 C.ar  352  TYR352      0.0417
     98  CZ        45.9860  -53.6580   -1.9280 C.ar  352  TYR352      0.1957
     99  OH        46.0540  -52.2810   -1.9830 O.3   352  TYR352     -0.2866
    100  N         45.8140  -61.0050   -2.9250 N.am  353  PHE353     -0.1962
    101  CA        45.8990  -62.4140   -2.5940 C.3   353  PHE353      0.1771
    102  C         45.6530  -63.2920   -3.7700 C.2   353  PHE353      0.2620
    103  O         44.8190  -62.9700   -4.6170 O.2   353  PHE353     -0.2715
    104  CB        44.8490  -62.7700   -1.5250 C.3   353  PHE353      0.0574
    105  CG        44.8490  -61.9550   -0.2490 C.ar  353  PHE353     -0.0200
    106  CD1       45.7740  -62.1990    0.7510 C.ar  353  PHE353     -0.0042
    107  CD2       43.8820  -60.9810   -0.0290 C.ar  353  PHE353     -0.0042
    108  CE1       45.7640  -61.4440    1.9330 C.ar  353  PHE353     -0.0003
    109  CE2       43.8520  -60.2520    1.1590 C.ar  353  PHE353     -0.0003
    110  CZ        44.8000  -60.4760    2.1290 C.ar  353  PHE353     -0.0000
    111  N         46.2620  -64.4820   -3.7350 N.am  354  THR354     -0.1951
    112  CA        45.9950  -65.5310   -4.7090 C.3   354  THR354      0.1897
    113  C         44.5810  -66.0520   -4.4000 C.2   354  THR354      0.2313
    114  O         44.2420  -66.2740   -3.2320 O.2   354  THR354     -0.2863
    115  CB        47.0770  -66.5960   -4.6660 C.3   354  THR354      0.1794
    116  OG1       48.2580  -65.9970   -5.1930 O.3   354  THR354     -0.2208
    117  CG2       46.7170  -67.8280   -5.5200 C.3   354  THR354      0.0378
@<TRIPOS>BOND
     1    71    70    2
     2    79    80    2
     3    79    78    1
     4    70    69    1
     5    77    78    1
     6    68    69    1
     7    78    81    1
     8    69    72    1
     9    81    82    1
    10   117   115    1
    11   116   115    1
    12    72    73    1
    13   112   115    1
    14   112   113    1
    15   112   111    1
    16   103   102    2
    17    73    74    1
    18    82    83    1
    19   113   114    2
    20    88    89    1
    21   102   111   am
    22   102   101    1
    23    83    84    1
    24    74    75    1
    25    84    85    2
    26   100   101    1
    27   100    90   am
    28    75    76    1
    29    89    90    1
    30    89    92    1
    31    96    94   ar
    32    96    98   ar
    33    94    93   ar
    34   101   104    1
    35    90    91    2
    36    99    98    1
    37    98    97   ar
    38    85    87    1
    39    85    86    1
    40    93    92    1
    41    93    95   ar
    42   104   105    1
    43    97    95   ar
    44   105   107   ar
    45   105   106   ar
    46    62    63    1
    47    62    61    1
    48   107   109   ar
    49    58    59    1
    50    58    61    1
    51    58    57    1
    52    63    64    1
    53    59    60    2
    54   106   108   ar
    55   109   110   ar
    56    66    65    1
    57    56    55    1
    58    64    65    2
    59   108   110   ar
    60    15    13   ar
    61    65    67    1
    62    14    13   ar
    63    13    12    1
    64    55    53   ar
    65    55    54   ar
    66    53    51   ar
    67    12     9    1
    68    11    10    2
    69    19    18    2
    70    22    21    1
    71     9    10    1
    72     9     8    1
    73    51    50   ar
    74    54    52   ar
    75    20    21    1
    76    20    17    1
    77    18    17    1
    78    21    23    1
    79    16    17    1
    80    43    42   ar
    81    52    50   ar
    82    50    49    1
    83    35    34    1
    84     6     5    1
    85    44    42   ar
    86    42    41    1
    87    49    46    1
    88    34    33   ar
    89    34    32   ar
    90     5     7    1
    91     5     2    1
    92     4     3    2
    93    33    31   ar
    94    46    45    1
    95    46    47    1
    96    41    40    1
    97     3     2    1
    98    32    30   ar
    99     2     1    1
   100    40    37    1
   101    47    48    2
   102    31    29   ar
   103    39    38    2
   104    30    29   ar
   105    38    37    1
   106    29    28    1
   107    37    36    1
   108    36    26   am
   109    27    26    2
   110    26    25    1
   111    28    25    1
   112    25    24    1
