@<TRIPOS>MOLECULE
tmp/4mkyB00.pdb
 116 108 0 0 0
SMALL
GASTEIGER

@<TRIPOS>ATOM
      1  N        -23.5340  -37.8120   55.5740 N.3     6  THR6       -0.1203
      2  CA       -23.3150  -36.9380   56.7120 C.3     6  THR6        0.1994
      3  C        -22.6950  -35.6470   56.1970 C.2     6  THR6        0.2617
      4  O        -22.1630  -35.6170   55.0860 O.2     6  THR6       -0.2717
      5  CB       -22.3760  -37.5960   57.7300 C.3     6  THR6        0.1784
      6  OG1      -21.0420  -37.5890   57.2140 O.3     6  THR6       -0.2211
      7  CG2      -22.7960  -39.0330   57.9750 C.3     6  THR6        0.0376
      8  N        -22.7780  -34.5830   56.9880 N.am    7  ASN7       -0.1974
      9  CA       -22.2040  -33.3030   56.6030 C.3     7  ASN7        0.1688
     10  C        -22.8640  -32.7560   55.3520 C.2     7  ASN7        0.2292
     11  O        -22.2190  -32.1160   54.5170 O.2     7  ASN7       -0.2864
     12  CB       -20.7000  -33.4470   56.4120 C.3     7  ASN7        0.1181
     13  CG       -20.0000  -33.8490   57.6900 C.2     7  ASN7        0.2629
     14  OD1      -19.9230  -33.0620   58.6260 O.2     7  ASN7       -0.2716
     15  ND2      -19.5440  -35.0950   57.7610 N.am    7  ASN7       -0.0877
     16  N        -22.9680  -29.0220   53.3190 N.3    10  LYS10      -0.1245
     17  CA       -21.6420  -28.4410   53.5340 C.3    10  LYS10       0.1561
     18  C        -20.9090  -28.1950   52.2110 C.2    10  LYS10       0.2260
     19  O        -20.6910  -29.1280   51.4220 O.2    10  LYS10      -0.2867
     20  CB       -20.7930  -29.3330   54.4400 C.3    10  LYS10       0.0271
     21  CG       -19.3380  -28.8960   54.5190 C.3    10  LYS10       0.0035
     22  CD       -18.4400  -30.0310   54.9700 C.3    10  LYS10       0.0206
     23  CE       -17.0230  -29.5330   55.1670 C.3    10  LYS10       0.1093
     24  NZ       -16.0890  -30.6640   55.4120 N.3    10  LYS10      -0.1314
     25  N        -18.4200  -27.7240   49.2310 N.3    12  LEU12      -0.1245
     26  CA       -17.1680  -28.3210   48.7850 C.3    12  LEU12       0.1561
     27  C        -16.4080  -27.4020   47.8270 C.2    12  LEU12       0.2260
     28  O        -15.2080  -27.2000   48.0030 O.2    12  LEU12      -0.2867
     29  CB       -17.3980  -29.7150   48.1950 C.3    12  LEU12       0.0270
     30  CG       -17.1220  -30.8760   49.1680 C.3    12  LEU12       0.0019
     31  CD1      -17.1900  -30.4410   50.6320 C.3    12  LEU12       0.0001
     32  CD2      -18.0350  -32.0630   48.9080 C.3    12  LEU12       0.0001
     33  N        -22.3050  -30.5900   49.6050 N.3    20  LYS20      -0.1245
     34  CA       -22.1560  -32.0420   49.5880 C.3    20  LYS20       0.1561
     35  C        -23.4640  -32.7360   49.1920 C.2    20  LYS20       0.2260
     36  O        -23.4550  -33.8510   48.6580 O.2    20  LYS20      -0.2867
     37  CB       -21.6800  -32.5380   50.9540 C.3    20  LYS20       0.0271
     38  CG       -21.3220  -34.0110   50.9920 C.3    20  LYS20       0.0035
     39  CD       -20.5340  -34.3700   52.2410 C.3    20  LYS20       0.0206
     40  CE       -20.2810  -35.8660   52.2700 C.3    20  LYS20       0.1093
     41  NZ       -19.4740  -36.3350   53.4240 N.3    20  LYS20      -0.1314
     42  N         -9.8100  -37.2790   46.6860 N.3    47  ARG47      -0.1245
     43  CA       -10.7320  -36.9000   47.7610 C.3    47  ARG47       0.1563
     44  C        -10.4080  -35.5710   48.4020 C.2    47  ARG47       0.2260
     45  O         -9.2950  -35.3670   48.8850 O.2    47  ARG47      -0.2867
     46  CB       -10.7750  -38.0090   48.8160 C.3    47  ARG47       0.0307
     47  CG       -11.4260  -39.2900   48.3120 C.3    47  ARG47       0.0489
     48  CD       -11.4280  -40.3890   49.3620 C.3    47  ARG47       0.2205
     49  NE       -11.9730  -39.9080   50.6280 N.pl3  47  ARG47      -0.0865
     50  CZ       -12.2130  -40.6770   51.6820 C.cat  47  ARG47       0.5346
     51  NH1      -11.9940  -41.9830   51.6200 N.pl3  47  ARG47       0.1354
     52  NH2      -12.6930  -40.1380   52.7900 N.pl3  47  ARG47       0.1354
     53  N        -11.8560  -33.9280   51.3250 N.3    49  PRO49      -0.2102
     54  CA       -12.6990  -33.9750   52.5150 C.3    49  PRO49       0.1504
     55  C        -13.1570  -32.5880   52.9220 C.2    49  PRO49       0.2575
     56  O        -14.3020  -32.3940   53.3410 O.2    49  PRO49      -0.2718
     57  CB       -11.7490  -34.5170   53.5870 C.3    49  PRO49       0.0282
     58  CG       -10.6710  -35.2220   52.8380 C.3    49  PRO49       0.0208
     59  CD       -10.4870  -34.3920   51.6100 C.3    49  PRO49       0.0893
     60  N        -12.2630  -31.6220   52.7660 N.am   50  ASN50      -0.1975
     61  CA       -12.4970  -30.2900   53.2900 C.3    50  ASN50       0.1688
     62  C        -12.5840  -29.2170   52.2100 C.2    50  ASN50       0.2292
     63  O        -12.1580  -28.0900   52.4160 O.2    50  ASN50      -0.2864
     64  CB       -11.4230  -29.9600   54.3230 C.3    50  ASN50       0.1181
     65  CG       -11.5350  -30.8240   55.5710 C.2    50  ASN50       0.2629
     66  OD1      -10.5450  -31.3630   56.0550 O.2    50  ASN50      -0.2716
     67  ND2      -12.7500  -30.9650   56.0890 N.am   50  ASN50      -0.0877
     68  N         -6.1680  -35.8270   48.5090 N.3    57  PHE57      -0.1241
     69  CA        -5.3680  -37.0440   48.4580 C.3    57  PHE57       0.1605
     70  C         -5.9470  -38.0770   47.4830 C.2    57  PHE57       0.2264
     71  O         -7.1690  -38.1720   47.2930 O.2    57  PHE57      -0.2867
     72  CB        -5.1980  -37.6500   49.8540 C.3    57  PHE57       0.0534
     73  CG        -6.4590  -38.2580   50.4220 C.ar   57  PHE57      -0.0203
     74  CD1       -7.3600  -37.4840   51.1440 C.ar   57  PHE57      -0.0042
     75  CD2       -6.7090  -39.6230   50.2970 C.ar   57  PHE57      -0.0042
     76  CE1       -8.5280  -38.0370   51.6450 C.ar   57  PHE57      -0.0003
     77  CE2       -7.8510  -40.1900   50.8360 C.ar   57  PHE57      -0.0003
     78  CZ        -8.7650  -39.3970   51.5110 C.ar   57  PHE57      -0.0000
     79  N         -6.4570  -42.0490   46.4460 N.3    59  GLU59      -0.1245
     80  CA        -6.6920  -43.2640   47.1940 C.3    59  GLU59       0.1567
     81  C         -7.0050  -44.3990   46.2220 C.2    59  GLU59       0.2260
     82  O         -7.9380  -44.3160   45.4120 O.2    59  GLU59      -0.2867
     83  CB        -7.8530  -43.0600   48.1830 C.3    59  GLU59       0.0388
     84  CG        -8.1790  -44.2480   49.0860 C.3    59  GLU59       0.1160
     85  CD        -9.3910  -43.9970   50.0010 C.2    59  GLU59       0.3649
     86  OE1       -9.7950  -42.8270   50.1840 O.co2  59  GLU59      -0.2457
     87  OE2       -9.9720  -44.9820   50.5110 O.co2  59  GLU59      -0.2457
     88  N        -12.8000  -50.7700   56.5890 N.3    65  SER65      -0.1217
     89  CA       -14.0240  -50.3110   57.2410 C.3    65  SER65       0.1889
     90  C        -15.0650  -49.8980   56.2030 C.2    65  SER65       0.2288
     91  O        -16.1840  -49.5320   56.5490 O.2    65  SER65      -0.2866
     92  CB       -13.7300  -49.1300   58.1580 C.3    65  SER65       0.2089
     93  OG       -13.3780  -47.9870   57.4020 O.3    65  SER65      -0.2183
     94  N        -20.5600  -39.5340   49.5000 N.3    98  GLN98      -0.1231
     95  CA       -20.2780  -39.3810   50.9400 C.3    98  GLN98       0.1698
     96  C        -18.7880  -39.4640   51.2570 C.2    98  GLN98       0.2592
     97  O        -18.3120  -38.8270   52.1990 O.2    98  GLN98      -0.2718
     98  CB       -21.0550  -40.4260   51.7630 C.3    98  GLN98       0.0381
     99  CG       -20.6910  -40.5370   53.2540 C.3    98  GLN98       0.0905
    100  CD       -20.9300  -39.2610   54.0530 C.2    98  GLN98       0.2608
    101  OE1      -21.6250  -38.3550   53.6060 O.2    98  GLN98      -0.2717
    102  NE2      -20.3850  -39.2080   55.2640 N.am   98  GLN98      -0.0878
    103  N        -18.0470  -40.2350   50.4620 N.am   99  GLN99      -0.1966
    104  CA       -16.6210  -40.3750   50.7100 C.3    99  GLN99       0.1733
    105  C        -15.9060  -39.0890   50.3880 C.2    99  GLN99       0.2616
    106  O        -14.7350  -38.9490   50.7000 O.2    99  GLN99      -0.2715
    107  CB       -16.0230  -41.5300   49.9180 C.3    99  GLN99       0.0408
    108  CG       -16.0760  -42.8510   50.6470 C.3    99  GLN99       0.0908
    109  CD       -14.9850  -42.9710   51.6840 C.2    99  GLN99       0.2608
    110  OE1      -13.8160  -42.6890   51.4080 O.2    99  GLN99      -0.2717
    111  NE2      -15.3510  -43.4180   52.8770 N.am   99  GLN99      -0.0878
    112  N        -16.6480  -38.1150   49.8710 N.am  100  ALA100     -0.1977
    113  CA       -16.0520  -36.8890   49.3290 C.3   100  ALA100      0.1597
    114  C        -15.1130  -37.1550   48.1390 C.2   100  ALA100      0.2287
    115  O        -14.2080  -36.3670   47.8700 O.2   100  ALA100     -0.2864
    116  CB       -15.3170  -36.1210   50.4110 C.3   100  ALA100      0.0319
@<TRIPOS>BOND
     1    82    81    2
     2    81    80    1
     3    79    80    1
     4    42    43    1
     5    80    83    1
     6    71    70    2
     7    70    69    1
     8    43    44    1
     9    43    46    1
    10    27    28    2
    11    27    26    1
    12   115   114    2
    13   114   113    1
    14    83    84    1
    15    29    26    1
    16    29    30    1
    17    47    46    1
    18    47    48    1
    19    44    45    2
    20    69    68    1
    21    69    72    1
    22    36    35    2
    23    26    25    1
    24    32    30    1
    25    84    85    1
    26    30    31    1
    27    35    34    1
    28   113   112    1
    29   113   116    1
    30    48    49    1
    31    94    95    1
    32    34    33    1
    33    34    37    1
    34    72    73    1
    35   112   105   am
    36   107   108    1
    37   107   104    1
    38    85    86   ar
    39    85    87   ar
    40    75    73   ar
    41    75    77   ar
    42   105   106    2
    43   105   104    1
    44    73    74   ar
    45   103   104    1
    46   103    96   am
    47    49    50    2
    48   108   109    1
    49    77    78   ar
    50    95    96    1
    51    95    98    1
    52    37    38    1
    53    38    39    1
    54    74    76   ar
    55    96    97    2
    56    53    59    1
    57    53    54    1
    58   110   109    2
    59    19    18    2
    60    78    76   ar
    61    59    58    1
    62    51    50    1
    63    50    52    1
    64   109   111   am
    65    98    99    1
    66    62    63    2
    67    62    61    1
    68    18    17    1
    69    39    40    1
    70    40    41    1
    71    54    55    1
    72    54    57    1
    73    60    55   am
    74    60    61    1
    75    58    57    1
    76    55    56    2
    77    99   100    1
    78    61    64    1
    79    16    17    1
    80    17    20    1
    81   101   100    2
    82   100   102   am
    83    64    65    1
    84    20    21    1
    85    11    10    2
    86    21    22    1
    87    22    23    1
    88     4     3    2
    89    23    24    1
    90    10     9    1
    91    65    66    2
    92    65    67   am
    93     1     2    1
    94     3     2    1
    95     3     8   am
    96    90    91    2
    97    90    89    1
    98    12     9    1
    99    12    13    1
   100    88    89    1
   101     9     8    1
   102     2     5    1
   103     6     5    1
   104    89    92    1
   105    93    92    1
   106    13    15   am
   107    13    14    2
   108     5     7    1
