@<TRIPOS>MOLECULE
tmp/4mkzA00.pdb
 113 108 0 0 0
SMALL
GASTEIGER

@<TRIPOS>ATOM
      1  N        -11.3930  -26.1670   14.3600 N.3    16  LEU16      -0.1245
      2  CA        -9.9530  -26.3440   14.2210 C.3    16  LEU16       0.1561
      3  C         -9.5640  -27.8130   14.1100 C.2    16  LEU16       0.2260
      4  O         -8.7020  -28.1660   13.3140 O.2    16  LEU16      -0.2867
      5  CB        -9.2020  -25.6680   15.3710 C.3    16  LEU16       0.0270
      6  CG        -7.6810  -25.8000   15.3540 C.3    16  LEU16       0.0019
      7  CD1       -7.1040  -25.2200   14.0830 C.3    16  LEU16       0.0001
      8  CD2       -7.0680  -25.1340   16.5850 C.3    16  LEU16       0.0001
      9  N         -2.7840  -28.6360   20.7550 N.3    98  GLU98      -0.1231
     10  CA        -3.1060  -27.2290   20.5840 C.3    98  GLU98       0.1699
     11  C         -2.7890  -26.4420   21.8400 C.2    98  GLU98       0.2592
     12  O         -2.7340  -26.9830   22.9440 O.2    98  GLU98      -0.2718
     13  CB        -4.5760  -27.0200   20.2120 C.3    98  GLU98       0.0402
     14  CG        -4.8390  -27.0500   18.7170 C.3    98  GLU98       0.1161
     15  CD        -4.0410  -25.9970   17.9790 C.2    98  GLU98       0.3649
     16  OE1       -3.7620  -24.9140   18.5560 O.co2  98  GLU98      -0.2457
     17  OE2       -3.6800  -26.2380   16.8060 O.co2  98  GLU98      -0.2457
     18  N         -2.5590  -25.1530   21.6510 N.am   99  LYS99      -0.1980
     19  CA        -2.5090  -24.2260   22.7680 C.3    99  LYS99       0.1596
     20  C         -3.9160  -24.0580   23.3500 C.2    99  LYS99       0.2287
     21  O         -4.9070  -24.3930   22.7030 O.2    99  LYS99      -0.2864
     22  CB        -1.9580  -22.8720   22.2910 C.3    99  LYS99       0.0298
     23  CG        -2.8160  -22.1800   21.2140 C.3    99  LYS99       0.0038
     24  CD        -3.7330  -21.1120   21.8170 C.3    99  LYS99       0.0206
     25  CE        -5.1850  -21.3830   21.4660 C.3    99  LYS99       0.1093
     26  NZ        -6.0390  -20.1920   21.7170 N.3    99  LYS99      -0.1314
     27  N          1.1870  -21.9930   15.8520 N.3   128  MET128     -0.1230
     28  CA         1.3570  -22.0790   14.4070 C.3   128  MET128      0.1702
     29  C          1.9950  -20.8510   13.7820 C.2   128  MET128      0.2592
     30  O          2.5300  -20.9380   12.6770 O.2   128  MET128     -0.2718
     31  CB         0.0290  -22.3920   13.7060 C.3   128  MET128      0.0401
     32  CG        -0.9020  -21.2040   13.5230 C.3   128  MET128      0.0596
     33  SD        -1.6280  -20.6990   15.0740 S.3   128  MET128     -0.1393
     34  CE        -2.8780  -19.5450   14.5260 C.3   128  MET128      0.0692
     35  N          1.9350  -19.7050   14.4560 N.am  129  ARG129     -0.1980
     36  CA         2.5410  -18.5080   13.8900 C.3   129  ARG129      0.1597
     37  C          4.0340  -18.6740   13.6570 C.2   129  ARG129      0.2287
     38  O          4.5850  -18.0800   12.7440 O.2   129  ARG129     -0.2864
     39  CB         2.2480  -17.2710   14.7390 C.3   129  ARG129      0.0334
     40  CG         0.7710  -16.9460   14.8110 C.3   129  ARG129      0.0492
     41  CD         0.5720  -15.5800   15.3930 C.3   129  ARG129      0.2205
     42  NE        -0.8050  -15.3730   15.8180 N.pl3 129  ARG129     -0.0865
     43  CZ        -1.2240  -14.2990   16.4730 C.cat 129  ARG129      0.5346
     44  NH1       -0.3720  -13.3270   16.7630 N.pl3 129  ARG129      0.1354
     45  NH2       -2.4910  -14.2170   16.8490 N.pl3 129  ARG129      0.1354
     46  N        -10.5980  -10.7350   16.4560 N.3   159  ASP159     -0.1239
     47  CA       -11.4760  -11.6440   15.7250 C.3   159  ASP159      0.1674
     48  C        -12.5370  -10.8490   15.0000 C.2   159  ASP159      0.2266
     49  O        -12.8900   -9.7570   15.4270 O.2   159  ASP159     -0.2867
     50  CB       -12.1430  -12.6200   16.6920 C.3   159  ASP159      0.1410
     51  CG       -11.4390  -13.9480   16.7630 C.2   159  ASP159      0.3668
     52  OD1      -10.5560  -14.2180   15.9240 O.co2 159  ASP159     -0.2456
     53  OD2      -11.7880  -14.7360   17.6570 O.co2 159  ASP159     -0.2456
     54  N         -7.7620  -16.3170   25.4600 N.3   175  ASP175     -0.1225
     55  CA        -8.3250  -16.7230   24.1730 C.3   175  ASP175      0.1805
     56  C         -7.5910  -16.1380   22.9780 C.2   175  ASP175      0.2597
     57  O         -7.2940  -16.8460   22.0110 O.2   175  ASP175     -0.2718
     58  CB        -9.7940  -16.3150   24.0740 C.3   175  ASP175      0.1424
     59  CG       -10.7130  -17.2660   24.7870 C.2   175  ASP175      0.3668
     60  OD1      -10.2730  -18.3920   25.1050 O.co2 175  ASP175     -0.2456
     61  OD2      -11.8860  -16.8920   25.0080 O.co2 175  ASP175     -0.2456
     62  N         -7.3260  -14.8350   23.0350 N.am  176  MET176     -0.1979
     63  CA        -6.8510  -14.1040   21.8660 C.3   176  MET176      0.1605
     64  C         -5.3560  -13.8220   21.8700 C.2   176  MET176      0.2287
     65  O         -4.7470  -13.6830   20.8060 O.2   176  MET176     -0.2864
     66  CB        -7.5910  -12.7650   21.7560 C.3   176  MET176      0.0413
     67  CG        -9.0860  -12.8920   21.5920 C.3   176  MET176      0.0598
     68  SD        -9.4980  -13.8650   20.1410 S.3   176  MET176     -0.1393
     69  CE        -8.7110  -12.8730   18.8690 C.3   176  MET176      0.0692
     70  N         -1.0600  -16.5020   21.4420 N.3   179  HIS179     -0.1241
     71  CA        -0.1270  -16.5240   20.3150 C.3   179  HIS179      0.1621
     72  C          0.7800  -15.2960   20.2980 C.2   179  HIS179      0.2264
     73  O          1.9430  -15.3800   19.9010 O.2   179  HIS179     -0.2867
     74  CB        -0.8600  -16.6160   18.9770 C.3   179  HIS179      0.0745
     75  CG        -1.5700  -17.9090   18.7610 C.ar  179  HIS179      0.0817
     76  ND1       -0.9100  -19.1150   18.6770 N.ar  179  HIS179     -0.2268
     77  CD2       -2.8850  -18.1830   18.5830 C.ar  179  HIS179      0.1154
     78  CE1       -1.7900  -20.0800   18.4680 C.ar  179  HIS179      0.1986
     79  NE2       -2.9930  -19.5390   18.3990 N.ar  179  HIS179     -0.2212
     80  N        -10.3020  -10.5310    9.9840 N.3   240  TYR240     -0.1241
     81  CA        -9.4570  -11.1000   11.0150 C.3   240  TYR240      0.1605
     82  C         -8.1620  -10.3010   11.0650 C.2   240  TYR240      0.2264
     83  O         -7.3520  -10.3660   10.1360 O.2   240  TYR240     -0.2867
     84  CB        -9.1740  -12.5560   10.6270 C.3   240  TYR240      0.0534
     85  CG        -8.3500  -13.3790   11.5930 C.ar  240  TYR240     -0.0201
     86  CD1       -8.7280  -13.5410   12.9180 C.ar  240  TYR240     -0.0009
     87  CD2       -7.2160  -14.0400   11.1500 C.ar  240  TYR240     -0.0009
     88  CE1       -7.9690  -14.3280   13.7880 C.ar  240  TYR240      0.0417
     89  CE2       -6.4610  -14.8200   11.9960 C.ar  240  TYR240      0.0417
     90  CZ        -6.8420  -14.9690   13.3120 C.ar  240  TYR240      0.1957
     91  OH        -6.0820  -15.7340   14.1670 O.3   240  TYR240     -0.2866
     92  N         -9.3800  -17.0640   10.8920 N.3   280  PHE280     -0.1241
     93  CA        -8.1210  -17.7770   11.1020 C.3   280  PHE280      0.1605
     94  C         -7.8280  -18.9370   10.1270 C.2   280  PHE280      0.2264
     95  O         -6.6670  -19.1200    9.7520 O.2   280  PHE280     -0.2867
     96  CB        -7.9240  -18.1870   12.5750 C.3   280  PHE280      0.0534
     97  CG        -8.6990  -19.4060   12.9880 C.ar  280  PHE280     -0.0203
     98  CD1       -8.1650  -20.6720   12.8250 C.ar  280  PHE280     -0.0042
     99  CD2       -9.9450  -19.2810   13.5880 C.ar  280  PHE280     -0.0042
    100  CE1       -8.8720  -21.8010   13.2180 C.ar  280  PHE280     -0.0003
    101  CE2      -10.6550  -20.4090   13.9920 C.ar  280  PHE280     -0.0003
    102  CZ       -10.1170  -21.6660   13.8030 C.ar  280  PHE280     -0.0000
    103  N         -0.8180  -23.8530    9.4660 N.3   288  PHE288     -0.1241
    104  CA        -1.3400  -25.1060   10.0160 C.3   288  PHE288      0.1605
    105  C         -0.7340  -26.3070    9.3020 C.2   288  PHE288      0.2264
    106  O         -0.3020  -27.2660    9.9390 O.2   288  PHE288     -0.2867
    107  CB        -2.8670  -25.1600    9.9180 C.3   288  PHE288      0.0534
    108  CG        -3.5750  -24.2260   10.8640 C.ar  288  PHE288     -0.0203
    109  CD1       -3.2090  -24.1440   12.2090 C.ar  288  PHE288     -0.0042
    110  CD2       -4.6210  -23.4330   10.4140 C.ar  288  PHE288     -0.0042
    111  CE1       -3.8860  -23.2820   13.0770 C.ar  288  PHE288     -0.0003
    112  CE2       -5.2950  -22.5680   11.2770 C.ar  288  PHE288     -0.0003
    113  CZ        -4.9260  -22.4890   12.5990 C.ar  288  PHE288     -0.0000
@<TRIPOS>BOND
     1   105   106    2
     2   105   104    1
     3   103   104    1
     4    95    94    2
     5   107   104    1
     6   107   108    1
     7    80    81    1
     8    94    93    1
     9    83    82    2
    10   110   108   ar
    11   110   112   ar
    12    84    81    1
    13    84    85    1
    14   108   109   ar
    15    92    93    1
    16    81    82    1
    17    93    96    1
    18    87    85   ar
    19    87    89   ar
    20   112   113   ar
    21    85    86   ar
    22    89    90   ar
    23   109   111   ar
    24    96    97    1
    25   113   111   ar
    26    30    29    2
    27    38    37    2
    28    98    97   ar
    29    98   100   ar
    30    86    88   ar
    31    97    99   ar
    32   100   102   ar
    33    90    88   ar
    34    90    91    1
    35     4     3    2
    36    32    31    1
    37    32    33    1
    38    99   101   ar
    39    37    36    1
    40    31    28    1
    41    29    28    1
    42    29    35   am
    43   102   101   ar
    44    36    35    1
    45    36    39    1
    46     7     6    1
    47     3     2    1
    48     2     1    1
    49     2     5    1
    50    28    27    1
    51    34    33    1
    52    39    40    1
    53    40    41    1
    54    48    49    2
    55    48    47    1
    56     6     5    1
    57     6     8    1
    58    41    42    1
    59    47    46    1
    60    47    50    1
    61    42    43    2
    62    52    51   ar
    63    43    44    1
    64    43    45    1
    65    50    51    1
    66    51    53   ar
    67    17    15   ar
    68    15    16   ar
    69    15    14    1
    70    79    78   ar
    71    79    77   ar
    72    78    76   ar
    73    77    75   ar
    74    76    75   ar
    75    14    13    1
    76    75    74    1
    77    69    68    1
    78    74    71    1
    79    73    72    2
    80    68    67    1
    81    13    10    1
    82    72    71    1
    83    71    70    1
    84    10     9    1
    85    10    11    1
    86    65    64    2
    87    23    24    1
    88    23    22    1
    89    25    26    1
    90    25    24    1
    91    67    66    1
    92    18    11   am
    93    18    19    1
    94    66    63    1
    95    11    12    2
    96    63    64    1
    97    63    62    1
    98    57    56    2
    99    22    19    1
   100    21    20    2
   101    19    20    1
   102    56    62   am
   103    56    55    1
   104    58    55    1
   105    58    59    1
   106    55    54    1
   107    59    61   ar
   108    59    60   ar
