@<TRIPOS>MOLECULE
tmp/4ml8A01.pdb
 125 123 0 0 0
SMALL
GASTEIGER

@<TRIPOS>ATOM
      1  N          9.7780    2.1210    2.0550 N.3    22  ALA22      -0.1245
      2  CA        10.7610    1.8370    3.1210 C.3    22  ALA22       0.1562
      3  C         11.4910    3.1070    3.5530 C.2    22  ALA22       0.2260
      4  O         11.7910    3.2640    4.7370 O.2    22  ALA22      -0.2867
      5  CB        11.7650    0.8050    2.6700 C.3    22  ALA22       0.0290
      6  N          9.8160    5.4590    6.2810 N.3    25  ARG25      -0.1231
      7  CA         9.7720    4.9300    7.6510 C.3    25  ARG25       0.1694
      8  C         11.1770    4.8600    8.3060 C.2    25  ARG25       0.2592
      9  O         12.1760    4.7240    7.5980 O.2    25  ARG25      -0.2718
     10  CB         8.9990    3.6060    7.7370 C.3    25  ARG25       0.0321
     11  CG         9.6290    2.4170    7.0560 C.3    25  ARG25       0.0489
     12  CD         9.4900    1.1810    7.9040 C.3    25  ARG25       0.2205
     13  NE         8.1670    0.5760    7.7870 N.pl3  25  ARG25      -0.0865
     14  CZ         7.5200   -0.0110    8.7880 C.cat  25  ARG25       0.5346
     15  NH1        8.0580   -0.0530   10.0030 N.pl3  25  ARG25       0.1354
     16  NH2        6.3270   -0.5580    8.5840 N.pl3  25  ARG25       0.1354
     17  N         11.2440    4.9880    9.6330 N.am   26  ASP26      -0.1960
     18  CA        12.4760    4.9250   10.4160 C.3    26  ASP26       0.1840
     19  C         12.2800    4.1650   11.7510 C.2    26  ASP26       0.2622
     20  O         11.1370    3.8120   12.0990 O.2    26  ASP26      -0.2715
     21  CB        13.0260    6.3420   10.6600 C.3    26  ASP26       0.1450
     22  CG        12.1600    7.2980   11.4740 C.2    26  ASP26       0.3671
     23  OD1       11.3810    6.8250   12.3200 O.co2  26  ASP26      -0.2456
     24  OD2       12.3430    8.5210   11.3370 O.co2  26  ASP26      -0.2456
     25  N         13.3740    3.9750   12.5260 N.am   27  PHE27      -0.1974
     26  CA        13.3420    3.2950   13.8190 C.3    27  PHE27       0.1639
     27  C         12.2550    3.7890   14.7710 C.2    27  PHE27       0.2290
     28  O         11.6250    2.9830   15.4640 O.2    27  PHE27      -0.2864
     29  CB        14.7130    3.3300   14.5040 C.3    27  PHE27       0.0560
     30  CG        14.8280    2.5110   15.7770 C.ar   27  PHE27      -0.0200
     31  CD1       14.9340    1.1240   15.7250 C.ar   27  PHE27      -0.0042
     32  CD2       14.8580    3.1310   17.0220 C.ar   27  PHE27      -0.0042
     33  CE1       15.0800    0.3650   16.9040 C.ar   27  PHE27      -0.0003
     34  CE2       15.0010    2.3780   18.1980 C.ar   27  PHE27      -0.0003
     35  CZ        15.1380    1.0040   18.1300 C.ar   27  PHE27      -0.0000
     36  N         20.0400    9.0140    3.7000 N.3    68  ARG68      -0.1245
     37  CA        19.6120    8.0090    4.6800 C.3    68  ARG68       0.1563
     38  C         20.7420    7.0360    4.8860 C.2    68  ARG68       0.2260
     39  O         21.3110    6.5130    3.9160 O.2    68  ARG68      -0.2867
     40  CB        18.3040    7.2670    4.2950 C.3    68  ARG68       0.0307
     41  CG        17.8390    6.2570    5.3620 C.3    68  ARG68       0.0489
     42  CD        17.1150    5.0700    4.7530 C.3    68  ARG68       0.2205
     43  NE        16.4870    4.1820    5.7340 N.pl3  68  ARG68      -0.0865
     44  CZ        15.2810    4.3780    6.2720 C.cat  68  ARG68       0.5346
     45  NH1       14.5740    5.4610    5.9630 N.pl3  68  ARG68       0.1354
     46  NH2       14.7830    3.5040    7.1350 N.pl3  68  ARG68       0.1354
     47  N         21.1780    4.1780    8.1020 N.3    70  HIS70      -0.1226
     48  CA        20.4600    2.9750    8.5010 C.3    70  HIS70       0.1752
     49  C         19.0430    3.2760    9.0250 C.2    70  HIS70       0.2597
     50  O         18.3620    2.3840    9.5130 O.2    70  HIS70      -0.2718
     51  CB        21.3010    2.2180    9.5340 C.3    70  HIS70       0.0759
     52  CG        21.0510    0.7550    9.5630 C.ar   70  HIS70       0.0818
     53  ND1       21.2740   -0.0370    8.4520 N.ar   70  HIS70      -0.2268
     54  CD2       20.6470   -0.0250   10.5820 C.ar   70  HIS70       0.1154
     55  CE1       20.9790   -1.2660    8.8250 C.ar   70  HIS70       0.1986
     56  NE2       20.6010   -1.3090   10.1020 N.ar   70  HIS70      -0.2212
     57  N         18.6210    4.5240    8.9200 N.am   71  GLY71      -0.1942
     58  CA        17.2980    4.9500    9.3350 C.3    71  GLY71       0.2014
     59  C         16.9950    4.8230   10.8060 C.2    71  GLY71       0.2638
     60  O         15.8390    4.6170   11.1790 O.2    71  GLY71      -0.2714
     61  N         18.0040    4.9910   11.6410 N.am   72  HIS72      -0.1973
     62  CA        17.8140    4.9530   13.0840 C.3    72  HIS72       0.1656
     63  C         17.2860    6.2250   13.7060 C.2    72  HIS72       0.2291
     64  O         17.1680    6.2890   14.9300 O.2    72  HIS72      -0.2864
     65  CB        19.0350    4.4110   13.8250 C.3    72  HIS72       0.0771
     66  CG        18.8530    2.9720   14.1520 C.ar   72  HIS72       0.0820
     67  ND1       18.4340    2.5720   15.4050 N.ar   72  HIS72      -0.2267
     68  CD2       18.8890    1.8940   13.3330 C.ar   72  HIS72       0.1154
     69  CE1       18.2950    1.2590   15.3320 C.ar   72  HIS72       0.1986
     70  NE2       18.5580    0.8080   14.1030 N.ar   72  HIS72      -0.2212
     71  N         25.2160    0.5780   19.8510 N.3   131  TYR131     -0.1241
     72  CA        24.7520   -0.2090   18.7140 C.3   131  TYR131      0.1605
     73  C         25.5970    0.1760   17.5000 C.2   131  TYR131      0.2264
     74  O         25.6570    1.3640   17.1440 O.2   131  TYR131     -0.2867
     75  CB        23.2610    0.1120   18.4790 C.3   131  TYR131      0.0534
     76  CG        22.5610   -0.7150   17.4220 C.ar  131  TYR131     -0.0201
     77  CD1       22.4570   -2.1010   17.5450 C.ar  131  TYR131     -0.0009
     78  CD2       21.8830   -0.1030   16.3690 C.ar  131  TYR131     -0.0009
     79  CE1       21.7560   -2.8610   16.6060 C.ar  131  TYR131      0.0417
     80  CE2       21.1730   -0.8510   15.4320 C.ar  131  TYR131      0.0417
     81  CZ        21.1140   -2.2280   15.5570 C.ar  131  TYR131      0.1957
     82  OH        20.4380   -2.9500   14.6200 O.3   131  TYR131     -0.2866
     83  N         18.7080   -6.9650   19.7980 N.3   330  GLU330     -0.1245
     84  CA        17.9810   -6.7190   18.5510 C.3   330  GLU330      0.1567
     85  C         17.3970   -8.0280   18.0140 C.2   330  GLU330      0.2260
     86  O         16.1920   -8.0900   17.7480 O.2   330  GLU330     -0.2867
     87  CB        18.9070   -6.0700   17.5170 C.3   330  GLU330      0.0388
     88  CG        18.2940   -5.9470   16.1430 C.3   330  GLU330      0.1160
     89  CD        19.2750   -5.8500   14.9960 C.2   330  GLU330      0.3649
     90  OE1       20.4510   -5.5110   15.2480 O.co2 330  GLU330     -0.2457
     91  OE2       18.8430   -6.0090   13.8330 O.co2 330  GLU330     -0.2457
     92  N         13.4350   -8.8920   17.6550 N.3   334  ARG334     -0.1245
     93  CA        12.9580   -9.1900   16.3120 C.3   334  ARG334      0.1563
     94  C         12.0990  -10.4700   16.3290 C.2   334  ARG334      0.2260
     95  O         11.0520  -10.5200   15.6820 O.2   334  ARG334     -0.2867
     96  CB        14.1500   -9.3780   15.3580 C.3   334  ARG334      0.0307
     97  CG        14.6830   -8.0950   14.7870 C.3   334  ARG334      0.0489
     98  CD        15.7690   -8.3520   13.7510 C.3   334  ARG334      0.2205
     99  NE        16.2850   -7.1060   13.1790 N.pl3 334  ARG334     -0.0865
    100  CZ        15.6700   -6.4070   12.2260 C.cat 334  ARG334      0.5346
    101  NH1       14.5040   -6.8210   11.7320 N.pl3 334  ARG334      0.1354
    102  NH2       16.2000   -5.2780   11.7770 N.pl3 334  ARG334      0.1354
    103  N         10.7870   -5.2810   17.6320 N.3   339  TRP339     -0.1227
    104  CA        11.8300   -4.3910   17.1120 C.3   339  TRP339      0.1737
    105  C         11.2490   -3.2970   16.2280 C.2   339  TRP339      0.2595
    106  O         11.7010   -2.1510   16.2770 O.2   339  TRP339     -0.2718
    107  CB        12.9120   -5.1950   16.3860 C.3   339  TRP339      0.0564
    108  CG        14.0400   -4.3680   15.8250 C.ar  339  TRP339      0.0003
    109  CD1       14.2240   -4.0140   14.5210 C.ar  339  TRP339      0.0946
    110  CD2       15.1620   -3.8340   16.5470 C.ar  339  TRP339      0.0152
    111  NE1       15.3850   -3.2950   14.3830 N.ar  339  TRP339     -0.2442
    112  CE2       15.9760   -3.1540   15.6090 C.ar  339  TRP339      0.0810
    113  CE3       15.5480   -3.8410   17.9040 C.ar  339  TRP339      0.0012
    114  CZ2       17.1540   -2.4830   15.9800 C.ar  339  TRP339      0.0191
    115  CZ3       16.7250   -3.1850   18.2700 C.ar  339  TRP339      0.0001
    116  CH2       17.5090   -2.5120   17.3170 C.ar  339  TRP339      0.0015
    117  N         10.2590   -3.6400   15.4060 N.am  340  GLU340     -0.1979
    118  CA         9.6440   -2.6220   14.5630 C.3   340  GLU340      0.1602
    119  C          8.3880   -2.1100   15.2760 C.2   340  GLU340      0.2287
    120  O          7.2650   -2.4560   14.8990 O.2   340  GLU340     -0.2864
    121  CB         9.3920   -3.1160   13.1090 C.3   340  GLU340      0.0415
    122  CG        10.6500   -3.3260   12.2530 C.3   340  GLU340      0.1163
    123  CD        11.5960   -2.1610   11.9680 C.2   340  GLU340      0.3649
    124  OE1       11.1750   -0.9850   12.0840 O.co2 340  GLU340     -0.2457
    125  OE2       12.7650   -2.4320   11.6010 O.co2 340  GLU340     -0.2457
@<TRIPOS>BOND
     1     1     2    1
     2     5     2    1
     3     2     3    1
     4     3     4    2
     5    36    37    1
     6    39    38    2
     7    40    37    1
     8    40    41    1
     9    37    38    1
    10    42    41    1
    11    42    43    1
    12    43    44    2
    13    45    44    1
    14    44    46    1
    15     6     7    1
    16    11    10    1
    17    11    12    1
    18     9     8    2
    19     7    10    1
    20     7     8    1
    21    13    12    1
    22    13    14    2
    23    47    48    1
    24     8    17   am
    25    53    55   ar
    26    53    52   ar
    27    48    49    1
    28    48    51    1
    29    16    14    1
    30    14    15    1
    31    55    56   ar
    32    57    49   am
    33    57    58    1
    34    49    50    2
    35    58    59    1
    36    51    52    1
    37    52    54   ar
    38    17    18    1
    39    56    54   ar
    40    18    21    1
    41    18    19    1
    42    21    22    1
    43    59    60    2
    44    59    61   am
    45    24    22   ar
    46    22    23   ar
    47   125   123   ar
    48    61    62    1
    49   101   100    1
    50    19    20    2
    51    19    25   am
    52   102   100    1
    53   123   124   ar
    54   123   122    1
    55   100    99    2
    56   122   121    1
    57    25    26    1
    58    62    63    1
    59    62    65    1
    60   121   118    1
    61    99    98    1
    62    68    70   ar
    63    68    66   ar
    64    63    64    2
    65    98    97    1
    66    26    29    1
    67    26    27    1
    68    65    66    1
    69    91    89   ar
    70    70    69   ar
    71    66    67   ar
    72   111   109   ar
    73   111   112   ar
    74    29    30    1
    75   109   108   ar
    76   118   119    1
    77   118   117    1
    78    82    81    1
    79    27    28    2
    80    97    96    1
    81   120   119    2
    82    89    90   ar
    83    89    88    1
    84    69    67   ar
    85    96    93    1
    86   117   105   am
    87    80    81   ar
    88    80    78   ar
    89    81    79   ar
    90   112   114   ar
    91   112   110   ar
    92    95    94    2
    93    31    30   ar
    94    31    33   ar
    95    30    32   ar
    96   108   107    1
    97   108   110   ar
    98   114   116   ar
    99    88    87    1
   100   105   106    2
   101   105   104    1
   102    93    94    1
   103    93    92    1
   104    78    76   ar
   105   107   104    1
   106   110   113   ar
   107    79    77   ar
   108    33    35   ar
   109    32    34   ar
   110   104   103    1
   111    74    73    2
   112   116   115   ar
   113    76    77   ar
   114    76    75    1
   115    73    72    1
   116    87    84    1
   117    86    85    2
   118   113   115   ar
   119    85    84    1
   120    35    34   ar
   121    75    72    1
   122    84    83    1
   123    72    71    1
