@<TRIPOS>MOLECULE
tmp/4mlbD00.pdb
 89 84 0 0 0
SMALL
GASTEIGER

@<TRIPOS>ATOM
      1  N        108.8100  -25.3230   32.3930 N.3   242  ARG242     -0.1245
      2  CA       109.6760  -26.4960   32.2910 C.3   242  ARG242      0.1563
      3  C        108.8570  -27.7500   31.9890 C.2   242  ARG242      0.2260
      4  O        109.3490  -28.7130   31.4000 O.2   242  ARG242     -0.2867
      5  CB       110.4540  -26.6710   33.5990 C.3   242  ARG242      0.0307
      6  CG       111.2680  -27.9450   33.7070 C.3   242  ARG242      0.0489
      7  CD       112.5510  -27.8780   32.9040 C.3   242  ARG242      0.2205
      8  NE       113.3160  -29.1160   33.0280 N.pl3 242  ARG242     -0.0865
      9  CZ       114.1330  -29.3920   34.0390 C.cat 242  ARG242      0.5346
     10  NH1      114.2950  -28.5170   35.0220 N.pl3 242  ARG242      0.1354
     11  NH2      114.7880  -30.5440   34.0700 N.pl3 242  ARG242      0.1354
     12  N        110.9710  -32.0860   30.0490 N.3   391  GLU391     -0.1231
     13  CA       111.7370  -32.2720   28.8200 C.3   391  GLU391      0.1699
     14  C        112.0050  -33.7490   28.5520 C.2   391  GLU391      0.2592
     15  O        112.1560  -34.1600   27.4020 O.2   391  GLU391     -0.2718
     16  CB       113.0520  -31.4830   28.8550 C.3   391  GLU391      0.0402
     17  CG       114.1020  -32.0270   29.8150 C.3   391  GLU391      0.1161
     18  CD       113.7960  -31.7140   31.2680 C.2   391  GLU391      0.3649
     19  OE1      112.8990  -30.8820   31.5250 O.co2 391  GLU391     -0.2457
     20  OE2      114.4550  -32.2990   32.1530 O.co2 391  GLU391     -0.2457
     21  N        112.0600  -34.5450   29.6160 N.am  392  LYS392     -0.1980
     22  CA       112.2460  -35.9840   29.4790 C.3   392  LYS392      0.1596
     23  C        110.9440  -36.6450   29.0450 C.2   392  LYS392      0.2287
     24  O        110.9530  -37.6810   28.3800 O.2   392  LYS392     -0.2864
     25  CB       112.7450  -36.5980   30.7870 C.3   392  LYS392      0.0298
     26  CG       114.1390  -36.1480   31.1980 C.3   392  LYS392      0.0038
     27  CD       114.6450  -36.9490   32.3880 C.3   392  LYS392      0.0206
     28  CE       116.0370  -36.5030   32.8110 C.3   392  LYS392      0.1093
     29  NZ       116.0660  -35.0680   33.2100 N.3   392  LYS392     -0.1314
     30  N        110.7940  -36.0860   25.2430 N.3   395  ILE395     -0.1245
     31  CA       111.6880  -36.9940   24.5340 C.3   395  ILE395      0.1561
     32  C        111.0690  -38.3810   24.3930 C.2   395  ILE395      0.2260
     33  O        111.1160  -38.9840   23.3200 O.2   395  ILE395     -0.2867
     34  CB       113.0570  -37.1050   25.2390 C.3   395  ILE395      0.0252
     35  CG1      113.8000  -35.7700   25.1670 C.3   395  ILE395      0.0019
     36  CG2      113.9000  -38.2050   24.6150 C.3   395  ILE395      0.0019
     37  CD1      115.1220  -35.7660   25.9030 C.3   395  ILE395      0.0001
     38  N        108.3110  -51.4550   22.1410 N.3   433  VAL433     -0.1245
     39  CA       109.6550  -50.9220   22.3110 C.3   433  VAL433      0.1561
     40  C        109.6280  -49.6670   23.1760 C.2   433  VAL433      0.2260
     41  O        110.4540  -49.5010   24.0730 O.2   433  VAL433     -0.2867
     42  CB       110.2990  -50.5800   20.9560 C.3   433  VAL433      0.0252
     43  CG1      111.7010  -50.0260   21.1600 C.3   433  VAL433      0.0019
     44  CG2      110.3290  -51.8080   20.0580 C.3   433  VAL433      0.0019
     45  N        108.9350  -50.5840   26.8870 N.3   436  ILE436     -0.1231
     46  CA       110.1130  -51.1280   27.5570 C.3   436  ILE436      0.1692
     47  C        111.1420  -50.0380   27.8710 C.2   436  ILE436      0.2591
     48  O        111.6350  -49.9480   28.9940 O.2   436  ILE436     -0.2718
     49  CB       110.7760  -52.2420   26.7200 C.3   436  ILE436      0.0266
     50  CG1      109.8110  -53.4130   26.5300 C.3   436  ILE436      0.0019
     51  CG2      112.0560  -52.7210   27.3870 C.3   436  ILE436      0.0020
     52  CD1      110.3380  -54.4990   25.6130 C.3   436  ILE436      0.0001
     53  N        111.4560  -49.2110   26.8760 N.am  437  VAL437     -0.1980
     54  CA       112.4190  -48.1270   27.0470 C.3   437  VAL437      0.1595
     55  C        111.9380  -47.1060   28.0750 C.2   437  VAL437      0.2287
     56  O        112.6820  -46.7280   28.9830 O.2   437  VAL437     -0.2864
     57  CB       112.7090  -47.4140   25.7120 C.3   437  VAL437      0.0276
     58  CG1      113.4970  -46.1350   25.9480 C.3   437  VAL437      0.0022
     59  CG2      113.4640  -48.3350   24.7710 C.3   437  VAL437      0.0022
     60  N        111.9320  -48.7130   31.6630 N.3   440  LEU440     -0.1231
     61  CA       113.2910  -48.8610   32.1730 C.3   440  LEU440      0.1693
     62  C        113.8880  -47.5140   32.5580 C.2   440  LEU440      0.2592
     63  O        114.5440  -47.3890   33.5930 O.2   440  LEU440     -0.2718
     64  CB       114.1810  -49.5560   31.1440 C.3   440  LEU440      0.0284
     65  CG       113.9120  -51.0460   30.9610 C.3   440  LEU440      0.0019
     66  CD1      114.6800  -51.6010   29.7760 C.3   440  LEU440      0.0001
     67  CD2      114.2570  -51.8080   32.2300 C.3   440  LEU440      0.0001
     68  N        113.6590  -46.5140   31.7140 N.am  441  TRP441     -0.1976
     69  CA       114.1180  -45.1550   31.9720 C.3   441  TRP441      0.1640
     70  C        113.5140  -44.6280   33.2700 C.2   441  TRP441      0.2290
     71  O        114.2170  -44.0530   34.1020 O.2   441  TRP441     -0.2864
     72  CB       113.7420  -44.2430   30.8020 C.3   441  TRP441      0.0576
     73  CG       114.3640  -42.8800   30.8630 C.ar  441  TRP441      0.0006
     74  CD1      115.2410  -42.4190   31.8040 C.ar  441  TRP441      0.0946
     75  CD2      114.1630  -41.8010   29.9460 C.ar  441  TRP441      0.0152
     76  NE1      115.5920  -41.1210   31.5300 N.ar  441  TRP441     -0.2442
     77  CE2      114.9390  -40.7150   30.3830 C.ar  441  TRP441      0.0810
     78  CE3      113.3920  -41.6450   28.7840 C.ar  441  TRP441      0.0012
     79  CZ2      114.9790  -39.4910   29.7170 C.ar  441  TRP441      0.0191
     80  CZ3      113.4280  -40.4290   28.1200 C.ar  441  TRP441      0.0001
     81  CH2      114.2160  -39.3690   28.5870 C.ar  441  TRP441      0.0015
     82  N        115.1760  -46.2640   36.2860 N.3   444  MET444     -0.1245
     83  CA       116.5020  -45.6840   36.4770 C.3   444  MET444      0.1570
     84  C        116.4220  -44.3070   37.1230 C.2   444  MET444      0.2261
     85  O        117.2050  -43.9850   38.0160 O.2   444  MET444     -0.2867
     86  CB       117.2380  -45.5720   35.1410 C.3   444  MET444      0.0387
     87  CG       117.6860  -46.8950   34.5470 C.3   444  MET444      0.0595
     88  SD       118.2750  -46.7320   32.8460 S.3   444  MET444     -0.1393
     89  CE       119.3960  -45.3370   32.9880 C.3   444  MET444      0.0692
@<TRIPOS>BOND
     1    44    42    1
     2    42    43    1
     3    42    39    1
     4    38    39    1
     5    39    40    1
     6    40    41    2
     7    33    32    2
     8    32    31    1
     9    31    34    1
    10    31    30    1
    11    36    34    1
    12    59    57    1
    13    35    34    1
    14    35    37    1
    15    52    50    1
    16    57    58    1
    17    57    54    1
    18    50    49    1
    19    49    51    1
    20    49    46    1
    21    53    54    1
    22    53    47   am
    23    45    46    1
    24    54    55    1
    25    15    14    2
    26    46    47    1
    27    47    48    2
    28    55    56    2
    29    80    81   ar
    30    80    78   ar
    31    24    23    2
    32    14    13    1
    33    14    21   am
    34    81    79   ar
    35    78    75   ar
    36    13    16    1
    37    13    12    1
    38    16    17    1
    39    23    22    1
    40    22    21    1
    41    22    25    1
    42    79    77   ar
    43    66    65    1
    44    17    18    1
    45    75    77   ar
    46    75    73   ar
    47    77    76   ar
    48    25    26    1
    49    72    73    1
    50    72    69    1
    51    73    74   ar
    52    65    64    1
    53    65    67    1
    54    64    61    1
    55    26    27    1
    56    18    19   ar
    57    18    20   ar
    58     4     3    2
    59    76    74   ar
    60    60    61    1
    61    68    69    1
    62    68    62   am
    63    69    70    1
    64     3     2    1
    65    61    62    1
    66     2     1    1
    67     2     5    1
    68    27    28    1
    69    62    63    2
    70    28    29    1
    71    88    89    1
    72    88    87    1
    73     7     8    1
    74     7     6    1
    75     8     9    2
    76    70    71    2
    77     5     6    1
    78     9    11    1
    79     9    10    1
    80    87    86    1
    81    86    83    1
    82    82    83    1
    83    83    84    1
    84    84    85    2
