@<TRIPOS>MOLECULE
tmp/4mlbA09.pdb
 93 88 0 0 0
SMALL
GASTEIGER

@<TRIPOS>ATOM
      1  N         63.8590   -8.4630   16.4260 N.3    95  VAL95      -0.1245
      2  CA        64.9490   -9.1760   17.0820 C.3    95  VAL95       0.1561
      3  C         65.5690   -8.3170   18.1800 C.2    95  VAL95       0.2260
      4  O         65.8400   -8.8040   19.2770 O.2    95  VAL95      -0.2867
      5  CB        66.0360   -9.6120   16.0810 C.3    95  VAL95       0.0252
      6  CG1       67.1420  -10.3710   16.7960 C.3    95  VAL95       0.0019
      7  CG2       65.4280  -10.4700   14.9850 C.3    95  VAL95       0.0019
      8  N         63.2690   -8.2590   21.2840 N.3    98  LEU98      -0.1231
      9  CA        63.2610   -9.5220   22.0140 C.3    98  LEU98       0.1693
     10  C         64.4980   -9.6450   22.8990 C.2    98  LEU98       0.2591
     11  O         64.4130  -10.1170   24.0320 O.2    98  LEU98      -0.2718
     12  CB        63.1590  -10.7090   21.0530 C.3    98  LEU98       0.0284
     13  CG        61.7980  -10.8740   20.3730 C.3    98  LEU98       0.0019
     14  CD1       61.8570  -11.9350   19.2890 C.3    98  LEU98       0.0001
     15  CD2       60.7250  -11.2100   21.4000 C.3    98  LEU98       0.0001
     16  N         65.6420   -9.2100   22.3820 N.am   99  ILE99      -0.1980
     17  CA        66.8730   -9.2020   23.1630 C.3    99  ILE99       0.1595
     18  C         66.7620   -8.2040   24.3140 C.2    99  ILE99       0.2287
     19  O         67.2110   -8.4740   25.4290 O.2    99  ILE99      -0.2864
     20  CB        68.0980   -8.8640   22.2900 C.3    99  ILE99       0.0276
     21  CG1       68.2380   -9.8830   21.1580 C.3    99  ILE99       0.0022
     22  CG2       69.3670   -8.8330   23.1310 C.3    99  ILE99       0.0022
     23  CD1       69.4020   -9.6140   20.2330 C.3    99  ILE99       0.0001
     24  N         64.0660   -7.4020   25.8080 N.3   101  SER101     -0.1202
     25  CA        63.1340   -7.9550   26.7830 C.3   101  SER101      0.2020
     26  C         63.8810   -8.8020   27.8040 C.2   101  SER101      0.2618
     27  O         63.5650   -8.7820   28.9940 O.2   101  SER101     -0.2717
     28  CB        62.0490   -8.7880   26.0950 C.3   101  SER101      0.2103
     29  OG        62.5760   -9.9980   25.5810 O.3   101  SER101     -0.2182
     30  N         64.8780   -9.5400   27.3280 N.am  102  LEU102     -0.1979
     31  CA        65.7070  -10.3570   28.2020 C.3   102  LEU102      0.1596
     32  C         66.5670   -9.4760   29.0990 C.2   102  LEU102      0.2287
     33  O         66.6610   -9.7060   30.3040 O.2   102  LEU102     -0.2864
     34  CB        66.5930  -11.2920   27.3780 C.3   102  LEU102      0.0297
     35  CG        67.5470  -12.1810   28.1770 C.3   102  LEU102      0.0022
     36  CD1       66.7750  -13.0440   29.1620 C.3   102  LEU102      0.0001
     37  CD2       68.3830  -13.0420   27.2440 C.3   102  LEU102      0.0001
     38  N         58.7090  -10.2240   28.0390 N.3   149  PHE149     -0.1241
     39  CA        58.6450  -11.0150   26.8130 C.3   149  PHE149      0.1605
     40  C         57.2280  -11.0480   26.2460 C.2   149  PHE149      0.2264
     41  O         57.0290  -10.8520   25.0470 O.2   149  PHE149     -0.2867
     42  CB        59.1470  -12.4400   27.0610 C.3   149  PHE149      0.0534
     43  CG        59.0740  -13.3310   25.8530 C.ar  149  PHE149     -0.0203
     44  CD1       60.0420  -13.2620   24.8650 C.ar  149  PHE149     -0.0042
     45  CD2       58.0430  -14.2460   25.7100 C.ar  149  PHE149     -0.0042
     46  CE1       59.9800  -14.0830   23.7540 C.ar  149  PHE149     -0.0003
     47  CE2       57.9750  -15.0690   24.6030 C.ar  149  PHE149     -0.0003
     48  CZ        58.9450  -14.9880   23.6230 C.ar  149  PHE149     -0.0000
     49  N         58.8770  -18.3490   17.0910 N.3   215  PHE215     -0.1241
     50  CA        60.0940  -19.1100   16.8010 C.3   215  PHE215      0.1605
     51  C         59.8870  -20.4850   16.1560 C.2   215  PHE215      0.2264
     52  O         60.8260  -21.0420   15.5890 O.2   215  PHE215     -0.2867
     53  CB        60.9300  -19.2950   18.0720 C.3   215  PHE215      0.0534
     54  CG        61.1160  -18.0420   18.8710 C.ar  215  PHE215     -0.0203
     55  CD1       61.7320  -16.9300   18.3170 C.ar  215  PHE215     -0.0042
     56  CD2       60.7010  -17.9880   20.1930 C.ar  215  PHE215     -0.0042
     57  CE1       61.9120  -15.7780   19.0640 C.ar  215  PHE215     -0.0003
     58  CE2       60.8790  -16.8450   20.9450 C.ar  215  PHE215     -0.0003
     59  CZ        61.4840  -15.7370   20.3800 C.ar  215  PHE215     -0.0000
     60  N         56.6850  -19.6210   13.1080 N.3   218  ARG218     -0.1245
     61  CA        57.3170  -18.5090   12.4070 C.3   218  ARG218      0.1563
     62  C         56.4020  -18.0170   11.2900 C.2   218  ARG218      0.2260
     63  O         56.8520  -17.7500   10.1740 O.2   218  ARG218     -0.2867
     64  CB        58.7000  -18.9190   11.8750 C.3   218  ARG218      0.0307
     65  CG        59.5830  -19.5820   12.9370 C.3   218  ARG218      0.0489
     66  CD        60.9170  -20.0870   12.3870 C.3   218  ARG218      0.2205
     67  NE        61.7270  -19.0090   11.8310 N.pl3 218  ARG218     -0.0865
     68  CZ        62.2090  -19.0050   10.5940 C.cat 218  ARG218      0.5346
     69  NH1       62.9280  -17.9790   10.1680 N.pl3 218  ARG218      0.1354
     70  NH2       61.9730  -20.0270    9.7850 N.pl3 218  ARG218      0.1354
     71  N         61.9360  -13.5480   12.3330 N.3   224  ILE224     -0.1231
     72  CA        62.7620  -13.4530   13.5270 C.3   224  ILE224      0.1692
     73  C         63.8790  -14.4940   13.5230 C.2   224  ILE224      0.2593
     74  O         63.6910  -15.6310   13.9570 O.2   224  ILE224     -0.2718
     75  CB        61.9180  -13.5840   14.8090 C.3   224  ILE224      0.0266
     76  CG1       60.7620  -12.5800   14.7810 C.3   224  ILE224      0.0019
     77  CG2       62.7850  -13.3770   16.0390 C.3   224  ILE224      0.0020
     78  CD1       59.8550  -12.6480   15.9880 C.3   224  ILE224      0.0001
     79  N         65.0380  -14.0910   13.0130 N.am  225  THR225     -0.1939
     80  CA        66.2260  -14.9360   13.0190 C.3   225  THR225      0.2028
     81  C         67.4230  -14.1460   13.5210 C.2   225  THR225      0.2642
     82  O         67.4280  -12.9160   13.4800 O.2   225  THR225     -0.2714
     83  CB        66.5630  -15.4640   11.6150 C.3   225  THR225      0.1808
     84  OG1       66.5770  -14.3750   10.6850 O.3   225  THR225     -0.2208
     85  CG2       65.5440  -16.4940   11.1680 C.3   225  THR225      0.0379
     86  N         68.4460  -14.8570   13.9770 N.am  226  LEU226     -0.1977
     87  CA        69.6390  -14.2080   14.5040 C.3   226  LEU226      0.1596
     88  C         70.6590  -13.8350   13.4290 C.2   226  LEU226      0.2287
     89  O         71.8530  -13.7460   13.7120 O.2   226  LEU226     -0.2864
     90  CB        70.2910  -15.0720   15.5870 C.3   226  LEU226      0.0297
     91  CG        69.6330  -14.9880   16.9650 C.3   226  LEU226      0.0022
     92  CD1       70.3340  -15.8950   17.9660 C.3   226  LEU226      0.0001
     93  CD2       69.6290  -13.5480   17.4550 C.3   226  LEU226      0.0001
@<TRIPOS>BOND
     1    70    68    1
     2    69    68    1
     3    63    62    2
     4    68    67    2
     5    84    83    1
     6    85    83    1
     7    62    61    1
     8    83    80    1
     9    67    66    1
    10    64    61    1
    11    64    65    1
    12    71    72    1
    13    66    65    1
    14    61    60    1
    15    79    80    1
    16    79    73   am
    17    80    81    1
    18    88    89    2
    19    88    87    1
    20    82    81    2
    21    81    86   am
    22    73    72    1
    23    73    74    2
    24    72    75    1
    25    86    87    1
    26    87    90    1
    27    76    75    1
    28    76    78    1
    29    75    77    1
    30     7     5    1
    31    90    91    1
    32    52    51    2
    33     5     6    1
    34     5     2    1
    35    51    50    1
    36     1     2    1
    37    50    49    1
    38    50    53    1
    39    91    93    1
    40    91    92    1
    41     2     3    1
    42    53    54    1
    43     3     4    2
    44    55    54   ar
    45    55    57   ar
    46    54    56   ar
    47    57    59   ar
    48    14    13    1
    49    56    58   ar
    50    23    21    1
    51    13    12    1
    52    13    15    1
    53    59    58   ar
    54    12     9    1
    55    21    20    1
    56     8     9    1
    57     9    10    1
    58    20    22    1
    59    20    17    1
    60    16    10   am
    61    16    17    1
    62    10    11    2
    63    17    18    1
    64    48    46   ar
    65    48    47   ar
    66    46    44   ar
    67    18    19    2
    68    47    45   ar
    69    44    43   ar
    70    41    40    2
    71    29    28    1
    72    45    43   ar
    73    24    25    1
    74    43    42    1
    75    28    25    1
    76    40    39    1
    77    25    26    1
    78    39    42    1
    79    39    38    1
    80    37    35    1
    81    30    26   am
    82    30    31    1
    83    34    35    1
    84    34    31    1
    85    26    27    2
    86    35    36    1
    87    31    32    1
    88    32    33    2
