@<TRIPOS>MOLECULE
tmp/4mlbB12.pdb
 86 84 0 0 0
SMALL
GASTEIGER

@<TRIPOS>ATOM
      1  N         32.1130  -18.1880   21.0180 N.3    38  ALA38      -0.1245
      2  CA        33.4770  -18.4390   20.5770 C.3    38  ALA38       0.1562
      3  C         33.5810  -19.7340   19.7680 C.2    38  ALA38       0.2260
      4  O         34.2460  -19.7700   18.7310 O.2    38  ALA38      -0.2867
      5  CB        34.4120  -18.4720   21.7650 C.3    38  ALA38       0.0290
      6  N         32.4060  -19.4630   16.2960 N.3    41  ILE41      -0.1231
      7  CA        33.3730  -18.7430   15.4770 C.3    41  ILE41       0.1692
      8  C         34.5370  -19.6370   15.0390 C.2    41  ILE41       0.2592
      9  O         34.9260  -19.6240   13.8710 O.2    41  ILE41      -0.2718
     10  CB        33.9140  -17.4970   16.2080 C.3    41  ILE41       0.0266
     11  CG1       32.7860  -16.4890   16.4400 C.3    41  ILE41       0.0019
     12  CG2       35.0450  -16.8520   15.4150 C.3    41  ILE41       0.0020
     13  CD1       33.2170  -15.2420   17.1830 C.3    41  ILE41       0.0001
     14  N         35.0870  -20.4100   15.9740 N.am   42  TRP42      -0.1976
     15  CA        36.2070  -21.3020   15.6660 C.3    42  TRP42       0.1640
     16  C         35.8320  -22.3310   14.6040 C.2    42  TRP42       0.2290
     17  O         36.6190  -22.6250   13.7060 O.2    42  TRP42      -0.2864
     18  CB        36.7090  -22.0210   16.9250 C.3    42  TRP42       0.0576
     19  CG        37.2940  -21.1100   17.9690 C.ar   42  TRP42       0.0006
     20  CD1       36.8720  -20.9660   19.2600 C.ar   42  TRP42       0.0946
     21  CD2       38.4060  -20.2190   17.8110 C.ar   42  TRP42       0.0152
     22  NE1       37.6500  -20.0430   19.9140 N.ar   42  TRP42      -0.2442
     23  CE2       38.6010  -19.5690   19.0460 C.ar   42  TRP42       0.0810
     24  CE3       39.2570  -19.9080   16.7450 C.ar   42  TRP42       0.0012
     25  CZ2       39.6070  -18.6270   19.2460 C.ar   42  TRP42       0.0191
     26  CZ3       40.2590  -18.9730   16.9450 C.ar   42  TRP42       0.0001
     27  CH2       40.4240  -18.3440   18.1850 C.ar   42  TRP42       0.0015
     28  N         33.4390  -22.0130   12.3770 N.3    44  SER44      -0.1202
     29  CA        33.0760  -21.3380   11.1320 C.3    44  SER44       0.2020
     30  C         34.2520  -21.1950   10.1680 C.2    44  SER44       0.2619
     31  O         34.0580  -20.9830    8.9720 O.2    44  SER44      -0.2717
     32  CB        32.4710  -19.9610   11.4210 C.3    44  SER44       0.2103
     33  OG        33.4530  -19.0660   11.9120 O.3    44  SER44      -0.2182
     34  N         35.4700  -21.3090   10.6900 N.am   45  GLY45      -0.1956
     35  CA        36.6590  -21.1870    9.8670 C.3    45  GLY45       0.1869
     36  C         37.2900  -22.5200    9.5090 C.2    45  GLY45       0.2309
     37  O         38.4900  -22.5900    9.2440 O.2    45  GLY45      -0.2863
     38  N         36.7220  -22.5940   26.7690 N.3   179  ILE179     -0.1231
     39  CA        37.0630  -21.4510   25.9260 C.3   179  ILE179      0.1692
     40  C         38.5470  -21.4640   25.5760 C.2   179  ILE179      0.2591
     41  O         38.9280  -21.2610   24.4240 O.2   179  ILE179     -0.2718
     42  CB        36.7020  -20.1170   26.6140 C.3   179  ILE179      0.0266
     43  CG1       35.1930  -19.8810   26.5470 C.3   179  ILE179      0.0019
     44  CG2       37.4490  -18.9510   25.9750 C.3   179  ILE179      0.0020
     45  CD1       34.7350  -18.6430   27.2890 C.3   179  ILE179      0.0001
     46  N         39.3820  -21.7150   26.5780 N.am  180  VAL180     -0.1980
     47  CA        40.8230  -21.7870   26.3690 C.3   180  VAL180      0.1595
     48  C         41.2150  -22.9840   25.4990 C.2   180  VAL180      0.2287
     49  O         42.0110  -22.8490   24.5700 O.2   180  VAL180     -0.2864
     50  CB        41.5800  -21.8480   27.7120 C.3   180  VAL180      0.0276
     51  CG1       43.0670  -22.0780   27.4820 C.3   180  VAL180      0.0022
     52  CG2       41.3510  -20.5700   28.5060 C.3   180  VAL180      0.0022
     53  N         40.3610  -23.3890   20.8130 N.3   183  PRO183     -0.2102
     54  CA        41.2010  -23.1740   19.6310 C.3   183  PRO183      0.1504
     55  C         42.5110  -23.9490   19.7060 C.2   183  PRO183      0.2575
     56  O         43.1360  -24.1920   18.6760 O.2   183  PRO183     -0.2718
     57  CB        41.4780  -21.6710   19.6770 C.3   183  PRO183      0.0282
     58  CG        41.4560  -21.3490   21.1060 C.3   183  PRO183      0.0208
     59  CD        40.3930  -22.2230   21.7150 C.3   183  PRO183      0.0893
     60  N         42.9220  -24.3220   20.9130 N.am  184  ILE184     -0.1980
     61  CA        44.1340  -25.1110   21.0910 C.3   184  ILE184      0.1595
     62  C         43.9580  -26.5020   20.4870 C.2   184  ILE184      0.2287
     63  O         44.8300  -26.9960   19.7730 O.2   184  ILE184     -0.2864
     64  CB        44.5190  -25.2260   22.5780 C.3   184  ILE184      0.0276
     65  CG1       44.8310  -23.8420   23.1520 C.3   184  ILE184      0.0022
     66  CG2       45.7150  -26.1490   22.7520 C.3   184  ILE184      0.0022
     67  CD1       45.1910  -23.8540   24.6260 C.3   184  ILE184      0.0001
     68  N         42.7940  -25.9590   16.3220 N.3   187  TYR187     -0.1227
     69  CA        43.7920  -25.3980   15.4200 C.3   187  TYR187      0.1736
     70  C         45.2150  -25.7300   15.8240 C.2   187  TYR187      0.2596
     71  O         45.9570  -26.3370   15.0510 O.2   187  TYR187     -0.2718
     72  CB        43.6210  -23.8820   15.3120 C.3   187  TYR187      0.0548
     73  CG        42.3570  -23.4830   14.5960 C.ar  187  TYR187     -0.0200
     74  CD1       41.2060  -23.1700   15.3040 C.ar  187  TYR187     -0.0009
     75  CD2       42.3100  -23.4360   13.2100 C.ar  187  TYR187     -0.0009
     76  CE1       40.0440  -22.8110   14.6500 C.ar  187  TYR187      0.0417
     77  CE2       41.1550  -23.0790   12.5480 C.ar  187  TYR187      0.0417
     78  CZ        40.0240  -22.7660   13.2720 C.ar  187  TYR187      0.1957
     79  OH        38.8700  -22.4080   12.6140 O.3   187  TYR187     -0.2866
     80  N         45.5930  -25.3200   17.0310 N.am  188  THR188     -0.1953
     81  CA        46.9580  -25.5050   17.5040 C.3   188  THR188      0.1897
     82  C         47.3750  -26.9690   17.4570 C.2   188  THR188      0.2313
     83  O         48.4650  -27.2740   17.0070 O.2   188  THR188     -0.2863
     84  CB        47.1610  -24.9740   18.9350 C.3   188  THR188      0.1794
     85  OG1       46.7270  -23.6120   19.0120 O.3   188  THR188     -0.2208
     86  CG2       48.6290  -25.0590   19.3290 C.3   188  THR188      0.0378
@<TRIPOS>BOND
     1    31    30    2
     2    37    36    2
     3    36    35    1
     4    35    34    1
     5    30    34   am
     6    30    29    1
     7    29    32    1
     8    29    28    1
     9    32    33    1
    10    77    75   ar
    11    77    78   ar
    12    79    78    1
    13    75    73   ar
    14    78    76   ar
    15    17    16    2
    16     9     8    2
    17    73    74   ar
    18    73    72    1
    19    16    15    1
    20    76    74   ar
    21     8     7    1
    22     8    14   am
    23    71    70    2
    24    72    69    1
    25    12    10    1
    26    69    70    1
    27    69    68    1
    28     7    10    1
    29     7     6    1
    30    15    14    1
    31    15    18    1
    32    70    80   am
    33    10    11    1
    34    11    13    1
    35    24    26   ar
    36    24    21   ar
    37    18    19    1
    38    26    27   ar
    39    83    82    2
    40    80    81    1
    41    82    81    1
    42    81    84    1
    43    21    19   ar
    44    21    23   ar
    45    19    20   ar
    46    27    25   ar
    47    56    55    2
    48     4     3    2
    49    84    85    1
    50    84    86    1
    51    23    25   ar
    52    23    22   ar
    53    20    22   ar
    54    54    57    1
    55    54    55    1
    56    54    53    1
    57    57    58    1
    58    55    60   am
    59     3     2    1
    60    63    62    2
    61    62    61    1
    62     2     1    1
    63     2     5    1
    64    53    59    1
    65    60    61    1
    66    61    64    1
    67    58    59    1
    68    64    66    1
    69    64    65    1
    70    65    67    1
    71    41    40    2
    72    49    48    2
    73    48    47    1
    74    40    39    1
    75    40    46   am
    76    39    42    1
    77    39    38    1
    78    44    42    1
    79    47    46    1
    80    47    50    1
    81    43    42    1
    82    43    45    1
    83    51    50    1
    84    50    52    1
