@<TRIPOS>MOLECULE
tmp/4mlbA06.pdb
 108 99 0 0 0
SMALL
GASTEIGER

@<TRIPOS>ATOM
      1  N         50.8080  -11.1330    5.0960 N.3     3  THR3       -0.1203
      2  CA        49.7900  -11.7320    5.9510 C.3     3  THR3        0.1994
      3  C         48.4960  -10.9190    5.9360 C.2     3  THR3        0.2618
      4  O         48.4530   -9.8120    5.4000 O.2     3  THR3       -0.2717
      5  CB        50.2890  -11.8420    7.4000 C.3     3  THR3        0.1784
      6  OG1       50.5520  -10.5300    7.9130 O.3     3  THR3       -0.2211
      7  CG2       51.5670  -12.6700    7.4630 C.3     3  THR3        0.0376
      8  N         47.4430  -11.4780    6.5260 N.am    4  LYS4       -0.1965
      9  CA        46.1580  -10.7950    6.6360 C.3     4  LYS4        0.1728
     10  C         46.2630   -9.5500    7.5130 C.2     4  LYS4        0.2616
     11  O         45.5820   -8.5520    7.2740 O.2     4  LYS4       -0.2715
     12  CB        45.0920  -11.7370    7.2040 C.3     4  LYS4        0.0311
     13  CG        44.2790  -12.4920    6.1630 C.3     4  LYS4        0.0038
     14  CD        45.1350  -13.4550    5.3580 C.3     4  LYS4        0.0206
     15  CE        44.2760  -14.3350    4.4640 C.3     4  LYS4        0.1093
     16  NZ        43.3940  -13.5320    3.5710 N.3     4  LYS4       -0.1314
     17  N         47.1170   -9.6200    8.5310 N.am    5  GLY5       -0.1955
     18  CA        47.3170   -8.5080    9.4430 C.3     5  GLY5        0.1869
     19  C         47.9080   -7.2860    8.7590 C.2     5  GLY5        0.2309
     20  O         47.4360   -6.1650    8.9510 O.2     5  GLY5       -0.2863
     21  N         45.4320   -5.6580    6.3900 N.3     8  LEU8       -0.1245
     22  CA        44.5150   -4.8710    7.2050 C.3     8  LEU8        0.1561
     23  C         45.1710   -3.5680    7.6660 C.2     8  LEU8        0.2260
     24  O         44.5690   -2.4960    7.5980 O.2     8  LEU8       -0.2867
     25  CB        44.0720   -5.6980    8.4150 C.3     8  LEU8        0.0270
     26  CG        43.0610   -5.0680    9.3680 C.3     8  LEU8        0.0019
     27  CD1       41.7950   -4.7100    8.6100 C.3     8  LEU8        0.0001
     28  CD2       42.7430   -5.9900   10.5400 C.3     8  LEU8        0.0001
     29  N         38.8910   -2.6770   13.1670 N.3    19  ARG19      -0.1245
     30  CA        39.1760   -4.1040   13.2660 C.3    19  ARG19       0.1563
     31  C         40.4190   -4.4380   14.0910 C.2    19  ARG19       0.2260
     32  O         40.5790   -5.5710   14.5400 O.2    19  ARG19      -0.2867
     33  CB        39.2440   -4.7390   11.8760 C.3    19  ARG19       0.0307
     34  CG        37.9510   -4.5810   11.0940 C.3    19  ARG19       0.0489
     35  CD        37.7660   -5.6890   10.0790 C.3    19  ARG19       0.2205
     36  NE        36.4500   -5.6280    9.4510 N.pl3  19  ARG19      -0.0865
     37  CZ        35.9580   -6.5720    8.6560 C.cat  19  ARG19       0.5346
     38  NH1       36.6720   -7.6580    8.3940 N.pl3  19  ARG19       0.1354
     39  NH2       34.7490   -6.4320    8.1270 N.pl3  19  ARG19       0.1354
     40  N         38.5710   -6.5470   23.7710 N.3    26  ILE26      -0.1245
     41  CA        38.1940   -7.8310   24.3440 C.3    26  ILE26       0.1561
     42  C         39.2890   -8.3500   25.2720 C.2    26  ILE26       0.2260
     43  O         39.0130   -8.7880   26.3880 O.2    26  ILE26      -0.2867
     44  CB        37.9000   -8.8650   23.2400 C.3    26  ILE26       0.0252
     45  CG1       36.7260   -8.3930   22.3790 C.3    26  ILE26       0.0019
     46  CG2       37.6090  -10.2320   23.8420 C.3    26  ILE26       0.0019
     47  CD1       36.4460   -9.2710   21.1800 C.3    26  ILE26       0.0001
     48  N         39.0580   -8.8340   29.5160 N.3    30  VAL30      -0.1245
     49  CA        39.3400  -10.0550   30.2650 C.3    30  VAL30       0.1561
     50  C         40.4020   -9.7850   31.3320 C.2    30  VAL30       0.2260
     51  O         40.3030  -10.2770   32.4560 O.2    30  VAL30      -0.2867
     52  CB        39.7990  -11.2000   29.3390 C.3    30  VAL30       0.0252
     53  CG1       40.0170  -12.4770   30.1350 C.3    30  VAL30       0.0019
     54  CG2       38.7760  -11.4330   28.2350 C.3    30  VAL30       0.0019
     55  N         49.6850   -5.8140   12.5180 N.3   161  GLY161     -0.1210
     56  CA        48.2720   -5.9550   12.2230 C.3   161  GLY161      0.1956
     57  C         47.6530   -7.2330   12.7520 C.2   161  GLY161      0.2611
     58  O         46.5070   -7.5520   12.4380 O.2   161  GLY161     -0.2717
     59  N         48.4100   -7.9660   13.5600 N.am  162  ASP162     -0.1973
     60  CA        47.9230   -9.2200   14.1240 C.3   162  ASP162      0.1709
     61  C         47.3730   -8.9890   15.5280 C.2   162  ASP162      0.2293
     62  O         47.8770   -9.5460   16.5040 O.2   162  ASP162     -0.2864
     63  CB        49.0440  -10.2610   14.1570 C.3   162  ASP162      0.1436
     64  CG        48.5200  -11.6860   14.2000 C.2   162  ASP162      0.3671
     65  OD1       49.2360  -12.5970   13.7310 O.co2 162  ASP162     -0.2456
     66  OD2       47.3920  -11.8960   14.6920 O.co2 162  ASP162     -0.2456
     67  N         44.4980   -9.9300   16.4330 N.3   164  ASN164     -0.1225
     68  CA        43.7850  -11.1570   16.7610 C.3   164  ASN164      0.1785
     69  C         44.5690  -12.0520   17.7160 C.2   164  ASN164      0.2597
     70  O         44.0500  -12.4510   18.7570 O.2   164  ASN164     -0.2718
     71  CB        43.4260  -11.9340   15.4940 C.3   164  ASN164      0.1169
     72  CG        42.2760  -11.3090   14.7340 C.2   164  ASN164      0.2627
     73  OD1       41.4640  -10.5800   15.3020 O.2   164  ASN164     -0.2716
     74  ND2       42.1970  -11.5990   13.4410 N.am  164  ASN164     -0.0877
     75  N         45.8180  -12.3560   17.3680 N.am  165  ARG165     -0.1979
     76  CA        46.6430  -13.2140   18.2170 C.3   165  ARG165      0.1597
     77  C         47.1560  -12.4850   19.4520 C.2   165  ARG165      0.2287
     78  O         47.4100  -13.1020   20.4840 O.2   165  ARG165     -0.2864
     79  CB        47.7940  -13.8480   17.4280 C.3   165  ARG165      0.0334
     80  CG        47.3240  -14.8670   16.3940 C.3   165  ARG165      0.0492
     81  CD        48.3830  -15.9080   16.0590 C.3   165  ARG165      0.2205
     82  NE        49.4690  -15.3660   15.2470 N.pl3 165  ARG165     -0.0865
     83  CZ        50.4310  -16.1020   14.7010 C.cat 165  ARG165      0.5346
     84  NH1       50.4460  -17.4150   14.8750 N.pl3 165  ARG165      0.1354
     85  NH2       51.3800  -15.5250   13.9770 N.pl3 165  ARG165      0.1354
     86  N         45.2750  -10.4660   21.0520 N.3   167  MET167     -0.1230
     87  CA        44.1120  -10.6790   21.9040 C.3   167  MET167      0.1702
     88  C         44.1190  -12.0760   22.5190 C.2   167  MET167      0.2592
     89  O         43.8930  -12.2310   23.7180 O.2   167  MET167     -0.2718
     90  CB        42.8210  -10.4780   21.1090 C.3   167  MET167      0.0401
     91  CG        41.5730  -10.9230   21.8550 C.3   167  MET167      0.0596
     92  SD        40.1430  -11.1030   20.7760 S.3   167  MET167     -0.1393
     93  CE        40.7140  -12.4000   19.6790 C.3   167  MET167      0.0692
     94  N         44.3740  -13.0840   21.6880 N.am  168  LEU168     -0.1980
     95  CA        44.3800  -14.4760   22.1340 C.3   168  LEU168      0.1596
     96  C         45.3780  -14.7070   23.2650 C.2   168  LEU168      0.2287
     97  O         45.0710  -15.3910   24.2380 O.2   168  LEU168     -0.2864
     98  CB        44.6760  -15.4190   20.9640 C.3   168  LEU168      0.0297
     99  CG        43.6690  -15.4400   19.8090 C.3   168  LEU168      0.0022
    100  CD1       44.1140  -16.4090   18.7140 C.3   168  LEU168      0.0001
    101  CD2       42.2730  -15.7820   20.3030 C.3   168  LEU168      0.0001
    102  N         43.8400  -13.1050   26.3960 N.3   171  VAL171     -0.1245
    103  CA        42.7310  -13.8920   26.9130 C.3   171  VAL171      0.1561
    104  C         43.2390  -15.2070   27.4980 C.2   171  VAL171      0.2260
    105  O         42.7260  -15.6830   28.5090 O.2   171  VAL171     -0.2867
    106  CB        41.6750  -14.1830   25.8360 C.3   171  VAL171      0.0252
    107  CG1       40.5390  -14.9990   26.4300 C.3   171  VAL171      0.0019
    108  CG2       41.1410  -12.8870   25.2420 C.3   171  VAL171      0.0019
@<TRIPOS>BOND
     1    16    15    1
     2    15    14    1
     3     1     2    1
     4    14    13    1
     5     4     3    2
     6     3     2    1
     7     3     8   am
     8     2     5    1
     9    13    12    1
    10    21    22    1
    11     8     9    1
    12     9    12    1
    13     9    10    1
    14    22    23    1
    15    22    25    1
    16    11    10    2
    17     5     7    1
    18     5     6    1
    19    10    17   am
    20    24    23    2
    21    39    37    1
    22    38    37    1
    23    25    26    1
    24    17    18    1
    25    27    26    1
    26    37    36    2
    27    19    20    2
    28    19    18    1
    29    26    28    1
    30    36    35    1
    31    35    34    1
    32    34    33    1
    33    33    30    1
    34    56    55    1
    35    56    57    1
    36    58    57    2
    37    57    59   am
    38    29    30    1
    39    30    31    1
    40    74    72   am
    41    59    60    1
    42    65    64   ar
    43    85    83    1
    44    31    32    2
    45    60    63    1
    46    60    61    1
    47    63    64    1
    48    64    66   ar
    49    83    84    1
    50    83    82    2
    51    72    73    2
    52    72    71    1
    53    82    81    1
    54    71    68    1
    55    61    62    2
    56    81    80    1
    57    80    79    1
    58    67    68    1
    59    68    69    1
    60    75    69   am
    61    75    76    1
    62    79    76    1
    63    69    70    2
    64    76    77    1
    65   100    99    1
    66    77    78    2
    67    93    92    1
    68    99   101    1
    69    99    98    1
    70    92    91    1
    71    98    95    1
    72    86    87    1
    73    90    91    1
    74    90    87    1
    75    47    45    1
    76    94    95    1
    77    94    88   am
    78    87    88    1
    79    95    96    1
    80    45    44    1
    81    88    89    2
    82    44    46    1
    83    44    41    1
    84    96    97    2
    85    40    41    1
    86    41    42    1
    87   108   106    1
    88    42    43    2
    89   106   107    1
    90   106   103    1
    91   102   103    1
    92   103   104    1
    93   104   105    2
    94    54    52    1
    95    52    53    1
    96    52    49    1
    97    48    49    1
    98    49    50    1
    99    50    51    2
