@<TRIPOS>MOLECULE
tmp/4mlbB07.pdb
 77 73 0 0 0
SMALL
GASTEIGER

@<TRIPOS>ATOM
      1  N         23.9150  -41.3870   37.1850 N.3   103  LEU103     -0.1245
      2  CA        24.6090  -42.5210   36.5920 C.3   103  LEU103      0.1561
      3  C         23.6730  -43.3120   35.6840 C.2   103  LEU103      0.2260
      4  O         24.0470  -43.6860   34.5750 O.2   103  LEU103     -0.2867
      5  CB        25.1890  -43.4290   37.6780 C.3   103  LEU103      0.0270
      6  CG        26.0080  -44.6190   37.1760 C.3   103  LEU103      0.0019
      7  CD1       27.1800  -44.1430   36.3290 C.3   103  LEU103      0.0001
      8  CD2       26.4930  -45.4680   38.3400 C.3   103  LEU103      0.0001
      9  N         22.9900  -41.2060   32.6030 N.3   106  GLY106     -0.1210
     10  CA        24.2010  -41.1210   31.8060 C.3   106  GLY106      0.1956
     11  C         24.4810  -42.4020   31.0470 C.2   106  GLY106      0.2611
     12  O         24.8770  -42.3710   29.8820 O.2   106  GLY106     -0.2717
     13  N         24.2720  -43.5340   31.7110 N.am  107  VAL107     -0.1979
     14  CA        24.4710  -44.8380   31.0910 C.3   107  VAL107      0.1595
     15  C         23.4040  -45.0970   30.0300 C.2   107  VAL107      0.2287
     16  O         23.6970  -45.6220   28.9550 O.2   107  VAL107     -0.2864
     17  CB        24.4580  -45.9700   32.1460 C.3   107  VAL107      0.0276
     18  CG1       24.3900  -47.3320   31.4800 C.3   107  VAL107      0.0022
     19  CG2       25.6840  -45.8760   33.0400 C.3   107  VAL107      0.0022
     20  N         24.1240  -43.2210   26.7370 N.3   110  THR110     -0.1203
     21  CA        25.2170  -43.8550   26.0090 C.3   110  THR110      0.1994
     22  C         24.7670  -45.1350   25.3090 C.2   110  THR110      0.2617
     23  O         25.0070  -45.3190   24.1180 O.2   110  THR110     -0.2717
     24  CB        26.3950  -44.1920   26.9450 C.3   110  THR110      0.1784
     25  OG1       26.8370  -43.0030   27.6130 O.3   110  THR110     -0.2211
     26  CG2       27.5500  -44.7820   26.1510 C.3   110  THR110      0.0376
     27  N         24.1040  -46.0090   26.0580 N.am  111  ILE111     -0.1979
     28  CA        23.6950  -47.3150   25.5500 C.3   111  ILE111      0.1595
     29  C         22.6630  -47.2210   24.4270 C.2   111  ILE111      0.2287
     30  O         22.7170  -47.9780   23.4570 O.2   111  ILE111     -0.2864
     31  CB        23.1530  -48.2060   26.6900 C.3   111  ILE111      0.0276
     32  CG1       24.2870  -48.5940   27.6400 C.3   111  ILE111      0.0022
     33  CG2       22.4890  -49.4590   26.1420 C.3   111  ILE111      0.0022
     34  CD1       23.8650  -49.5660   28.7110 C.3   111  ILE111      0.0001
     35  N         24.3590  -44.5140   21.0360 N.3   114  LEU114     -0.1231
     36  CA        25.5060  -44.9750   20.2480 C.3   114  LEU114      0.1678
     37  C         25.1600  -45.8900   19.0590 C.2   114  LEU114      0.2434
     38  O         25.7160  -45.7160   17.9750 O.2   114  LEU114     -0.2733
     39  CB        26.5800  -45.6170   21.1380 C.3   114  LEU114      0.0284
     40  CG        27.4140  -44.6860   22.0230 C.3   114  LEU114      0.0019
     41  CD1       28.5620  -45.4520   22.6640 C.3   114  LEU114      0.0001
     42  CD2       27.9360  -43.4980   21.2300 C.3   114  LEU114      0.0001
     43  N         24.2530  -46.8690   19.2490 N.am  115  PRO115     -0.2729
     44  CA        23.8950  -47.6890   18.0840 C.3   115  PRO115      0.1401
     45  C         22.9220  -46.9940   17.1320 C.2   115  PRO115      0.2269
     46  O         22.6280  -47.5340   16.0660 O.2   115  PRO115     -0.2865
     47  CB        23.2030  -48.9090   18.7100 C.3   115  PRO115      0.0296
     48  CG        23.5600  -48.8770   20.1600 C.3   115  PRO115      0.0237
     49  CD        23.6990  -47.4320   20.4920 C.3   115  PRO115      0.0939
     50  N         29.4010  -40.8620   24.8510 N.3   143  ALA143     -0.1231
     51  CA        30.1470  -41.7810   25.7040 C.3   143  ALA143      0.1694
     52  C         30.4150  -41.1500   27.0650 C.2   143  ALA143      0.2592
     53  O         30.3280  -41.8170   28.0980 O.2   143  ALA143     -0.2718
     54  CB        31.4510  -42.1820   25.0400 C.3   143  ALA143      0.0304
     55  N         30.7390  -39.8600   27.0580 N.am  144  GLY144     -0.1957
     56  CA        31.0030  -39.1330   28.2850 C.3   144  GLY144      0.1869
     57  C         29.7730  -38.4170   28.8070 C.2   144  GLY144      0.2309
     58  O         29.8810  -37.4290   29.5330 O.2   144  GLY144     -0.2863
     59  N         27.6360  -39.3530   31.0190 N.3   146  PHE146     -0.1227
     60  CA        27.5480  -39.4330   32.4750 C.3   146  PHE146      0.1736
     61  C         28.2360  -38.2510   33.1530 C.2   146  PHE146      0.2595
     62  O         27.7160  -37.6980   34.1210 O.2   146  PHE146     -0.2718
     63  CB        28.1370  -40.7490   32.9920 C.3   146  PHE146      0.0547
     64  CG        28.4190  -40.7450   34.4710 C.ar  146  PHE146     -0.0202
     65  CD1       29.7140  -40.8900   34.9430 C.ar  146  PHE146     -0.0042
     66  CD2       27.3920  -40.5770   35.3870 C.ar  146  PHE146     -0.0042
     67  CE1       29.9780  -40.8810   36.3030 C.ar  146  PHE146     -0.0003
     68  CE2       27.6490  -40.5640   36.7470 C.ar  146  PHE146     -0.0003
     69  CZ        28.9440  -40.7170   37.2050 C.ar  146  PHE146     -0.0000
     70  N         29.4010  -37.8690   32.6380 N.am  147  ILE147     -0.1980
     71  CA        30.1570  -36.7500   33.1890 C.3   147  ILE147      0.1595
     72  C         29.3370  -35.4660   33.1240 C.2   147  ILE147      0.2287
     73  O         29.3110  -34.6840   34.0760 O.2   147  ILE147     -0.2864
     74  CB        31.4910  -36.5390   32.4430 C.3   147  ILE147      0.0276
     75  CG1       32.2450  -37.8640   32.3040 C.3   147  ILE147      0.0022
     76  CG2       32.3500  -35.5060   33.1620 C.3   147  ILE147      0.0022
     77  CD1       32.5650  -38.5250   33.6240 C.3   147  ILE147      0.0001
@<TRIPOS>BOND
     1    46    45    2
     2    45    44    1
     3    38    37    2
     4    44    47    1
     5    44    43    1
     6    47    48    1
     7    37    43   am
     8    37    36    1
     9    43    49    1
    10    48    49    1
    11    36    35    1
    12    36    39    1
    13    39    40    1
    14    42    40    1
    15    40    41    1
    16    30    29    2
    17    23    22    2
    18    29    28    1
    19    50    51    1
    20    54    51    1
    21    22    21    1
    22    22    27   am
    23    28    27    1
    24    28    31    1
    25    51    52    1
    26    21    20    1
    27    21    24    1
    28    33    31    1
    29    26    24    1
    30    31    32    1
    31    24    25    1
    32    55    52   am
    33    55    56    1
    34    52    53    2
    35    32    34    1
    36    56    57    1
    37    57    58    2
    38    16    15    2
    39    12    11    2
    40    15    14    1
    41    59    60    1
    42    11    13   am
    43    11    10    1
    44    14    13    1
    45    14    17    1
    46    18    17    1
    47    10     9    1
    48    17    19    1
    49    75    74    1
    50    75    77    1
    51    74    76    1
    52    74    71    1
    53    60    63    1
    54    60    61    1
    55    70    61   am
    56    70    71    1
    57    63    64    1
    58    72    71    1
    59    72    73    2
    60    61    62    2
    61    64    65   ar
    62    64    66   ar
    63     4     3    2
    64    65    67   ar
    65    66    68   ar
    66     3     2    1
    67    67    69   ar
    68     7     6    1
    69     2     1    1
    70     2     5    1
    71    68    69   ar
    72     6     5    1
    73     6     8    1
