@<TRIPOS>MOLECULE
tmp/4mlbB00.pdb
 94 87 0 0 0
SMALL
GASTEIGER

@<TRIPOS>ATOM
      1  N         23.8620  -23.4540   56.5200 N.3     4  THR4       -0.1203
      2  CA        24.8970  -22.7990   55.7370 C.3     4  THR4        0.1994
      3  C         24.4230  -21.4140   55.3350 C.2     4  THR4        0.2618
      4  O         23.2510  -21.0780   55.4990 O.2     4  THR4       -0.2717
      5  CB        25.2460  -23.6030   54.4740 C.3     4  THR4        0.1784
      6  OG1       24.0760  -23.7450   53.6600 O.3     4  THR4       -0.2211
      7  CG2       25.7720  -24.9830   54.8470 C.3     4  THR4        0.0376
      8  N         25.3370  -20.6120   54.8070 N.am    5  LYS5       -0.1965
      9  CA        25.0020  -19.2640   54.3740 C.3     5  LYS5        0.1728
     10  C         24.0500  -19.2850   53.1790 C.2     5  LYS5        0.2616
     11  O         23.3460  -18.3080   52.9170 O.2     5  LYS5       -0.2715
     12  CB        26.2780  -18.4910   54.0420 C.3     5  LYS5        0.0311
     13  CG        27.2040  -18.3040   55.2270 C.3     5  LYS5        0.0038
     14  CD        26.6030  -17.3450   56.2410 C.3     5  LYS5        0.0206
     15  CE        27.3520  -17.4050   57.5600 C.3     5  LYS5        0.1093
     16  NZ        28.8120  -17.1840   57.3750 N.3     5  LYS5       -0.1314
     17  N         24.0320  -20.4030   52.4590 N.am    6  GLY6       -0.1955
     18  CA        23.1380  -20.5700   51.3290 C.3     6  GLY6        0.1869
     19  C         21.7330  -20.9170   51.7780 C.2     6  GLY6        0.2309
     20  O         20.7510  -20.4820   51.1760 O.2     6  GLY6       -0.2863
     21  N         20.0880  -17.8110   53.2710 N.3     9  LEU9       -0.1245
     22  CA        19.5490  -17.0020   52.1820 C.3     9  LEU9        0.1561
     23  C         18.1890  -17.5350   51.7560 C.2     9  LEU9        0.2260
     24  O         17.2510  -16.7730   51.5240 O.2     9  LEU9       -0.2867
     25  CB        20.4950  -17.0130   50.9810 C.3     9  LEU9        0.0270
     26  CG        21.6390  -16.0020   50.9660 C.3     9  LEU9        0.0019
     27  CD1       22.4950  -16.2040   49.7280 C.3     9  LEU9        0.0001
     28  CD2       21.0940  -14.5840   51.0150 C.3     9  LEU9        0.0001
     29  N         20.8660  -12.3260   45.4650 N.3    20  ARG20      -0.1245
     30  CA        22.1270  -12.9980   45.7650 C.3    20  ARG20       0.1563
     31  C         22.2560  -14.3840   45.1340 C.2    20  ARG20       0.2260
     32  O         23.3560  -14.9270   45.0440 O.2    20  ARG20      -0.2867
     33  CB        22.3490  -13.0800   47.2790 C.3    20  ARG20       0.0307
     34  CG        22.6780  -11.7430   47.9280 C.3    20  ARG20       0.0489
     35  CD        23.0710  -11.9240   49.3860 C.3    20  ARG20       0.2205
     36  NE        23.5760  -10.6920   49.9850 N.pl3  20  ARG20      -0.0865
     37  CZ        24.8450  -10.3000   49.9280 C.cat  20  ARG20       0.5346
     38  NH1       25.7420  -11.0410   49.2910 N.pl3  20  ARG20       0.1354
     39  NH2       25.2200   -9.1660   50.5040 N.pl3  20  ARG20       0.1354
     40  N         26.3450  -14.7120   35.8960 N.3    27  ILE27      -0.1245
     41  CA        27.7660  -14.7350   35.5780 C.3    27  ILE27       0.1561
     42  C         28.1760  -16.0760   34.9780 C.2    27  ILE27       0.2260
     43  O         28.8670  -16.1240   33.9610 O.2    27  ILE27      -0.2867
     44  CB        28.6170  -14.4520   36.8260 C.3    27  ILE27       0.0252
     45  CG1       28.3510  -13.0310   37.3300 C.3    27  ILE27       0.0019
     46  CG2       30.0950  -14.6500   36.5230 C.3    27  ILE27       0.0019
     47  CD1       29.1030  -12.6780   38.5880 C.3    27  ILE27       0.0001
     48  N         20.9460  -23.0560   48.0660 N.3   162  GLY162     -0.1210
     49  CA        21.3190  -21.6530   48.0890 C.3   162  GLY162      0.1956
     50  C         22.7930  -21.4020   47.8460 C.2   162  GLY162      0.2611
     51  O         23.2810  -20.2880   48.0400 O.2   162  GLY162     -0.2717
     52  N         23.5070  -22.4370   47.4190 N.am  163  ASP163     -0.1973
     53  CA        24.9320  -22.3130   47.1440 C.3   163  ASP163      0.1709
     54  C         25.1440  -21.9900   45.6680 C.2   163  ASP163      0.2293
     55  O         25.7980  -22.7410   44.9430 O.2   163  ASP163     -0.2864
     56  CB        25.6660  -23.6020   47.5230 C.3   163  ASP163      0.1436
     57  CG        27.1540  -23.3900   47.7330 C.2   163  ASP163      0.3671
     58  OD1       27.7660  -24.1820   48.4800 O.co2 163  ASP163     -0.2456
     59  OD2       27.7120  -22.4310   47.1610 O.co2 163  ASP163     -0.2456
     60  N         26.8860  -19.6150   44.5750 N.3   165  ASN165     -0.1225
     61  CA        28.2760  -19.2090   44.4070 C.3   165  ASN165      0.1785
     62  C         29.1680  -20.3080   43.8350 C.2   165  ASN165      0.2597
     63  O         29.9440  -20.0560   42.9140 O.2   165  ASN165     -0.2718
     64  CB        28.8630  -18.7020   45.7250 C.3   165  ASN165      0.1169
     65  CG        28.3990  -17.3060   46.0740 C.2   165  ASN165      0.2627
     66  OD1       28.2570  -16.9660   47.2470 O.2   165  ASN165     -0.2716
     67  ND2       28.1560  -16.4910   45.0570 N.am  165  ASN165     -0.0877
     68  N         29.0590  -21.5180   44.3790 N.am  166  ARG166     -0.1979
     69  CA        29.8780  -22.6340   43.9030 C.3   166  ARG166      0.1597
     70  C         29.3310  -23.2580   42.6250 C.2   166  ARG166      0.2287
     71  O         30.0800  -23.8100   41.8230 O.2   166  ARG166     -0.2864
     72  CB        30.0770  -23.6920   44.9930 C.3   166  ARG166      0.0334
     73  CG        31.0380  -23.2400   46.0830 C.3   166  ARG166      0.0492
     74  CD        31.7090  -24.3950   46.7980 C.3   166  ARG166      0.2205
     75  NE        30.7980  -25.1220   47.6740 N.pl3 166  ARG166     -0.0865
     76  CZ        31.1700  -26.1130   48.4780 C.cat 166  ARG166      0.5346
     77  NH1       32.4380  -26.4940   48.5180 N.pl3 166  ARG166      0.1354
     78  NH2       30.2750  -26.7220   49.2430 N.pl3 166  ARG166      0.1354
     79  N         28.1240  -21.3780   40.3700 N.3   168  MET168     -0.1230
     80  CA        28.7370  -20.4320   39.4440 C.3   168  MET168      0.1702
     81  C         30.1820  -20.8080   39.1350 C.2   168  MET168      0.2592
     82  O         30.5940  -20.8260   37.9750 O.2   168  MET168     -0.2718
     83  CB        28.7020  -19.0160   40.0240 C.3   168  MET168      0.0401
     84  CG        29.5550  -18.0230   39.2470 C.3   168  MET168      0.0596
     85  SD        29.8550  -16.4660   40.1080 S.3   168  MET168     -0.1393
     86  CE        30.8190  -17.0280   41.5090 C.3   168  MET168      0.0692
     87  N         30.9470  -21.0980   40.1830 N.am  169  LEU169     -0.1980
     88  CA        32.3580  -21.4350   40.0340 C.3   169  LEU169      0.1596
     89  C         32.5520  -22.6640   39.1510 C.2   169  LEU169      0.2287
     90  O         33.4380  -22.6860   38.2990 O.2   169  LEU169     -0.2864
     91  CB        33.0080  -21.6510   41.4030 C.3   169  LEU169      0.0297
     92  CG        33.0990  -20.4240   42.3150 C.3   169  LEU169      0.0022
     93  CD1       33.6600  -20.8010   43.6760 C.3   169  LEU169      0.0001
     94  CD2       33.9400  -19.3330   41.6730 C.3   169  LEU169      0.0001
@<TRIPOS>BOND
     1    43    42    2
     2    42    41    1
     3    41    40    1
     4    41    44    1
     5    46    44    1
     6    44    45    1
     7    45    47    1
     8    82    81    2
     9    90    89    2
    10    81    80    1
    11    81    87   am
    12    89    88    1
    13    84    83    1
    14    84    85    1
    15    80    83    1
    16    80    79    1
    17    88    87    1
    18    88    91    1
    19    85    86    1
    20    91    92    1
    21    94    92    1
    22    71    70    2
    23    92    93    1
    24    70    69    1
    25    63    62    2
    26    62    68   am
    27    62    61    1
    28    69    68    1
    29    69    72    1
    30    61    60    1
    31    61    64    1
    32    55    54    2
    33    72    73    1
    34    32    31    2
    35    67    65   am
    36    31    30    1
    37    29    30    1
    38    54    53    1
    39    64    65    1
    40    30    33    1
    41    65    66    2
    42    73    74    1
    43    74    75    1
    44    53    52    1
    45    53    56    1
    46    59    57   ar
    47    33    34    1
    48    52    50   am
    49    56    57    1
    50    75    76    2
    51    57    58   ar
    52    50    51    2
    53    50    49    1
    54    34    35    1
    55    48    49    1
    56    76    77    1
    57    76    78    1
    58    38    37    1
    59    35    36    1
    60    27    26    1
    61    37    36    2
    62    37    39    1
    63    26    25    1
    64    26    28    1
    65    25    22    1
    66    20    19    2
    67    18    19    1
    68    18    17    1
    69    24    23    2
    70    23    22    1
    71    22    21    1
    72    17    10   am
    73    11    10    2
    74    10     9    1
    75     6     5    1
    76    12     9    1
    77    12    13    1
    78     9     8    1
    79     5     7    1
    80     5     2    1
    81     8     3   am
    82    13    14    1
    83     3     4    2
    84     3     2    1
    85     2     1    1
    86    14    15    1
    87    16    15    1
