@<TRIPOS>MOLECULE
tmp/4mlbC03.pdb
 93 86 0 0 0
SMALL
GASTEIGER

@<TRIPOS>ATOM
      1  N         43.1170  -62.9070   26.5060 N.3   103  LEU103     -0.1245
      2  CA        42.3900  -63.7880   27.4110 C.3   103  LEU103      0.1561
      3  C         43.3410  -64.7660   28.0950 C.2   103  LEU103      0.2260
      4  O         43.3270  -64.9080   29.3170 O.2   103  LEU103     -0.2867
      5  CB        41.3060  -64.5540   26.6500 C.3   103  LEU103      0.0270
      6  CG        40.5140  -65.5870   27.4530 C.3   103  LEU103      0.0019
      7  CD1       39.7470  -64.9180   28.5820 C.3   103  LEU103      0.0001
      8  CD2       39.5730  -66.3650   26.5450 C.3   103  LEU103      0.0001
      9  N         44.2940  -64.3290   32.0770 N.3   107  VAL107     -0.1245
     10  CA        43.9430  -65.4320   32.9630 C.3   107  VAL107      0.1561
     11  C         45.1790  -66.0200   33.6440 C.2   107  VAL107      0.2260
     12  O         45.1760  -66.2630   34.8520 O.2   107  VAL107     -0.2867
     13  CB        43.1890  -66.5410   32.1970 C.3   107  VAL107      0.0252
     14  CG1       43.2110  -67.8470   32.9730 C.3   107  VAL107      0.0019
     15  CG2       41.7600  -66.1040   31.9060 C.3   107  VAL107      0.0019
     16  N         46.5000  -63.8850   36.5180 N.3   110  THR110     -0.1203
     17  CA        45.6860  -64.0480   37.7170 C.3   110  THR110      0.1994
     18  C         45.9350  -65.4020   38.3800 C.2   110  THR110      0.2617
     19  O         46.0940  -65.4870   39.5960 O.2   110  THR110     -0.2717
     20  CB        44.1850  -63.9240   37.3970 C.3   110  THR110      0.1784
     21  OG1       43.9460  -62.7220   36.6540 O.3   110  THR110     -0.2211
     22  CG2       43.3680  -63.8980   38.6790 C.3   110  THR110      0.0376
     23  N         45.9720  -66.4540   37.5690 N.am  111  ILE111     -0.1979
     24  CA        46.1470  -67.8180   38.0610 C.3   111  ILE111      0.1595
     25  C         47.4750  -68.0260   38.7940 C.2   111  ILE111      0.2287
     26  O         47.5260  -68.7030   39.8210 O.2   111  ILE111     -0.2864
     27  CB        46.0130  -68.8450   36.9080 C.3   111  ILE111      0.0276
     28  CG1       44.5600  -68.9280   36.4390 C.3   111  ILE111      0.0022
     29  CG2       46.5000  -70.2180   37.3330 C.3   111  ILE111      0.0022
     30  CD1       43.5770  -69.2270   37.5450 C.3   111  ILE111      0.0001
     31  N         48.1160  -64.6060   41.9050 N.3   114  LEU114     -0.1245
     32  CA        47.1880  -64.5080   43.0330 C.3   114  LEU114      0.1561
     33  C         47.5350  -65.4180   44.2250 C.2   114  LEU114      0.2260
     34  O         47.5090  -64.9630   45.3680 O.2   114  LEU114     -0.2867
     35  CB        45.7420  -64.7300   42.5750 C.3   114  LEU114      0.0270
     36  CG        44.6390  -64.0090   43.3470 C.3   114  LEU114      0.0019
     37  CD1       44.8740  -62.5090   43.3240 C.3   114  LEU114      0.0001
     38  CD2       43.2770  -64.3440   42.7620 C.3   114  LEU114      0.0001
     39  N         45.6700  -56.7960   49.7980 N.3   136  GLU136     -0.1245
     40  CA        44.2710  -56.7440   49.3890 C.3   136  GLU136      0.1567
     41  C         44.1000  -55.9100   48.1220 C.2   136  GLU136      0.2260
     42  O         43.2580  -56.2130   47.2780 O.2   136  GLU136     -0.2867
     43  CB        43.4030  -56.1760   50.5140 C.3   136  GLU136      0.0388
     44  CG        41.9140  -56.1770   50.2070 C.3   136  GLU136      0.1160
     45  CD        41.0890  -55.5710   51.3230 C.2   136  GLU136      0.3649
     46  OE1       39.8440  -55.6420   51.2490 O.co2 136  GLU136     -0.2457
     47  OE2       41.6860  -55.0230   52.2740 O.co2 136  GLU136     -0.2457
     48  N         45.3340  -58.0410   45.0830 N.3   139  ARG139     -0.1231
     49  CA        44.4210  -59.1240   44.7330 C.3   139  ARG139      0.1694
     50  C         43.2490  -58.6430   43.8820 C.2   139  ARG139      0.2591
     51  O         42.7450  -59.3800   43.0340 O.2   139  ARG139     -0.2718
     52  CB        43.9080  -59.8230   45.9960 C.3   139  ARG139      0.0321
     53  CG        44.9830  -60.5790   46.7610 C.3   139  ARG139      0.0489
     54  CD        44.4330  -61.1940   48.0390 C.3   139  ARG139      0.2205
     55  NE        45.4610  -61.9280   48.7720 N.pl3 139  ARG139     -0.0865
     56  CZ        45.2710  -62.5000   49.9570 C.cat 139  ARG139      0.5346
     57  NH1       44.0880  -62.4220   50.5510 N.pl3 139  ARG139      0.1354
     58  NH2       46.2640  -63.1480   50.5490 N.pl3 139  ARG139      0.1354
     59  N         42.8220  -57.4060   44.1110 N.am  140  VAL140     -0.1980
     60  CA        41.7140  -56.8260   43.3600 C.3   140  VAL140      0.1595
     61  C         42.0880  -56.6150   41.8970 C.2   140  VAL140      0.2287
     62  O         41.3330  -56.9730   40.9940 O.2   140  VAL140     -0.2864
     63  CB        41.2630  -55.4820   43.9690 C.3   140  VAL140      0.0276
     64  CG1       40.2600  -54.7860   43.0570 C.3   140  VAL140      0.0022
     65  CG2       40.6710  -55.7000   45.3540 C.3   140  VAL140      0.0022
     66  N         43.0060  -59.8520   39.9490 N.3   143  ALA143     -0.1245
     67  CA        41.7830  -60.5260   39.5320 C.3   143  ALA143      0.1562
     68  C         41.2520  -59.9430   38.2250 C.2   143  ALA143      0.2260
     69  O         40.6620  -60.6550   37.4140 O.2   143  ALA143     -0.2867
     70  CB        40.7290  -60.4250   40.6230 C.3   143  ALA143      0.0290
     71  N         42.8370  -59.6620   33.2410 N.3   146  PHE146     -0.1241
     72  CA        42.3250  -59.8520   31.8900 C.3   146  PHE146      0.1605
     73  C         41.7580  -58.5570   31.3210 C.2   146  PHE146      0.2264
     74  O         41.9690  -58.2420   30.1490 O.2   146  PHE146     -0.2867
     75  CB        41.2530  -60.9430   31.8580 C.3   146  PHE146      0.0534
     76  CG        40.3900  -60.8990   30.6320 C.ar  146  PHE146     -0.0203
     77  CD1       39.0480  -60.5660   30.7250 C.ar  146  PHE146     -0.0042
     78  CD2       40.9250  -61.1660   29.3810 C.ar  146  PHE146     -0.0042
     79  CE1       38.2510  -60.5160   29.5940 C.ar  146  PHE146     -0.0003
     80  CE2       40.1350  -61.1160   28.2470 C.ar  146  PHE146     -0.0003
     81  CZ        38.7960  -60.7910   28.3540 C.ar  146  PHE146     -0.0000
     82  N         38.8380  -50.6770   43.7860 N.3   198  TYR198     -0.1241
     83  CA        37.5020  -50.9620   43.2750 C.3   198  TYR198      0.1605
     84  C         37.1100  -49.9560   42.1990 C.2   198  TYR198      0.2264
     85  O         36.5610  -50.3250   41.1620 O.2   198  TYR198     -0.2867
     86  CB        36.4700  -50.9190   44.4050 C.3   198  TYR198      0.0534
     87  CG        36.6430  -51.9850   45.4630 C.ar  198  TYR198     -0.0201
     88  CD1       37.2060  -53.2170   45.1560 C.ar  198  TYR198     -0.0009
     89  CD2       36.2380  -51.7590   46.7720 C.ar  198  TYR198     -0.0009
     90  CE1       37.3620  -54.1910   46.1240 C.ar  198  TYR198      0.0417
     91  CE2       36.3920  -52.7260   47.7460 C.ar  198  TYR198      0.0417
     92  CZ        36.9530  -53.9400   47.4160 C.ar  198  TYR198      0.1957
     93  OH        37.1060  -54.9040   48.3850 O.3   198  TYR198     -0.2866
@<TRIPOS>BOND
     1     1     2    1
     2     8     6    1
     3     5     2    1
     4     5     6    1
     5     2     3    1
     6     6     7    1
     7     3     4    2
     8    80    81   ar
     9    80    78   ar
    10    81    79   ar
    11    78    76   ar
    12    79    77   ar
    13    74    73    2
    14    76    77   ar
    15    76    75    1
    16    73    72    1
    17    75    72    1
    18    72    71    1
    19    15    13    1
    20     9    10    1
    21    13    10    1
    22    13    14    1
    23    10    11    1
    24    11    12    2
    25    28    27    1
    26    28    30    1
    27    16    17    1
    28    21    20    1
    29    27    29    1
    30    27    24    1
    31    20    17    1
    32    20    22    1
    33    69    68    2
    34    23    24    1
    35    23    18   am
    36    17    18    1
    37    24    25    1
    38    68    67    1
    39    18    19    2
    40    25    26    2
    41    67    66    1
    42    67    70    1
    43    62    61    2
    44    85    84    2
    45    61    60    1
    46    31    32    1
    47    84    83    1
    48    35    32    1
    49    35    36    1
    50    38    36    1
    51    32    33    1
    52    51    50    2
    53    64    63    1
    54    83    82    1
    55    83    86    1
    56    37    36    1
    57    60    63    1
    58    60    59    1
    59    50    59   am
    60    50    49    1
    61    63    65    1
    62    33    34    2
    63    86    87    1
    64    49    48    1
    65    49    52    1
    66    88    87   ar
    67    88    90   ar
    68    87    89   ar
    69    52    53    1
    70    90    92   ar
    71    53    54    1
    72    89    91   ar
    73    42    41    2
    74    92    91   ar
    75    92    93    1
    76    54    55    1
    77    41    40    1
    78    55    56    2
    79    40    39    1
    80    40    43    1
    81    56    58    1
    82    56    57    1
    83    44    43    1
    84    44    45    1
    85    46    45   ar
    86    45    47   ar
