@<TRIPOS>MOLECULE
tmp/4mlbC18.pdb
 115 110 0 0 0
SMALL
GASTEIGER

@<TRIPOS>ATOM
      1  N         42.7280  -60.5530   15.7230 N.3    96  VAL96      -0.1245
      2  CA        42.0500  -61.6990   16.3210 C.3    96  VAL96       0.1561
      3  C         42.9880  -62.5170   17.2110 C.2    96  VAL96       0.2260
      4  O         42.6110  -62.9110   18.3140 O.2    96  VAL96      -0.2867
      5  CB        41.4100  -62.6090   15.2520 C.3    96  VAL96       0.0252
      6  CG1       40.7150  -63.7900   15.9120 C.3    96  VAL96       0.0019
      7  CG2       40.4210  -61.8180   14.4120 C.3    96  VAL96       0.0019
      8  N         43.6040  -60.6130   20.5040 N.3    99  LEU99      -0.1231
      9  CA        42.4360  -60.6410   21.3780 C.3    99  LEU99       0.1693
     10  C         42.3280  -61.9710   22.1160 C.2    99  LEU99       0.2591
     11  O         41.9700  -62.0100   23.2930 O.2    99  LEU99      -0.2718
     12  CB        41.1590  -60.3570   20.5840 C.3    99  LEU99       0.0284
     13  CG        41.0040  -58.9090   20.1130 C.3    99  LEU99       0.0019
     14  CD1       39.7850  -58.7460   19.2200 C.3    99  LEU99       0.0001
     15  CD2       40.9260  -57.9720   21.3090 C.3    99  LEU99       0.0001
     16  N         42.6460  -63.0590   21.4220 N.am  100  ILE100     -0.1980
     17  CA        42.6630  -64.3780   22.0440 C.3   100  ILE100      0.1595
     18  C         43.8080  -64.4740   23.0480 C.2   100  ILE100      0.2287
     19  O         43.6470  -65.0240   24.1380 O.2   100  ILE100     -0.2864
     20  CB        42.7960  -65.5000   20.9970 C.3   100  ILE100      0.0276
     21  CG1       41.6200  -65.4600   20.0210 C.3   100  ILE100      0.0022
     22  CG2       42.8610  -66.8540   21.6790 C.3   100  ILE100      0.0022
     23  CD1       41.7430  -66.4340   18.8680 C.3   100  ILE100      0.0001
     24  N         45.0340  -62.0540   24.7300 N.3   102  SER102     -0.1202
     25  CA        44.7270  -61.2120   25.8820 C.3   102  SER102      0.2020
     26  C         44.0000  -62.0180   26.9500 C.2   102  SER102      0.2618
     27  O         44.2370  -61.8410   28.1470 O.2   102  SER102     -0.2717
     28  CB        43.8920  -59.9940   25.4730 C.3   102  SER102      0.2103
     29  OG        42.5500  -60.3540   25.1880 O.3   102  SER102     -0.2182
     30  N         43.1170  -62.9070   26.5060 N.am  103  LEU103     -0.1979
     31  CA        42.3900  -63.7880   27.4110 C.3   103  LEU103      0.1596
     32  C         43.3410  -64.7660   28.0950 C.2   103  LEU103      0.2287
     33  O         43.3270  -64.9080   29.3170 O.2   103  LEU103     -0.2864
     34  CB        41.3060  -64.5540   26.6500 C.3   103  LEU103      0.0297
     35  CG        40.5140  -65.5870   27.4530 C.3   103  LEU103      0.0022
     36  CD1       39.7470  -64.9180   28.5820 C.3   103  LEU103      0.0001
     37  CD2       39.5730  -66.3650   26.5450 C.3   103  LEU103      0.0001
     38  N         42.8370  -59.6620   33.2410 N.3   146  PHE146     -0.1241
     39  CA        42.3250  -59.8520   31.8900 C.3   146  PHE146      0.1605
     40  C         41.7580  -58.5570   31.3210 C.2   146  PHE146      0.2264
     41  O         41.9690  -58.2420   30.1490 O.2   146  PHE146     -0.2867
     42  CB        41.2530  -60.9430   31.8580 C.3   146  PHE146      0.0534
     43  CG        40.3900  -60.8990   30.6320 C.ar  146  PHE146     -0.0203
     44  CD1       39.0480  -60.5660   30.7250 C.ar  146  PHE146     -0.0042
     45  CD2       40.9250  -61.1660   29.3810 C.ar  146  PHE146     -0.0042
     46  CE1       38.2510  -60.5160   29.5940 C.ar  146  PHE146     -0.0003
     47  CE2       40.1350  -61.1160   28.2470 C.ar  146  PHE146     -0.0003
     48  CZ        38.7960  -60.7910   28.3540 C.ar  146  PHE146     -0.0000
     49  N         43.1590  -56.8180   28.0710 N.3   150  PHE150     -0.1241
     50  CA        42.1970  -56.6140   26.9940 C.3   150  PHE150      0.1605
     51  C         42.1410  -55.1460   26.5720 C.2   150  PHE150      0.2264
     52  O         42.0870  -54.8370   25.3820 O.2   150  PHE150     -0.2867
     53  CB        40.8060  -57.0970   27.4140 C.3   150  PHE150      0.0534
     54  CG        39.7390  -56.8440   26.3860 C.ar  150  PHE150     -0.0203
     55  CD1       39.5510  -57.7260   25.3330 C.ar  150  PHE150     -0.0042
     56  CD2       38.9200  -55.7270   26.4730 C.ar  150  PHE150     -0.0042
     57  CE1       38.5710  -57.4970   24.3840 C.ar  150  PHE150     -0.0003
     58  CE2       37.9380  -55.4940   25.5270 C.ar  150  PHE150     -0.0003
     59  CZ        37.7640  -56.3800   24.4810 C.ar  150  PHE150     -0.0000
     60  N         33.4330  -55.6050   18.4900 N.3   216  PHE216     -0.1241
     61  CA        32.5890  -56.7830   18.3060 C.3   216  PHE216      0.1605
     62  C         31.1520  -56.4770   17.8810 C.2   216  PHE216      0.2264
     63  O         30.5400  -57.2510   17.1450 O.2   216  PHE216     -0.2867
     64  CB        32.5810  -57.6190   19.5890 C.3   216  PHE216      0.0534
     65  CG        33.9490  -57.9860   20.0790 C.ar  216  PHE216     -0.0203
     66  CD1       34.9250  -58.4150   19.1930 C.ar  216  PHE216     -0.0042
     67  CD2       34.2610  -57.8970   21.4270 C.ar  216  PHE216     -0.0042
     68  CE1       36.1890  -58.7540   19.6430 C.ar  216  PHE216     -0.0003
     69  CE2       35.5220  -58.2330   21.8830 C.ar  216  PHE216     -0.0003
     70  CZ        36.4870  -58.6610   20.9900 C.ar  216  PHE216     -0.0000
     71  N         31.5960  -52.6510   15.1860 N.3   219  ARG219     -0.1245
     72  CA        32.5550  -53.1710   14.2120 C.3   219  ARG219      0.1563
     73  C         32.8840  -52.1570   13.1150 C.2   219  ARG219      0.2260
     74  O         32.9520  -52.5030   11.9330 O.2   219  ARG219     -0.2867
     75  CB        32.0380  -54.4880   13.6120 C.3   219  ARG219      0.0307
     76  CG        31.6290  -55.5210   14.6650 C.3   219  ARG219      0.0489
     77  CD        30.7840  -56.6580   14.0840 C.3   219  ARG219      0.2205
     78  NE        31.5790  -57.6480   13.3630 N.pl3 219  ARG219     -0.0865
     79  CZ        31.4550  -57.9040   12.0650 C.cat 219  ARG219      0.5346
     80  NH1       32.2230  -58.8190   11.4930 N.pl3 219  ARG219      0.1354
     81  NH2       30.5630  -57.2470   11.3380 N.pl3 219  ARG219      0.1354
     82  N         37.0880  -58.1670   12.5430 N.3   225  ILE225     -0.1231
     83  CA        37.2910  -59.0470   13.6870 C.3   225  ILE225      0.1692
     84  C         36.1970  -60.1070   13.7690 C.2   225  ILE225      0.2593
     85  O         35.0590  -59.8140   14.1360 O.2   225  ILE225     -0.2718
     86  CB        37.3440  -58.2500   15.0040 C.3   225  ILE225      0.0266
     87  CG1       38.4670  -57.2110   14.9480 C.3   225  ILE225      0.0019
     88  CG2       37.5320  -59.1860   16.1880 C.3   225  ILE225      0.0020
     89  CD1       38.5830  -56.3620   16.1960 C.3   225  ILE225      0.0001
     90  N         36.5520  -61.3400   13.4190 N.am  226  THR226     -0.1939
     91  CA        35.6080  -62.4520   13.4440 C.3   226  THR226      0.2028
     92  C         36.3280  -63.7910   13.5740 C.2   226  THR226      0.2642
     93  O         37.4640  -63.9410   13.1250 O.2   226  THR226     -0.2714
     94  CB        34.7220  -62.4700   12.1790 C.3   226  THR226      0.1808
     95  OG1       33.8790  -63.6280   12.1970 O.3   226  THR226     -0.2208
     96  CG2       35.5790  -62.4910   10.9230 C.3   226  THR226      0.0379
     97  N         35.6610  -64.7600   14.1940 N.am  227  LEU227     -0.1963
     98  CA        36.2130  -66.1030   14.3400 C.3   227  LEU227      0.1728
     99  C         35.8480  -66.9800   13.1500 C.2   227  LEU227      0.2616
    100  O         36.2070  -68.1570   13.1000 O.2   227  LEU227     -0.2715
    101  CB        35.7180  -66.7530   15.6310 C.3   227  LEU227      0.0311
    102  CG        36.2880  -66.1670   16.9200 C.3   227  LEU227      0.0022
    103  CD1       35.6750  -66.8330   18.1400 C.3   227  LEU227      0.0001
    104  CD2       37.8010  -66.3020   16.9340 C.3   227  LEU227      0.0001
    105  N         35.1280  -66.4010   12.1970 N.am  228  ARG228     -0.1977
    106  CA        34.7260  -67.1280   11.0020 C.3   228  ARG228      0.1597
    107  C         35.9430  -67.4280   10.1360 C.2   228  ARG228      0.2287
    108  O         36.7000  -66.5220    9.7830 O.2   228  ARG228     -0.2864
    109  CB        33.6860  -66.3300   10.2130 C.3   228  ARG228      0.0334
    110  CG        33.1050  -67.0720    9.0220 C.3   228  ARG228      0.0492
    111  CD        33.5380  -66.4480    7.7040 C.3   228  ARG228      0.2205
    112  NE        33.0510  -65.0780    7.5540 N.pl3 228  ARG228     -0.0865
    113  CZ        33.8060  -63.9940    7.7030 C.cat 228  ARG228      0.5346
    114  NH1       35.0920  -64.1150    8.0050 N.pl3 228  ARG228      0.1354
    115  NH2       33.2760  -62.7880    7.5480 N.pl3 228  ARG228      0.1354
@<TRIPOS>BOND
     1   115   113    1
     2   112   113    2
     3   112   111    1
     4   113   114    1
     5   111   110    1
     6   110   109    1
     7   108   107    2
     8   107   106    1
     9   109   106    1
    10    96    94    1
    11   106   105    1
    12    81    79    1
    13    80    79    1
    14    74    73    2
    15    79    78    2
    16    94    95    1
    17    94    91    1
    18   105    99   am
    19    82    83    1
    20   100    99    2
    21    73    72    1
    22    93    92    2
    23    99    98    1
    24    78    77    1
    25    90    91    1
    26    90    84   am
    27    91    92    1
    28    92    97   am
    29    75    72    1
    30    75    76    1
    31    83    84    1
    32    83    86    1
    33    84    85    2
    34    77    76    1
    35    97    98    1
    36    72    71    1
    37    98   101    1
    38     7     5    1
    39    87    86    1
    40    87    89    1
    41    86    88    1
    42     5     6    1
    43     5     2    1
    44   101   102    1
    45     1     2    1
    46     2     3    1
    47   102   104    1
    48   102   103    1
    49    63    62    2
    50     3     4    2
    51    62    61    1
    52    61    60    1
    53    61    64    1
    54    23    21    1
    55    66    68   ar
    56    66    65   ar
    57    14    13    1
    58    64    65    1
    59    68    70   ar
    60    21    20    1
    61    65    67   ar
    62    13    12    1
    63    13    15    1
    64     8     9    1
    65    12     9    1
    66    70    69   ar
    67    20    22    1
    68    20    17    1
    69     9    10    1
    70    16    17    1
    71    16    10   am
    72    67    69   ar
    73    17    18    1
    74    10    11    2
    75    18    19    2
    76    57    59   ar
    77    57    55   ar
    78    59    58   ar
    79    24    25    1
    80    29    28    1
    81    55    54   ar
    82    52    51    2
    83    28    25    1
    84    58    56   ar
    85    25    26    1
    86    54    56   ar
    87    54    53    1
    88    30    26   am
    89    30    31    1
    90    37    35    1
    91    51    50    1
    92    34    31    1
    93    34    35    1
    94    26    27    2
    95    50    53    1
    96    50    49    1
    97    31    32    1
    98    35    36    1
    99    32    33    2
   100    47    48   ar
   101    47    45   ar
   102    48    46   ar
   103    45    43   ar
   104    46    44   ar
   105    41    40    2
   106    43    44   ar
   107    43    42    1
   108    40    39    1
   109    42    39    1
   110    39    38    1
