@<TRIPOS>MOLECULE
tmp/4mlbB09.pdb
 91 86 0 0 0
SMALL
GASTEIGER

@<TRIPOS>ATOM
      1  N         26.3450  -14.7120   35.8960 N.3    27  ILE27      -0.1245
      2  CA        27.7660  -14.7350   35.5780 C.3    27  ILE27       0.1561
      3  C         28.1760  -16.0760   34.9780 C.2    27  ILE27       0.2260
      4  O         28.8670  -16.1240   33.9610 O.2    27  ILE27      -0.2867
      5  CB        28.6170  -14.4520   36.8260 C.3    27  ILE27       0.0252
      6  CG1       28.3510  -13.0310   37.3300 C.3    27  ILE27       0.0019
      7  CG2       30.0950  -14.6500   36.5230 C.3    27  ILE27       0.0019
      8  CD1       29.1030  -12.6780   38.5880 C.3    27  ILE27       0.0001
      9  N         29.3920  -16.8020   30.9630 N.3    31  VAL31      -0.1245
     10  CA        30.5890  -17.5020   30.4980 C.3    31  VAL31       0.1561
     11  C         30.2320  -18.6640   29.5700 C.2    31  VAL31       0.2260
     12  O         30.9050  -18.8930   28.5650 O.2    31  VAL31      -0.2867
     13  CB        31.4470  -18.0020   31.6770 C.3    31  VAL31       0.0252
     14  CG1       32.7120  -18.6910   31.1720 C.3    31  VAL31       0.0019
     15  CG2       31.8110  -16.8460   32.5930 C.3    31  VAL31       0.0019
     16  N         29.0590  -21.5180   44.3790 N.3   166  ARG166     -0.1245
     17  CA        29.8780  -22.6340   43.9030 C.3   166  ARG166      0.1563
     18  C         29.3310  -23.2580   42.6250 C.2   166  ARG166      0.2260
     19  O         30.0800  -23.8100   41.8230 O.2   166  ARG166     -0.2867
     20  CB        30.0770  -23.6920   44.9930 C.3   166  ARG166      0.0307
     21  CG        31.0380  -23.2400   46.0830 C.3   166  ARG166      0.0489
     22  CD        31.7090  -24.3950   46.7980 C.3   166  ARG166      0.2205
     23  NE        30.7980  -25.1220   47.6740 N.pl3 166  ARG166     -0.0865
     24  CZ        31.1700  -26.1130   48.4780 C.cat 166  ARG166      0.5346
     25  NH1       32.4380  -26.4940   48.5180 N.pl3 166  ARG166      0.1354
     26  NH2       30.2750  -26.7220   49.2430 N.pl3 166  ARG166      0.1354
     27  N         28.1240  -21.3780   40.3700 N.3   168  MET168     -0.1230
     28  CA        28.7370  -20.4320   39.4440 C.3   168  MET168      0.1702
     29  C         30.1820  -20.8080   39.1350 C.2   168  MET168      0.2592
     30  O         30.5940  -20.8260   37.9750 O.2   168  MET168     -0.2718
     31  CB        28.7020  -19.0160   40.0240 C.3   168  MET168      0.0401
     32  CG        29.5550  -18.0230   39.2470 C.3   168  MET168      0.0596
     33  SD        29.8550  -16.4660   40.1080 S.3   168  MET168     -0.1393
     34  CE        30.8190  -17.0280   41.5090 C.3   168  MET168      0.0692
     35  N         30.9470  -21.0980   40.1830 N.am  169  LEU169     -0.1980
     36  CA        32.3580  -21.4350   40.0340 C.3   169  LEU169      0.1596
     37  C         32.5520  -22.6640   39.1510 C.2   169  LEU169      0.2287
     38  O         33.4380  -22.6860   38.2990 O.2   169  LEU169     -0.2864
     39  CB        33.0080  -21.6510   41.4030 C.3   169  LEU169      0.0297
     40  CG        33.0990  -20.4240   42.3150 C.3   169  LEU169      0.0022
     41  CD1       33.6600  -20.8010   43.6760 C.3   169  LEU169      0.0001
     42  CD2       33.9400  -19.3330   41.6730 C.3   169  LEU169      0.0001
     43  N         31.8610  -21.5700   35.4700 N.3   172  VAL172     -0.1231
     44  CA        32.9580  -20.7610   34.9510 C.3   172  VAL172      0.1692
     45  C         34.1990  -21.6220   34.7400 C.2   172  VAL172      0.2591
     46  O         34.9170  -21.4590   33.7550 O.2   172  VAL172     -0.2718
     47  CB        33.2900  -19.5820   35.8920 C.3   172  VAL172      0.0266
     48  CG1       34.4760  -18.7870   35.3630 C.3   172  VAL172      0.0020
     49  CG2       32.0770  -18.6820   36.0560 C.3   172  VAL172      0.0020
     50  N         34.4390  -22.5450   35.6680 N.am  173  LEU173     -0.1980
     51  CA        35.5440  -23.4900   35.5410 C.3   173  LEU173      0.1596
     52  C         35.4260  -24.3050   34.2590 C.2   173  LEU173      0.2287
     53  O         36.3870  -24.4300   33.5050 O.2   173  LEU173     -0.2864
     54  CB        35.5940  -24.4290   36.7490 C.3   173  LEU173      0.0297
     55  CG        36.5860  -25.5930   36.6780 C.3   173  LEU173      0.0022
     56  CD1       38.0100  -25.0890   36.4870 C.3   173  LEU173      0.0001
     57  CD2       36.4870  -26.4580   37.9260 C.3   173  LEU173      0.0001
     58  N         36.2100  -31.2690   40.7260 N.3   210  PHE210     -0.1241
     59  CA        35.8940  -30.2850   41.7550 C.3   210  PHE210      0.1605
     60  C         34.5220  -30.5190   42.3820 C.2   210  PHE210      0.2264
     61  O         34.3300  -30.2750   43.5730 O.2   210  PHE210     -0.2867
     62  CB        36.0010  -28.8650   41.1890 C.3   210  PHE210      0.0534
     63  CG        37.4060  -28.3470   41.1280 C.ar  210  PHE210     -0.0203
     64  CD1       37.9000  -27.5380   42.1390 C.ar  210  PHE210     -0.0042
     65  CD2       38.2390  -28.6800   40.0700 C.ar  210  PHE210     -0.0042
     66  CE1       39.1960  -27.0630   42.0950 C.ar  210  PHE210     -0.0003
     67  CE2       39.5370  -28.2070   40.0200 C.ar  210  PHE210     -0.0003
     68  CZ        40.0140  -27.3990   41.0340 C.ar  210  PHE210     -0.0000
     69  N         33.9340  -31.4720   46.3290 N.3   214  TRP214     -0.1241
     70  CA        33.0050  -30.7830   47.2180 C.3   214  TRP214      0.1605
     71  C         31.9680  -31.7370   47.8090 C.2   214  TRP214      0.2264
     72  O         31.7070  -31.7180   49.0110 O.2   214  TRP214     -0.2867
     73  CB        32.2840  -29.6670   46.4630 C.3   214  TRP214      0.0550
     74  CG        33.1880  -28.5980   45.9500 C.ar  214  TRP214      0.0003
     75  CD1       34.4150  -28.2580   46.4400 C.ar  214  TRP214      0.0946
     76  CD2       32.9440  -27.7250   44.8410 C.ar  214  TRP214      0.0152
     77  NE1       34.9480  -27.2260   45.7080 N.ar  214  TRP214     -0.2442
     78  CE2       34.0590  -26.8800   44.7140 C.ar  214  TRP214      0.0810
     79  CE3       31.8810  -27.5730   43.9400 C.ar  214  TRP214      0.0012
     80  CZ2       34.1540  -25.8950   43.7270 C.ar  214  TRP214      0.0191
     81  CZ3       31.9740  -26.5950   42.9590 C.ar  214  TRP214      0.0001
     82  CH2       33.1010  -25.7700   42.8600 C.ar  214  TRP214      0.0015
     83  N         35.3240  -32.9390   50.6910 N.3   218  LYS218     -0.1245
     84  CA        35.2320  -31.7850   51.5800 C.3   218  LYS218      0.1561
     85  C         33.9440  -31.8410   52.3980 C.2   218  LYS218      0.2260
     86  O         33.9530  -31.5680   53.6020 O.2   218  LYS218     -0.2867
     87  CB        35.3120  -30.4840   50.7770 C.3   218  LYS218      0.0271
     88  CG        35.8600  -29.2910   51.5490 C.3   218  LYS218      0.0035
     89  CD        36.5320  -28.3010   50.6040 C.3   218  LYS218      0.0206
     90  CE        35.9360  -26.9060   50.7040 C.3   218  LYS218      0.1093
     91  NZ        36.7020  -26.0180   51.6190 N.3   218  LYS218     -0.1314
@<TRIPOS>BOND
     1    12    11    2
     2    11    10    1
     3    10     9    1
     4    10    13    1
     5    14    13    1
     6    13    15    1
     7    53    52    2
     8    46    45    2
     9     4     3    2
    10    52    51    1
    11    45    44    1
    12    45    50   am
    13    44    43    1
    14    44    47    1
    15     3     2    1
    16    48    47    1
    17    51    50    1
    18    51    54    1
    19     2     1    1
    20     2     5    1
    21    47    49    1
    22    56    55    1
    23     7     5    1
    24    55    54    1
    25    55    57    1
    26     5     6    1
    27     6     8    1
    28    30    29    2
    29    38    37    2
    30    29    28    1
    31    29    35   am
    32    37    36    1
    33    32    31    1
    34    32    33    1
    35    28    31    1
    36    28    27    1
    37    67    65   ar
    38    67    68   ar
    39    36    35    1
    40    36    39    1
    41    65    63   ar
    42    33    34    1
    43    58    59    1
    44    68    66   ar
    45    63    62    1
    46    63    64   ar
    47    62    59    1
    48    39    40    1
    49    42    40    1
    50    59    60    1
    51    19    18    2
    52    66    64   ar
    53    40    41    1
    54    60    61    2
    55    18    17    1
    56    82    81   ar
    57    82    80   ar
    58    81    79   ar
    59    80    78   ar
    60    17    16    1
    61    17    20    1
    62    79    76   ar
    63    78    76   ar
    64    78    77   ar
    65    76    74   ar
    66    20    21    1
    67    77    75   ar
    68    74    75   ar
    69    74    73    1
    70    21    22    1
    71    69    70    1
    72    73    70    1
    73    22    23    1
    74    70    71    1
    75    23    24    2
    76    71    72    2
    77    24    25    1
    78    24    26    1
    79    89    90    1
    80    89    88    1
    81    83    84    1
    82    90    91    1
    83    87    88    1
    84    87    84    1
    85    84    85    1
    86    85    86    2
