@<TRIPOS>MOLECULE
tmp/4mlbD03.pdb
 76 70 0 0 0
SMALL
GASTEIGER

@<TRIPOS>ATOM
      1  N         88.8080  -39.6840   34.7780 N.3    26  MET26      -0.1245
      2  CA        88.3870  -40.6040   33.7250 C.3    26  MET26       0.1570
      3  C         86.9590  -40.2910   33.2830 C.2    26  MET26       0.2261
      4  O         86.6340  -40.3750   32.0990 O.2    26  MET26      -0.2867
      5  CB        88.4700  -42.0560   34.2020 C.3    26  MET26       0.0387
      6  CG        89.8690  -42.5360   34.5490 C.3    26  MET26       0.0595
      7  SD        89.8900  -44.2920   34.9630 S.3    26  MET26      -0.1393
      8  CE        91.5800  -44.4920   35.5210 C.3    26  MET26       0.0692
      9  N         85.6780  -38.9120   29.7300 N.3    30  SER30      -0.1217
     10  CA        84.6840  -39.7210   29.0350 C.3    30  SER30       0.1889
     11  C         83.6040  -38.8530   28.3960 C.2    30  SER30       0.2288
     12  O         83.2510  -39.0480   27.2330 O.2    30  SER30      -0.2866
     13  CB        84.0440  -40.7220   29.9930 C.3    30  SER30       0.2089
     14  OG        84.9660  -41.7250   30.3550 O.3    30  SER30      -0.2183
     15  N         88.6440  -43.8890   22.8130 N.3   286  LEU286     -0.1231
     16  CA        87.8070  -44.1640   23.9720 C.3   286  LEU286      0.1693
     17  C         88.5750  -45.0200   24.9700 C.2   286  LEU286      0.2592
     18  O         88.4210  -44.8720   26.1820 O.2   286  LEU286     -0.2718
     19  CB        86.5290  -44.8880   23.5470 C.3   286  LEU286      0.0284
     20  CG        85.3660  -44.0260   23.0540 C.3   286  LEU286      0.0019
     21  CD1       84.3680  -44.8710   22.2790 C.3   286  LEU286      0.0001
     22  CD2       84.6860  -43.3500   24.2330 C.3   286  LEU286      0.0001
     23  N         89.4070  -45.9150   24.4460 N.am  287  GLY287     -0.1957
     24  CA        90.1590  -46.8410   25.2720 C.3   287  GLY287      0.1869
     25  C         91.2960  -46.2070   26.0500 C.2   287  GLY287      0.2309
     26  O         91.6900  -46.7230   27.0940 O.2   287  GLY287     -0.2863
     27  N         91.1250  -43.3540   27.4480 N.3   289  VAL289     -0.1231
     28  CA        90.5280  -42.4930   28.4710 C.3   289  VAL289      0.1678
     29  C         90.9600  -42.8350   29.9070 C.2   289  VAL289      0.2434
     30  O         91.3580  -41.9370   30.6500 O.2   289  VAL289     -0.2733
     31  CB        88.9800  -42.4220   28.3490 C.3   289  VAL289      0.0265
     32  CG1       88.3660  -41.8120   29.5980 C.3   289  VAL289      0.0020
     33  CG2       88.5800  -41.6370   27.1090 C.3   289  VAL289      0.0020
     34  N         90.8950  -44.1230   30.3040 N.am  290  PRO290     -0.2729
     35  CA        91.4000  -44.4360   31.6480 C.3   290  PRO290      0.1401
     36  C         92.8850  -44.1140   31.8030 C.2   290  PRO290      0.2269
     37  O         93.3100  -43.6900   32.8780 O.2   290  PRO290     -0.2865
     38  CB        91.1800  -45.9480   31.7600 C.3   290  PRO290      0.0296
     39  CG        90.0610  -46.2340   30.8260 C.3   290  PRO290      0.0237
     40  CD        90.2670  -45.3000   29.6740 C.3   290  PRO290      0.0939
     41  N         97.0750  -50.5000   37.8390 N.3   324  ILE324     -0.1245
     42  CA        95.6360  -50.3140   37.6710 C.3   324  ILE324      0.1561
     43  C         95.2680  -50.0500   36.2170 C.2   324  ILE324      0.2260
     44  O         94.3220  -50.6390   35.6950 O.2   324  ILE324     -0.2867
     45  CB        95.1000  -49.1610   38.5340 C.3   324  ILE324      0.0252
     46  CG1       95.3220  -49.4540   40.0150 C.3   324  ILE324      0.0019
     47  CG2       93.6180  -48.9450   38.2690 C.3   324  ILE324      0.0019
     48  CD1       94.5650  -48.5160   40.9170 C.3   324  ILE324      0.0001
     49  N         95.3160  -53.1820   34.3280 N.3   327  MET327     -0.1230
     50  CA        94.1600  -54.0070   34.6620 C.3   327  MET327      0.1702
     51  C         92.9030  -53.5130   33.9490 C.2   327  MET327      0.2592
     52  O         92.0920  -54.3110   33.4780 O.2   327  MET327     -0.2718
     53  CB        93.9320  -54.0230   36.1750 C.3   327  MET327      0.0401
     54  CG        95.0570  -54.6580   36.9770 C.3   327  MET327      0.0596
     55  SD        95.1470  -56.4480   36.8060 S.3   327  MET327     -0.1393
     56  CE        93.7170  -56.9460   37.7620 C.3   327  MET327      0.0692
     57  N         92.7490  -52.1950   33.8740 N.am  328  ILE328     -0.1980
     58  CA        91.6030  -51.5970   33.1980 C.3   328  ILE328      0.1595
     59  C         91.6670  -51.8300   31.6910 C.2   328  ILE328      0.2287
     60  O         90.6890  -52.2630   31.0810 O.2   328  ILE328     -0.2864
     61  CB        91.5040  -50.0830   33.4770 C.3   328  ILE328      0.0276
     62  CG1       91.2890  -49.8270   34.9700 C.3   328  ILE328      0.0022
     63  CG2       90.3750  -49.4650   32.6690 C.3   328  ILE328      0.0022
     64  CD1       91.2260  -48.3600   35.3340 C.3   328  ILE328      0.0001
     65  N         90.7490  -55.1880   30.4000 N.3   331  ALA331     -0.1231
     66  CA        89.3110  -55.3910   30.2750 C.3   331  ALA331      0.1694
     67  C         88.7670  -54.6570   29.0530 C.2   331  ALA331      0.2591
     68  O         87.8680  -55.1490   28.3710 O.2   331  ALA331     -0.2718
     69  CB        88.5960  -54.9310   31.5370 C.3   331  ALA331      0.0304
     70  N         89.3190  -53.4780   28.7840 N.am  332  VAL332     -0.1980
     71  CA        88.9160  -52.6830   27.6290 C.3   332  VAL332      0.1595
     72  C         89.2520  -53.3960   26.3200 C.2   332  VAL332      0.2287
     73  O         88.4100  -53.4970   25.4260 O.2   332  VAL332     -0.2864
     74  CB        89.5830  -51.2940   27.6410 C.3   332  VAL332      0.0276
     75  CG1       89.2980  -50.5520   26.3430 C.3   332  VAL332      0.0022
     76  CG2       89.1050  -50.4890   28.8390 C.3   332  VAL332      0.0022
@<TRIPOS>BOND
     1    21    20    1
     2    15    16    1
     3    20    19    1
     4    20    22    1
     5    19    16    1
     6    16    17    1
     7    23    17   am
     8    23    24    1
     9    17    18    2
    10    24    25    1
    11    73    72    2
    12    25    26    2
    13    72    71    1
    14    75    74    1
    15    33    31    1
    16    12    11    2
    17    27    28    1
    18    71    74    1
    19    71    70    1
    20    74    76    1
    21    31    28    1
    22    31    32    1
    23    68    67    2
    24    11    10    1
    25    28    29    1
    26    70    67   am
    27    10     9    1
    28    10    13    1
    29    67    66    1
    30    40    34    1
    31    40    39    1
    32    29    34   am
    33    29    30    2
    34    13    14    1
    35    66    65    1
    36    66    69    1
    37    34    35    1
    38    39    38    1
    39    60    59    2
    40    35    38    1
    41    35    36    1
    42    59    58    1
    43    36    37    2
    44     4     3    2
    45    63    61    1
    46    58    61    1
    47    58    57    1
    48     3     2    1
    49    61    62    1
    50    52    51    2
    51     2     5    1
    52     2     1    1
    53    57    51   am
    54    51    50    1
    55     5     6    1
    56    49    50    1
    57     6     7    1
    58    50    53    1
    59     7     8    1
    60    62    64    1
    61    44    43    2
    62    53    54    1
    63    43    42    1
    64    55    54    1
    65    55    56    1
    66    42    41    1
    67    42    45    1
    68    47    45    1
    69    45    46    1
    70    46    48    1
