@<TRIPOS>MOLECULE
tmp/4mlbA07.pdb
 94 91 0 0 0
SMALL
GASTEIGER

@<TRIPOS>ATOM
      1  N         38.5430   -8.0800   34.0430 N.3    33  LEU33      -0.1245
      2  CA        37.7840   -9.0640   34.7990 C.3    33  LEU33       0.1561
      3  C         38.6780   -9.8640   35.7400 C.2    33  LEU33       0.2260
      4  O         38.2680  -10.1880   36.8520 O.2    33  LEU33      -0.2867
      5  CB        37.0240   -9.9980   33.8590 C.3    33  LEU33       0.0270
      6  CG        35.8000   -9.3930   33.1790 C.3    33  LEU33       0.0019
      7  CD1       35.1500  -10.3830   32.2220 C.3    33  LEU33       0.0001
      8  CD2       34.8000   -8.9180   34.2210 C.3    33  LEU33       0.0001
      9  N         38.3370   -9.8310   39.7390 N.3    37  ALA37      -0.1245
     10  CA        38.1270  -11.0930   40.4350 C.3    37  ALA37       0.1562
     11  C         39.2050  -11.3550   41.4830 C.2    37  ALA37       0.2260
     12  O         38.9090  -11.8470   42.5690 O.2    37  ALA37      -0.2867
     13  CB        38.0610  -12.2370   39.4440 C.3    37  ALA37       0.0290
     14  N         38.7270   -9.5080   44.6930 N.3    40  ILE40      -0.1231
     15  CA        37.6800  -10.1170   45.5040 C.3    40  ILE40       0.1692
     16  C         38.2040  -11.3260   46.2800 C.2    40  ILE40       0.2592
     17  O         37.8870  -11.5030   47.4580 O.2    40  ILE40      -0.2718
     18  CB        36.4770  -10.5340   44.6340 C.3    40  ILE40       0.0266
     19  CG1       35.8300   -9.3000   44.0030 C.3    40  ILE40       0.0019
     20  CG2       35.4540  -11.3090   45.4520 C.3    40  ILE40       0.0020
     21  CD1       34.6250   -9.6140   43.1440 C.3    40  ILE40       0.0001
     22  N         39.0120  -12.1510   45.6190 N.am   41  TRP41      -0.1976
     23  CA        39.5750  -13.3410   46.2510 C.3    41  TRP41       0.1640
     24  C         40.5360  -12.9770   47.3800 C.2    41  TRP41       0.2290
     25  O         40.5290  -13.6090   48.4360 O.2    41  TRP41      -0.2864
     26  CB        40.2960  -14.2230   45.2270 C.3    41  TRP41       0.0576
     27  CG        39.4040  -14.8580   44.1990 C.ar   41  TRP41       0.0006
     28  CD1       39.4910  -14.7210   42.8450 C.ar   41  TRP41       0.0946
     29  CD2       38.2970  -15.7370   44.4420 C.ar   41  TRP41       0.0152
     30  NE1       38.5070  -15.4540   42.2290 N.ar   41  TRP41      -0.2442
     31  CE2       37.7610  -16.0870   43.1860 C.ar   41  TRP41       0.0810
     32  CE3       37.7070  -16.2590   45.5970 C.ar   41  TRP41       0.0012
     33  CZ2       36.6660  -16.9380   43.0540 C.ar   41  TRP41       0.0191
     34  CZ3       36.6190  -17.1020   45.4630 C.ar   41  TRP41       0.0001
     35  CH2       36.1090  -17.4330   44.2010 C.ar   41  TRP41       0.0015
     36  N         40.4950  -10.2540   49.1370 N.3    43  SER43      -0.1202
     37  CA        39.7720   -9.5710   50.2060 C.3    43  SER43       0.2020
     38  C         39.1160  -10.5490   51.1810 C.2    43  SER43       0.2619
     39  O         38.5650  -10.1370   52.2050 O.2    43  SER43      -0.2717
     40  CB        38.7120   -8.6280   49.6300 C.3    43  SER43       0.2103
     41  OG        37.5840   -9.3540   49.1680 O.3    43  SER43      -0.2182
     42  N         39.1710  -11.8400   50.8720 N.am   44  GLY44      -0.1956
     43  CA        38.6180  -12.8430   51.7650 C.3    44  GLY44       0.1869
     44  C         39.7030  -13.5160   52.5860 C.2    44  GLY44       0.2309
     45  O         39.4330  -14.4420   53.3520 O.2    44  GLY44      -0.2863
     46  N         42.2260  -16.2950   35.8610 N.3   178  ILE178     -0.1231
     47  CA        40.9190  -16.2610   36.5070 C.3   178  ILE178      0.1692
     48  C         40.5620  -17.6390   37.0590 C.2   178  ILE178      0.2591
     49  O         40.0540  -17.7640   38.1730 O.2   178  ILE178     -0.2718
     50  CB        39.8230  -15.7860   35.5270 C.3   178  ILE178      0.0266
     51  CG1       40.0030  -14.2990   35.2110 C.3   178  ILE178      0.0019
     52  CG2       38.4330  -16.0340   36.0980 C.3   178  ILE178      0.0020
     53  CD1       39.0280  -13.7670   34.1820 C.3   178  ILE178      0.0001
     54  N         40.8450  -18.6740   36.2760 N.am  179  VAL179     -0.1980
     55  CA        40.5390  -20.0420   36.6740 C.3   179  VAL179      0.1595
     56  C         41.4510  -20.5130   37.8070 C.2   179  VAL179      0.2287
     57  O         40.9860  -21.0760   38.7990 O.2   179  VAL179     -0.2864
     58  CB        40.6510  -21.0070   35.4750 C.3   179  VAL179      0.0276
     59  CG1       40.5350  -22.4500   35.9310 C.3   179  VAL179      0.0022
     60  CG2       39.5860  -20.6820   34.4330 C.3   179  VAL179      0.0022
     61  N         41.2020  -18.9590   42.3230 N.3   182  PRO182     -0.2102
     62  CA        40.6490  -19.5160   43.5620 C.3   182  PRO182      0.1504
     63  C         41.1420  -20.9380   43.8360 C.2   182  PRO182      0.2575
     64  O         41.0320  -21.4180   44.9640 O.2   182  PRO182     -0.2718
     65  CB        39.1430  -19.5170   43.2970 C.3   182  PRO182      0.0282
     66  CG        39.0310  -19.6720   41.8320 C.3   182  PRO182      0.0208
     67  CD        40.2090  -18.9580   41.2320 C.3   182  PRO182      0.0893
     68  N         41.6790  -21.5960   42.8150 N.am  183  ILE183     -0.1980
     69  CA        42.2020  -22.9490   42.9690 C.3   183  ILE183      0.1595
     70  C         43.4950  -22.9430   43.7810 C.2   183  ILE183      0.2287
     71  O         43.6680  -23.7460   44.6990 O.2   183  ILE183     -0.2864
     72  CB        42.4430  -23.6250   41.6010 C.3   183  ILE183      0.0276
     73  CG1       41.1240  -23.7530   40.8330 C.3   183  ILE183      0.0022
     74  CG2       43.0860  -24.9910   41.7830 C.3   183  ILE183      0.0022
     75  CD1       41.2730  -24.3570   39.4530 C.3   183  ILE183      0.0001
     76  N         42.6230  -20.9830   47.5350 N.3   186  TYR186     -0.1227
     77  CA        41.7430  -21.6650   48.4790 C.3   186  TYR186      0.1736
     78  C         41.7940  -23.1900   48.4020 C.2   186  TYR186      0.2596
     79  O         42.0390  -23.8510   49.4080 O.2   186  TYR186     -0.2718
     80  CB        40.3050  -21.1690   48.3060 C.3   186  TYR186      0.0548
     81  CG        40.1250  -19.7180   48.6700 C.ar  186  TYR186     -0.0200
     82  CD1       40.0280  -18.7430   47.6890 C.ar  186  TYR186     -0.0009
     83  CD2       40.0650  -19.3230   50.0000 C.ar  186  TYR186     -0.0009
     84  CE1       39.8670  -17.4160   48.0210 C.ar  186  TYR186      0.0417
     85  CE2       39.9070  -18.0010   50.3420 C.ar  186  TYR186      0.0417
     86  CZ        39.8080  -17.0530   49.3490 C.ar  186  TYR186      0.1957
     87  OH        39.6500  -15.7350   49.6960 O.3   186  TYR186     -0.2866
     88  N         41.5570  -23.7410   47.2140 N.am  187  THR187     -0.1953
     89  CA        41.5080  -25.1940   47.0340 C.3   187  THR187      0.1897
     90  C         42.8110  -25.8690   47.4610 C.2   187  THR187      0.2313
     91  O         42.7980  -26.8520   48.2020 O.2   187  THR187     -0.2863
     92  CB        41.1770  -25.5720   45.5770 C.3   187  THR187      0.1794
     93  OG1       39.9620  -24.9230   45.1850 O.3   187  THR187     -0.2208
     94  CG2       41.0200  -27.0850   45.4230 C.3   187  THR187      0.0378
@<TRIPOS>BOND
     1     7     6    1
     2     6     5    1
     3     6     8    1
     4     5     2    1
     5     1     2    1
     6    53    51    1
     7    60    58    1
     8     2     3    1
     9    51    50    1
    10    58    59    1
    11    58    55    1
    12    50    52    1
    13    50    47    1
    14     3     4    2
    15    46    47    1
    16    54    55    1
    17    54    48   am
    18    47    48    1
    19    55    56    1
    20    48    49    2
    21    56    57    2
    22    13    10    1
    23    75    73    1
    24     9    10    1
    25    10    11    1
    26    73    72    1
    27    67    66    1
    28    67    61    1
    29    11    12    2
    30    72    74    1
    31    72    69    1
    32    66    65    1
    33    30    28   ar
    34    30    31   ar
    35    61    62    1
    36    68    69    1
    37    68    63   am
    38    28    27   ar
    39    69    70    1
    40    33    31   ar
    41    33    35   ar
    42    21    19    1
    43    31    29   ar
    44    65    62    1
    45    62    63    1
    46    70    71    2
    47    63    64    2
    48    19    18    1
    49    27    29   ar
    50    27    26    1
    51    35    34   ar
    52    29    32   ar
    53    18    20    1
    54    18    15    1
    55    14    15    1
    56    93    92    1
    57    26    23    1
    58    94    92    1
    59    34    32   ar
    60    15    16    1
    61    92    89    1
    62    22    23    1
    63    22    16   am
    64    23    24    1
    65    16    17    2
    66    89    88    1
    67    89    90    1
    68    88    78   am
    69    24    25    2
    70    90    91    2
    71    76    77    1
    72    82    84   ar
    73    82    81   ar
    74    84    86   ar
    75    80    77    1
    76    80    81    1
    77    78    77    1
    78    78    79    2
    79    81    83   ar
    80    36    37    1
    81    41    40    1
    82    86    87    1
    83    86    85   ar
    84    40    37    1
    85    83    85   ar
    86    37    38    1
    87    42    38   am
    88    42    43    1
    89    38    39    2
    90    43    44    1
    91    44    45    2
