@<TRIPOS>MOLECULE
tmp/4mlbC05.pdb
 142 132 0 0 0
SMALL
GASTEIGER

@<TRIPOS>ATOM
      1  N         45.0550  -39.2060   32.5820 N.3    32  GLN32      -0.1245
      2  CA        45.5200  -40.2470   33.4960 C.3    32  GLN32       0.1566
      3  C         46.3800  -39.6400   34.5990 C.2    32  GLN32       0.2260
      4  O         46.3200  -40.0730   35.7470 O.2    32  GLN32      -0.2867
      5  CB        46.3010  -41.3380   32.7480 C.3    32  GLN32       0.0367
      6  CG        45.4260  -42.3250   31.9820 C.3    32  GLN32       0.0905
      7  CD        46.2170  -43.2530   31.0810 C.2    32  GLN32       0.2608
      8  OE1       47.4250  -43.0950   30.9080 O.2    32  GLN32      -0.2717
      9  NE2       45.5330  -44.2270   30.4960 N.am   32  GLN32      -0.0878
     10  N         44.0500  -37.9520   37.0170 N.3    35  TYR35      -0.1227
     11  CA        43.4560  -38.9650   37.8830 C.3    35  TYR35       0.1736
     12  C         44.4360  -39.3780   38.9720 C.2    35  TYR35       0.2595
     13  O         44.0710  -39.4610   40.1470 O.2    35  TYR35      -0.2718
     14  CB        43.0370  -40.2150   37.0970 C.3    35  TYR35       0.0548
     15  CG        43.0980  -41.4560   37.9640 C.ar   35  TYR35      -0.0200
     16  CD1       42.1570  -41.6730   38.9630 C.ar   35  TYR35      -0.0009
     17  CD2       44.1180  -42.3880   37.8120 C.ar   35  TYR35      -0.0009
     18  CE1       42.2240  -42.7810   39.7780 C.ar   35  TYR35       0.0417
     19  CE2       44.1900  -43.5030   38.6200 C.ar   35  TYR35       0.0417
     20  CZ        43.2390  -43.6930   39.5990 C.ar   35  TYR35       0.1957
     21  OH        43.3030  -44.7990   40.4060 O.3    35  TYR35      -0.2866
     22  N         45.6720  -39.6620   38.5690 N.am   36  ASN36      -0.1974
     23  CA        46.7050  -40.1000   39.5010 C.3    36  ASN36       0.1688
     24  C         46.9600  -39.0810   40.6060 C.2    36  ASN36       0.2292
     25  O         47.0930  -39.4370   41.7780 O.2    36  ASN36      -0.2864
     26  CB        48.0080  -40.3980   38.7520 C.3    36  ASN36       0.1181
     27  CG        48.0020  -41.7580   38.0830 C.2    36  ASN36       0.2629
     28  OD1       47.5780  -42.7480   38.6730 O.2    36  ASN36      -0.2716
     29  ND2       48.4740  -41.8110   36.8420 N.am   36  ASN36      -0.0877
     30  N         52.3950  -50.7690   44.0880 N.3    58  PHE58      -0.1241
     31  CA        52.7000  -50.1580   42.7900 C.3    58  PHE58       0.1605
     32  C         53.5820  -50.9770   41.8280 C.2    58  PHE58       0.2264
     33  O         53.2880  -51.0320   40.6340 O.2    58  PHE58      -0.2867
     34  CB        53.2590  -48.7400   42.9660 C.3    58  PHE58       0.0534
     35  CG        53.0900  -47.8700   41.7530 C.ar   58  PHE58      -0.0203
     36  CD1       51.8610  -47.2980   41.4630 C.ar   58  PHE58      -0.0042
     37  CD2       54.1550  -47.6250   40.9030 C.ar   58  PHE58      -0.0042
     38  CE1       51.6980  -46.4990   40.3470 C.ar   58  PHE58      -0.0003
     39  CE2       53.9990  -46.8270   39.7850 C.ar   58  PHE58      -0.0003
     40  CZ        52.7690  -46.2630   39.5070 C.ar   58  PHE58      -0.0000
     41  N         51.4390  -53.5060   40.1490 N.3    61  PHE61      -0.1227
     42  CA        50.6110  -52.8780   39.1300 C.3    61  PHE61       0.1736
     43  C         51.4070  -52.6550   37.8500 C.2    61  PHE61       0.2595
     44  O         50.9000  -52.8650   36.7500 O.2    61  PHE61      -0.2718
     45  CB        50.0510  -51.5480   39.6370 C.3    61  PHE61       0.0547
     46  CG        49.1630  -50.8480   38.6490 C.ar   61  PHE61      -0.0202
     47  CD1       47.9080  -51.3510   38.3490 C.ar   61  PHE61      -0.0042
     48  CD2       49.5790  -49.6850   38.0250 C.ar   61  PHE61      -0.0042
     49  CE1       47.0860  -50.7100   37.4420 C.ar   61  PHE61      -0.0003
     50  CE2       48.7620  -49.0400   37.1150 C.ar   61  PHE61      -0.0003
     51  CZ        47.5130  -49.5520   36.8260 C.ar   61  PHE61      -0.0000
     52  N         52.6580  -52.2320   38.0060 N.am   62  MET62      -0.1979
     53  CA        53.5470  -52.0150   36.8720 C.3    62  MET62       0.1605
     54  C         53.8600  -53.3250   36.1600 C.2    62  MET62       0.2287
     55  O         54.0620  -53.3490   34.9470 O.2    62  MET62      -0.2864
     56  CB        54.8430  -51.3400   37.3280 C.3    62  MET62       0.0413
     57  CG        54.6780  -49.8970   37.7910 C.3    62  MET62       0.0598
     58  SD        54.3790  -48.7360   36.4400 S.3    62  MET62      -0.1393
     59  CE        52.5930  -48.6000   36.4690 C.3    62  MET62       0.0692
     60  N         50.9120  -54.0940   33.9110 N.3    65  ILE65      -0.1245
     61  CA        50.9310  -53.1580   32.7900 C.3    65  ILE65       0.1561
     62  C         52.0400  -53.5100   31.7990 C.2    65  ILE65       0.2260
     63  O         51.8320  -53.4650   30.5870 O.2    65  ILE65      -0.2867
     64  CB        51.0590  -51.6860   33.2690 C.3    65  ILE65       0.0252
     65  CG1       49.6750  -51.0520   33.4350 C.3    65  ILE65       0.0019
     66  CG2       51.8620  -50.8510   32.2820 C.3    65  ILE65       0.0019
     67  CD1       48.7730  -51.7610   34.4170 C.3    65  ILE65       0.0001
     68  N         42.1510  -54.2470   27.5520 N.3   151  ASN151     -0.1240
     69  CA        42.1230  -52.8150   27.2690 C.3   151  ASN151      0.1653
     70  C         43.3440  -52.3560   26.4820 C.2   151  ASN151      0.2266
     71  O         43.2240  -51.5690   25.5420 O.2   151  ASN151     -0.2867
     72  CB        41.9820  -52.0030   28.5580 C.3   151  ASN151      0.1155
     73  CG        40.5940  -52.1030   29.1580 C.2   151  ASN151      0.2627
     74  OD1       39.6490  -52.5140   28.4870 O.2   151  ASN151     -0.2716
     75  ND2       40.4620  -51.7220   30.4230 N.am  151  ASN151     -0.0877
     76  N         39.1320  -43.7290   24.7970 N.3   170  ALA170     -0.1231
     77  CA        39.0550  -44.8510   25.7260 C.3   170  ALA170      0.1694
     78  C         39.8170  -44.5490   27.0150 C.2   170  ALA170      0.2591
     79  O         39.3700  -44.8960   28.1080 O.2   170  ALA170     -0.2718
     80  CB        39.5900  -46.1160   25.0720 C.3   170  ALA170      0.0304
     81  N         40.9710  -43.9040   26.8790 N.am  171  MET171     -0.1979
     82  CA        41.7910  -43.5480   28.0310 C.3   171  MET171      0.1605
     83  C         41.1350  -42.4450   28.8540 C.2   171  MET171      0.2287
     84  O         41.1430  -42.4920   30.0850 O.2   171  MET171     -0.2864
     85  CB        43.1860  -43.1100   27.5780 C.3   171  MET171      0.0413
     86  CG        43.9430  -44.1710   26.7980 C.3   171  MET171      0.0598
     87  SD        45.4110  -43.5350   25.9610 S.3   171  MET171     -0.1393
     88  CE        46.3870  -42.9840   27.3540 C.3   171  MET171      0.0692
     89  N         37.8450  -43.7240   30.7390 N.3   174  GLY174     -0.1210
     90  CA        38.2040  -44.5570   31.8730 C.3   174  GLY174      0.1956
     91  C         38.7460  -43.7600   33.0440 C.2   174  GLY174      0.2612
     92  O         38.3210  -43.9460   34.1850 O.2   174  GLY174     -0.2717
     93  N         39.6870  -42.8650   32.7610 N.am  175  SER175     -0.1952
     94  CA        40.2760  -42.0300   33.8010 C.3   175  SER175      0.1924
     95  C         39.2790  -41.0120   34.3400 C.2   175  SER175      0.2314
     96  O         39.2420  -40.7470   35.5410 O.2   175  SER175     -0.2863
     97  CB        41.5280  -41.3260   33.2810 C.3   175  SER175      0.2116
     98  OG        42.5590  -42.2650   33.0440 O.3   175  SER175     -0.2180
     99  N         37.0630  -42.8380   36.5910 N.3   178  ASN178     -0.1240
    100  CA        37.8270  -43.1590   37.7880 C.3   178  ASN178      0.1653
    101  C         37.9490  -41.9470   38.7070 C.2   178  ASN178      0.2266
    102  O         37.9360  -42.0820   39.9290 O.2   178  ASN178     -0.2867
    103  CB        39.2110  -43.6900   37.4130 C.3   178  ASN178      0.1155
    104  CG        39.8170  -44.5580   38.5010 C.2   178  ASN178      0.2627
    105  OD1       39.3570  -44.5570   39.6440 O.2   178  ASN178     -0.2716
    106  ND2       40.8620  -45.2980   38.1510 N.am  178  ASN178     -0.0877
    107  N         39.0810  -48.0940   40.3140 N.3   200  THR200     -0.1218
    108  CA        39.9110  -48.2980   39.1340 C.3   200  THR200      0.1862
    109  C         39.4620  -49.5150   38.3270 C.2   200  THR200      0.2287
    110  O         39.3420  -49.4440   37.1040 O.2   200  THR200     -0.2866
    111  CB        41.3980  -48.4400   39.5090 C.3   200  THR200      0.1770
    112  OG1       41.8650  -47.2110   40.0790 O.3   200  THR200     -0.2211
    113  CG2       42.2350  -48.7680   38.2810 C.3   200  THR200      0.0375
    114  N         36.2740  -48.8380   36.5440 N.3   203  SER203     -0.1202
    115  CA        36.5170  -47.9290   35.4310 C.3   203  SER203      0.2020
    116  C         37.1320  -48.6740   34.2520 C.2   203  SER203      0.2618
    117  O         36.8110  -48.3990   33.0960 O.2   203  SER203     -0.2717
    118  CB        37.4220  -46.7750   35.8650 C.3   203  SER203      0.2103
    119  OG        36.8400  -46.0590   36.9380 O.3   203  SER203     -0.2182
    120  N         38.0130  -49.6220   34.5570 N.am  204  MET204     -0.1979
    121  CA        38.6430  -50.4490   33.5340 C.3   204  MET204      0.1605
    122  C         37.6210  -51.3390   32.8330 C.2   204  MET204      0.2287
    123  O         37.6810  -51.5270   31.6180 O.2   204  MET204     -0.2864
    124  CB        39.7510  -51.3040   34.1520 C.3   204  MET204      0.0413
    125  CG        41.0080  -50.5300   34.5100 C.3   204  MET204      0.0598
    126  SD        42.1380  -51.5000   35.5280 S.3   204  MET204     -0.1393
    127  CE        43.6280  -50.5130   35.4160 C.3   204  MET204      0.0692
    128  N         35.6380  -49.2700   30.4870 N.3   207  THR207     -0.1218
    129  CA        36.4950  -49.0500   29.3300 C.3   207  THR207      0.1862
    130  C         36.4520  -50.2470   28.3840 C.2   207  THR207      0.2287
    131  O         36.3730  -50.0800   27.1670 O.2   207  THR207     -0.2866
    132  CB        37.9540  -48.7930   29.7490 C.3   207  THR207      0.1770
    133  OG1       38.0110  -47.6540   30.6160 O.3   207  THR207     -0.2211
    134  CG2       38.8270  -48.5370   28.5280 C.3   207  THR207      0.0375
    135  N         58.3170  -39.0310   35.4180 N.3   285  MET285     -0.1245
    136  CA        57.2610  -39.7790   34.7430 C.3   285  MET285      0.1570
    137  C         56.2520  -38.8090   34.1400 C.2   285  MET285      0.2261
    138  O         55.6260  -39.1060   33.1230 O.2   285  MET285     -0.2867
    139  CB        56.5620  -40.7420   35.7030 C.3   285  MET285      0.0387
    140  CG        57.3630  -41.9940   36.0190 C.3   285  MET285      0.0595
    141  SD        57.5140  -43.1480   34.6370 S.3   285  MET285     -0.1393
    142  CE        55.8250  -43.7270   34.4910 C.3   285  MET285      0.0692
@<TRIPOS>BOND
     1    76    77    1
     2    80    77    1
     3    71    70    2
     4    77    78    1
     5    87    86    1
     6    87    88    1
     7    70    69    1
     8    86    85    1
     9    81    78   am
    10    81    82    1
    11    78    79    2
    12   131   130    2
    13    69    68    1
    14    69    72    1
    15    85    82    1
    16    82    83    1
    17   130   129    1
    18    74    73    2
    19   134   132    1
    20    72    73    1
    21    83    84    2
    22    73    75   am
    23   129   132    1
    24   129   128    1
    25   132   133    1
    26     9     7   am
    27    63    62    2
    28    89    90    1
    29     8     7    2
    30     7     6    1
    31   123   122    2
    32    62    61    1
    33    90    91    1
    34     6     5    1
    35    66    64    1
    36     1     2    1
    37     5     2    1
    38    93    91   am
    39    93    94    1
    40    61    64    1
    41    61    60    1
    42   122   121    1
    43    91    92    2
    44    98    97    1
    45   117   116    2
    46   138   137    2
    47    64    65    1
    48    97    94    1
    49    65    67    1
    50     2     3    1
    51   121   124    1
    52   121   120    1
    53    94    95    1
    54   137   136    1
    55   124   125    1
    56   116   120   am
    57   116   115    1
    58    95    96    2
    59   142   141    1
    60   125   126    1
    61     3     4    2
    62   141   140    1
    63   136   135    1
    64   136   139    1
    65    55    54    2
    66   127   126    1
    67   115   118    1
    68   115   114    1
    69   139   140    1
    70   118   119    1
    71    54    53    1
    72    58    59    1
    73    58    57    1
    74    99   100    1
    75    44    43    2
    76    51    50   ar
    77    51    49   ar
    78    29    27   am
    79    53    56    1
    80    53    52    1
    81    10    11    1
    82    14    11    1
    83    14    15    1
    84   110   109    2
    85    50    48   ar
    86    56    57    1
    87   103   100    1
    88   103   104    1
    89    49    47   ar
    90   100   101    1
    91    17    15   ar
    92    17    19   ar
    93    43    52   am
    94    43    42    1
    95    11    12    1
    96    15    16   ar
    97    48    46   ar
    98    27    28    2
    99    27    26    1
   100   106   104   am
   101   113   111    1
   102   109   108    1
   103    47    46   ar
   104   104   105    2
   105    22    12   am
   106    22    23    1
   107    19    20   ar
   108    46    45    1
   109   101   102    2
   110    26    23    1
   111    16    18   ar
   112    12    13    2
   113    42    45    1
   114    42    41    1
   115   108   111    1
   116   108   107    1
   117    23    24    1
   118    40    39   ar
   119    40    38   ar
   120   111   112    1
   121    20    18   ar
   122    20    21    1
   123    39    37   ar
   124    38    36   ar
   125    24    25    2
   126    33    32    2
   127    37    35   ar
   128    36    35   ar
   129    35    34    1
   130    32    31    1
   131    31    34    1
   132    31    30    1
