@<TRIPOS>MOLECULE
tmp/4mlbA08.pdb
 124 115 0 0 0
SMALL
GASTEIGER

@<TRIPOS>ATOM
      1  N         42.4590    0.4060    4.1000 N.3    12  ASP12      -0.1239
      2  CA        41.6280    1.5290    4.5150 C.3    12  ASP12       0.1674
      3  C         41.8380    1.8320    5.9980 C.2    12  ASP12       0.2266
      4  O         41.7170    0.9430    6.8410 O.2    12  ASP12      -0.2867
      5  CB        40.1610    1.2010    4.2480 C.3    12  ASP12       0.1410
      6  CG        39.2240    2.3180    4.6510 C.2    12  ASP12       0.3668
      7  OD1       39.0740    3.2820    3.8710 O.co2  12  ASP12      -0.2456
      8  OD2       38.6120    2.2100    5.7330 O.co2  12  ASP12      -0.2456
      9  N         40.1300    3.5200    8.2180 N.3    14  LYS14      -0.1231
     10  CA        38.9540    3.4000    9.0720 C.3    14  LYS14       0.1693
     11  C         38.6600    1.9520    9.4300 C.2    14  LYS14       0.2591
     12  O         38.3540    1.6360   10.5800 O.2    14  LYS14      -0.2718
     13  CB        37.7430    4.0330    8.3910 C.3    14  LYS14       0.0285
     14  CG        37.9300    5.5080    8.0790 C.3    14  LYS14       0.0035
     15  CD        36.6560    6.1260    7.5350 C.3    14  LYS14       0.0206
     16  CE        36.8290    7.6160    7.2870 C.3    14  LYS14       0.1093
     17  NZ        35.5650    8.2510    6.8160 N.3    14  LYS14      -0.1314
     18  N         38.7460    1.0760    8.4350 N.am   15  LYS15      -0.1980
     19  CA        38.5830   -0.3520    8.6600 C.3    15  LYS15       0.1596
     20  C         39.6920   -0.8680    9.5730 C.2    15  LYS15       0.2287
     21  O         39.4560   -1.6930   10.4580 O.2    15  LYS15      -0.2864
     22  CB        38.6030   -1.1060    7.3300 C.3    15  LYS15       0.0298
     23  CG        38.5200   -2.6120    7.4730 C.3    15  LYS15       0.0038
     24  CD        38.5140   -3.3070    6.1220 C.3    15  LYS15       0.0206
     25  CE        38.4510   -4.8160    6.2900 C.3    15  LYS15       0.1093
     26  NZ        38.3690   -5.5280    4.9860 N.3    15  LYS15      -0.1314
     27  N         39.0390    0.2150   13.3060 N.3    18  VAL18      -0.1245
     28  CA        37.9820   -0.5610   13.9470 C.3    18  VAL18       0.1561
     29  C         38.3890   -2.0110   14.2000 C.2    18  VAL18       0.2260
     30  O         38.2600   -2.5160   15.3150 O.2    18  VAL18      -0.2867
     31  CB        36.6840   -0.5370   13.1160 C.3    18  VAL18       0.0252
     32  CG1       35.6270   -1.4230   13.7560 C.3    18  VAL18       0.0019
     33  CG2       36.1740    0.8900   12.9690 C.3    18  VAL18       0.0019
     34  N         39.0120   -3.6410   18.1660 N.3    22  ILE22      -0.1245
     35  CA        38.0810   -4.5930   18.7760 C.3    22  ILE22       0.1561
     36  C         38.7320   -5.7630   19.5370 C.2    22  ILE22       0.2260
     37  O         38.3690   -6.0130   20.6870 O.2    22  ILE22      -0.2867
     38  CB        37.0270   -5.1030   17.7570 C.3    22  ILE22       0.0252
     39  CG1       36.1350   -3.9480   17.2970 C.3    22  ILE22       0.0019
     40  CG2       36.1880   -6.2210   18.3590 C.3    22  ILE22       0.0019
     41  CD1       35.1270   -4.3380   16.2370 C.3    22  ILE22       0.0001
     42  N         40.1830   -4.5100   22.7860 N.3    25  MET25      -0.1245
     43  CA        39.1540   -4.1990   23.7760 C.3    25  MET25       0.1570
     44  C         38.7450   -5.4640   24.5220 C.2    25  MET25       0.2261
     45  O         38.5800   -5.4570   25.7410 O.2    25  MET25      -0.2867
     46  CB        37.9170   -3.5950   23.1100 C.3    25  MET25       0.0387
     47  CG        38.1590   -2.3110   22.3420 C.3    25  MET25       0.0595
     48  SD        36.6090   -1.6270   21.7200 S.3    25  MET25      -0.1393
     49  CE        37.2130   -0.4430   20.5250 C.3    25  MET25       0.0692
     50  N         34.8980    1.1730   32.7320 N.3   285  LEU285     -0.1245
     51  CA        33.9140    0.6940   31.7750 C.3   285  LEU285      0.1561
     52  C         34.0580    1.4690   30.4710 C.2   285  LEU285      0.2260
     53  O         33.8370    0.9340   29.3830 O.2   285  LEU285     -0.2867
     54  CB        32.5130    0.8990   32.3440 C.3   285  LEU285      0.0270
     55  CG        31.5790   -0.3050   32.3150 C.3   285  LEU285      0.0019
     56  CD1       30.3880   -0.1340   33.2580 C.3   285  LEU285      0.0001
     57  CD2       31.1110   -0.5420   30.8920 C.3   285  LEU285      0.0001
     58  N         37.6550    0.5010   26.4930 N.3   289  PRO289     -0.2116
     59  CA        37.5470    0.6000   25.0330 C.3   289  PRO289      0.1372
     60  C         38.4970    1.6300   24.4200 C.2   289  PRO289      0.2244
     61  O         39.0030    1.3890   23.3270 O.2   289  PRO289     -0.2868
     62  CB        36.0980    1.0470   24.8140 C.3   289  PRO289      0.0268
     63  CG        35.3770    0.6140   26.0260 C.3   289  PRO289      0.0207
     64  CD        36.3560    0.7480   27.1470 C.3   289  PRO289      0.0892
     65  N         39.5070    9.9250   12.7520 N.3   319  TYR319     -0.1241
     66  CA        38.4660    8.8990   12.7800 C.3   319  TYR319      0.1605
     67  C         38.4580    8.1660   14.1150 C.2   319  TYR319      0.2264
     68  O         37.4020    7.8110   14.6330 O.2   319  TYR319     -0.2867
     69  CB        38.6640    7.9010   11.6340 C.3   319  TYR319      0.0534
     70  CG        37.6060    6.8230   11.5600 C.ar  319  TYR319     -0.0201
     71  CD1       36.3210    7.1130   11.1220 C.ar  319  TYR319     -0.0009
     72  CD2       37.8960    5.5120   11.9160 C.ar  319  TYR319     -0.0009
     73  CE1       35.3510    6.1320   11.0500 C.ar  319  TYR319      0.0417
     74  CE2       36.9350    4.5240   11.8480 C.ar  319  TYR319      0.0417
     75  CZ        35.6650    4.8390   11.4130 C.ar  319  TYR319      0.1957
     76  OH        34.7070    3.8560   11.3440 O.3   319  TYR319     -0.2866
     77  N         36.8310   10.2730   16.6930 N.3   322  LYS322     -0.1231
     78  CA        35.4050   10.2830   16.3910 C.3   322  LYS322      0.1693
     79  C         34.6930    9.0280   16.9020 C.2   322  LYS322      0.2591
     80  O         33.6440    9.1200   17.5390 O.2   322  LYS322     -0.2718
     81  CB        35.1950   10.4440   14.8830 C.3   322  LYS322      0.0285
     82  CG        33.7560   10.7000   14.4710 C.3   322  LYS322      0.0035
     83  CD        33.6890   11.1480   13.0200 C.3   322  LYS322      0.0206
     84  CE        32.6360   10.3800   12.2400 C.3   322  LYS322      0.1093
     85  NZ        33.1780    9.8540   10.9540 N.3   322  LYS322     -0.1314
     86  N         35.2680    7.8610   16.6260 N.am  323  ILE323     -0.1980
     87  CA        34.6800    6.5930   17.0510 C.3   323  ILE323      0.1595
     88  C         34.7500    6.4140   18.5720 C.2   323  ILE323      0.2287
     89  O         33.7810    5.9910   19.2010 O.2   323  ILE323     -0.2864
     90  CB        35.3630    5.3960   16.3550 C.3   323  ILE323      0.0276
     91  CG1       35.1960    5.4880   14.8380 C.3   323  ILE323      0.0022
     92  CG2       34.7950    4.0830   16.8650 C.3   323  ILE323      0.0022
     93  CD1       33.7520    5.4220   14.3770 C.3   323  ILE323      0.0001
     94  N         31.6690    6.0360   21.2630 N.3   327  ILE327     -0.1245
     95  CA        31.6580    4.8980   22.1750 C.3   327  ILE327      0.1561
     96  C         31.5230    5.3840   23.6210 C.2   327  ILE327      0.2260
     97  O         30.6890    4.8850   24.3780 O.2   327  ILE327     -0.2867
     98  CB        32.9310    4.0330   22.0100 C.3   327  ILE327      0.0252
     99  CG1       32.8570    3.2010   20.7260 C.3   327  ILE327      0.0019
    100  CG2       33.1270    3.1260   23.2100 C.3   327  ILE327      0.0019
    101  CD1       34.1280    2.4350   20.4140 C.3   327  ILE327      0.0001
    102  N         27.9620    6.7380   24.7020 N.3   330  ALA330     -0.1231
    103  CA        27.0570    5.6840   25.1440 C.3   330  ALA330      0.1694
    104  C         27.3730    5.2250   26.5660 C.2   330  ALA330      0.2591
    105  O         26.4870    5.1740   27.4190 O.2   330  ALA330     -0.2718
    106  CB        27.1340    4.5140   24.1940 C.3   330  ALA330      0.0304
    107  N         28.6350    4.8700   26.7950 N.am  331  VAL331     -0.1980
    108  CA        29.1150    4.4450   28.1080 C.3   331  VAL331      0.1595
    109  C         28.7380    5.4350   29.2160 C.2   331  VAL331      0.2287
    110  O         28.2190    5.0400   30.2620 O.2   331  VAL331     -0.2864
    111  CB        30.6450    4.2570   28.1000 C.3   331  VAL331      0.0276
    112  CG1       31.1520    3.9830   29.5020 C.3   331  VAL331      0.0022
    113  CG2       31.0470    3.1320   27.1480 C.3   331  VAL331      0.0022
    114  N         25.0850    5.8550   29.7670 N.3   334  PHE334     -0.1241
    115  CA        24.6850    4.6250   30.4500 C.3   334  PHE334      0.1605
    116  C         24.9980    4.6330   31.9450 C.2   334  PHE334      0.2264
    117  O         24.1410    4.2900   32.7600 O.2   334  PHE334     -0.2867
    118  CB        25.3540    3.4180   29.7880 C.3   334  PHE334      0.0534
    119  CG        25.1900    2.1330   30.5490 C.ar  334  PHE334     -0.0203
    120  CD1       24.0410    1.3720   30.4100 C.ar  334  PHE334     -0.0042
    121  CD2       26.1960    1.6740   31.3880 C.ar  334  PHE334     -0.0042
    122  CE1       23.8900    0.1830   31.1030 C.ar  334  PHE334     -0.0003
    123  CE2       26.0510    0.4870   32.0850 C.ar  334  PHE334     -0.0003
    124  CZ        24.8970   -0.2590   31.9410 C.ar  334  PHE334     -0.0000
@<TRIPOS>BOND
     1     7     6   ar
     2     1     2    1
     3     5     2    1
     4     5     6    1
     5     2     3    1
     6     6     8   ar
     7    26    25    1
     8     3     4    2
     9    24    25    1
    10    24    23    1
    11    17    16    1
    12    16    15    1
    13    22    23    1
    14    22    19    1
    15    15    14    1
    16    14    13    1
    17     9    10    1
    18    13    10    1
    19    18    19    1
    20    18    11   am
    21    19    20    1
    22    10    11    1
    23    11    12    2
    24    20    21    2
    25    85    84    1
    26    73    71   ar
    27    73    75   ar
    28    71    70   ar
    29    76    75    1
    30    75    74   ar
    31    70    69    1
    32    70    72   ar
    33    69    66    1
    34    74    72   ar
    35    84    83    1
    36    65    66    1
    37    66    67    1
    38    33    31    1
    39    83    82    1
    40    31    32    1
    41    31    28    1
    42    27    28    1
    43    28    29    1
    44    67    68    2
    45    29    30    2
    46    93    91    1
    47    82    81    1
    48    91    90    1
    49    81    78    1
    50    41    39    1
    51    90    92    1
    52    90    87    1
    53    78    77    1
    54    78    79    1
    55    86    79   am
    56    86    87    1
    57    79    80    2
    58    87    88    1
    59    39    38    1
    60    38    40    1
    61    38    35    1
    62    34    35    1
    63    88    89    2
    64    35    36    1
    65    36    37    2
    66   101    99    1
    67    49    48    1
    68    99    98    1
    69    94    95    1
    70    48    47    1
    71    98    95    1
    72    98   100    1
    73    95    96    1
    74    47    46    1
    75    42    43    1
    76    46    43    1
    77    61    60    2
    78    96    97    2
    79    43    44    1
    80   106   103    1
    81    60    59    1
    82    44    45    2
    83   102   103    1
    84    62    59    1
    85    62    63    1
    86    59    58    1
    87   103   104    1
    88    63    64    1
    89    58    64    1
    90   104   107   am
    91   104   105    2
    92   107   108    1
    93   113   111    1
    94   111   108    1
    95   111   112    1
    96   108   109    1
    97   109   110    2
    98    53    52    2
    99   114   115    1
   100   118   115    1
   101   118   119    1
   102   120   119   ar
   103   120   122   ar
   104   115   116    1
   105    52    51    1
   106   119   121   ar
   107    57    55    1
   108   122   124   ar
   109   121   123   ar
   110    51    54    1
   111    51    50    1
   112   124   123   ar
   113   116   117    2
   114    55    54    1
   115    55    56    1
