@<TRIPOS>MOLECULE
tmp/4mlbA00.pdb
 147 141 0 0 0
SMALL
GASTEIGER

@<TRIPOS>ATOM
      1  N         52.0220   -3.8950   45.2160 N.3    57  PHE57      -0.1228
      2  CA        51.2940   -3.3280   44.0780 C.3    57  PHE57       0.1721
      3  C         52.0240   -2.2240   43.2900 C.2    57  PHE57       0.2437
      4  O         52.0650   -2.2820   42.0620 O.2    57  PHE57      -0.2733
      5  CB        49.8960   -2.8620   44.5000 C.3    57  PHE57       0.0547
      6  CG        49.0410   -2.4010   43.3570 C.ar   57  PHE57      -0.0202
      7  CD1       48.4140   -3.3200   42.5310 C.ar   57  PHE57      -0.0042
      8  CD2       48.8600   -1.0510   43.1090 C.ar   57  PHE57      -0.0042
      9  CE1       47.6250   -2.9000   41.4770 C.ar   57  PHE57      -0.0003
     10  CE2       48.0720   -0.6240   42.0570 C.ar   57  PHE57      -0.0003
     11  CZ        47.4540   -1.5500   41.2410 C.ar   57  PHE57      -0.0000
     12  N         52.5970   -1.2170   43.9810 N.am   58  PRO58      -0.2729
     13  CA        53.3100   -0.1980   43.2000 C.3    58  PRO58       0.1401
     14  C         54.5420   -0.7530   42.4860 C.2    58  PRO58       0.2269
     15  O         54.8920   -0.2750   41.4070 O.2    58  PRO58      -0.2865
     16  CB        53.7240    0.8330   44.2590 C.3    58  PRO58       0.0296
     17  CG        53.7100    0.0890   45.5460 C.3    58  PRO58       0.0237
     18  CD        52.5890   -0.8910   45.4190 C.3    58  PRO58       0.0939
     19  N         53.1630   -2.6390   39.3820 N.3    61  MET61      -0.1230
     20  CA        52.7680   -1.6700   38.3680 C.3    61  MET61       0.1702
     21  C         53.9810   -1.0470   37.6800 C.2    61  MET61       0.2592
     22  O         53.9180   -0.6820   36.5070 O.2    61  MET61      -0.2718
     23  CB        51.8970   -0.5800   38.9860 C.3    61  MET61       0.0401
     24  CG        50.5420   -1.0540   39.4850 C.3    61  MET61       0.0596
     25  SD        49.4910   -1.7070   38.1750 S.3    61  MET61      -0.1393
     26  CE        49.6320   -3.4690   38.4630 C.3    61  MET61       0.0692
     27  N         55.0840   -0.9310   38.4140 N.am   62  GLY62      -0.1957
     28  CA        56.3250   -0.4350   37.8500 C.3    62  GLY62       0.1869
     29  C         56.8900   -1.3870   36.8120 C.2    62  GLY62       0.2309
     30  O         57.4090   -0.9600   35.7830 O.2    62  GLY62      -0.2863
     31  N         54.5440   -1.2600   33.7020 N.3    65  ALA65      -0.1231
     32  CA        54.7770   -0.0090   32.9860 C.3    65  ALA65       0.1694
     33  C         56.0230   -0.0990   32.1120 C.2    65  ALA65       0.2591
     34  O         56.0300    0.3700   30.9730 O.2    65  ALA65      -0.2718
     35  CB        54.8980    1.1500   33.9650 C.3    65  ALA65       0.0304
     36  N         57.0720   -0.7100   32.6510 N.am   66  LEU66      -0.1980
     37  CA        58.3110   -0.9050   31.9090 C.3    66  LEU66       0.1596
     38  C         58.1330   -1.9130   30.7740 C.2    66  LEU66       0.2287
     39  O         58.6660   -1.7310   29.6790 O.2    66  LEU66      -0.2864
     40  CB        59.4270   -1.3630   32.8510 C.3    66  LEU66       0.0297
     41  CG        59.9460   -0.3190   33.8410 C.3    66  LEU66       0.0022
     42  CD1       60.9500   -0.9400   34.7970 C.3    66  LEU66       0.0001
     43  CD2       60.5650    0.8590   33.1000 C.3    66  LEU66       0.0001
     44  N         60.4530    4.4880   26.8160 N.3   244  LEU244     -0.1245
     45  CA        60.7370    5.1580   28.0840 C.3   244  LEU244      0.1561
     46  C         59.6880    6.2090   28.4870 C.2   244  LEU244      0.2260
     47  O         59.2150    6.1910   29.6230 O.2   244  LEU244     -0.2867
     48  CB        62.1570    5.7440   28.0990 C.3   244  LEU244      0.0270
     49  CG        62.5880    6.4280   29.3980 C.3   244  LEU244      0.0019
     50  CD1       62.6720    5.4180   30.5330 C.3   244  LEU244      0.0001
     51  CD2       63.9140    7.1530   29.2170 C.3   244  LEU244      0.0001
     52  N         56.4910    4.5760   29.7840 N.3   247  SER247     -0.1202
     53  CA        56.5770    4.1510   31.1770 C.3   247  SER247      0.2020
     54  C         56.4620    5.3480   32.1190 C.2   247  SER247      0.2618
     55  O         55.8550    5.2540   33.1850 O.2   247  SER247     -0.2717
     56  CB        57.8920    3.4120   31.4290 C.3   247  SER247      0.2103
     57  OG        58.0260    2.2990   30.5640 O.3   247  SER247     -0.2182
     58  N         57.0480    6.4710   31.7150 N.am  248  LEU248     -0.1979
     59  CA        57.0210    7.6880   32.5200 C.3   248  LEU248      0.1596
     60  C         55.6170    8.2940   32.5900 C.2   248  LEU248      0.2287
     61  O         55.2540    8.9220   33.5840 O.2   248  LEU248     -0.2864
     62  CB        58.0370    8.7030   31.9920 C.3   248  LEU248      0.0297
     63  CG        59.4930    8.2920   32.2010 C.3   248  LEU248      0.0022
     64  CD1       60.4470    9.2900   31.5790 C.3   248  LEU248      0.0001
     65  CD2       59.8030    8.1270   33.6800 C.3   248  LEU248      0.0001
     66  N         52.9300    6.5180   32.8050 N.3   250  GLN250     -0.1231
     67  CA        52.3000    5.7140   33.8510 C.3   250  GLN250      0.1698
     68  C         52.6020    6.2820   35.2270 C.2   250  GLN250      0.2592
     69  O         51.6980    6.4790   36.0400 O.2   250  GLN250     -0.2718
     70  CB        52.7940    4.2660   33.7940 C.3   250  GLN250      0.0381
     71  CG        52.4870    3.5510   32.5010 C.3   250  GLN250      0.0905
     72  CD        51.0180    3.5910   32.1700 C.2   250  GLN250      0.2608
     73  OE1       50.1690    3.5210   33.0590 O.2   250  GLN250     -0.2717
     74  NE2       50.7050    3.7210   30.8880 N.am  250  GLN250     -0.0878
     75  N         53.8860    6.5250   35.4760 N.am  251  LEU251     -0.1980
     76  CA        54.3510    7.1470   36.7110 C.3   251  LEU251      0.1596
     77  C         53.6600    8.4840   36.9490 C.2   251  LEU251      0.2287
     78  O         53.2410    8.7860   38.0650 O.2   251  LEU251     -0.2864
     79  CB        55.8650    7.3530   36.6510 C.3   251  LEU251      0.0297
     80  CG        56.5430    7.9570   37.8780 C.3   251  LEU251      0.0022
     81  CD1       56.2550    7.1050   39.0990 C.3   251  LEU251      0.0001
     82  CD2       58.0390    8.0740   37.6550 C.3   251  LEU251      0.0001
     83  N         50.2760    7.8870   37.8790 N.3   254  SER254     -0.1217
     84  CA        50.3770    7.3070   39.2130 C.3   254  SER254      0.1889
     85  C         50.4550    8.3890   40.2850 C.2   254  SER254      0.2288
     86  O         49.6530    8.4100   41.2180 O.2   254  SER254     -0.2866
     87  CB        51.6050    6.3980   39.2980 C.3   254  SER254      0.2089
     88  OG        51.9590    6.1320   40.6430 O.3   254  SER254     -0.2183
     89  N         47.2780   10.3790   40.7140 N.3   257  MET257     -0.1230
     90  CA        46.2560    9.6790   41.4860 C.3   257  MET257      0.1702
     91  C         46.5030    9.8370   42.9810 C.2   257  MET257      0.2592
     92  O         45.5640    9.9780   43.7650 O.2   257  MET257     -0.2718
     93  CB        46.2160    8.1950   41.1150 C.3   257  MET257      0.0401
     94  CG        45.6590    7.9170   39.7290 C.3   257  MET257      0.0596
     95  SD        43.9490    8.4580   39.5570 S.3   257  MET257     -0.1393
     96  CE        43.1820    7.5540   40.8980 C.3   257  MET257      0.0692
     97  N         47.7740    9.8150   43.3670 N.am  258  PHE258     -0.1976
     98  CA        48.1570   10.0080   44.7580 C.3   258  PHE258      0.1639
     99  C         47.7860   11.4080   45.2350 C.2   258  PHE258      0.2290
    100  O         47.3050   11.5850   46.3550 O.2   258  PHE258     -0.2864
    101  CB        49.6570    9.7650   44.9390 C.3   258  PHE258      0.0560
    102  CG        50.1780   10.1670   46.2890 C.ar  258  PHE258     -0.0200
    103  CD1       49.9280    9.3850   47.4050 C.ar  258  PHE258     -0.0042
    104  CD2       50.9250   11.3240   46.4410 C.ar  258  PHE258     -0.0042
    105  CE1       50.4080    9.7530   48.6480 C.ar  258  PHE258     -0.0003
    106  CE2       51.4080   11.6970   47.6810 C.ar  258  PHE258     -0.0003
    107  CZ        51.1490   10.9110   48.7860 C.ar  258  PHE258     -0.0000
    108  N         44.0330   11.7780   45.5660 N.3   261  ASN261     -0.1240
    109  CA        43.6330   11.1190   46.8040 C.3   261  ASN261      0.1653
    110  C         43.7820   12.0480   48.0020 C.2   261  ASN261      0.2266
    111  O         42.9070   12.1060   48.8660 O.2   261  ASN261     -0.2867
    112  CB        44.4480    9.8420   47.0270 C.3   261  ASN261      0.1155
    113  CG        43.9720    8.6870   46.1660 C.2   261  ASN261      0.2627
    114  OD1       42.7770    8.5360   45.9160 O.2   261  ASN261     -0.2716
    115  ND2       44.9080    7.8620   45.7100 N.am  261  ASN261     -0.0877
    116  N         37.7780    6.3710   44.9430 N.3   277  THR277     -0.1218
    117  CA        38.2980    5.0830   44.4940 C.3   277  THR277      0.1862
    118  C         37.2490    4.2990   43.7150 C.2   277  THR277      0.2287
    119  O         37.5300    3.7560   42.6450 O.2   277  THR277     -0.2866
    120  CB        38.7860    4.2270   45.6790 C.3   277  THR277      0.1770
    121  OG1       39.8380    4.9150   46.3690 O.3   277  THR277     -0.2211
    122  CG2       39.3020    2.8810   45.1910 C.3   277  THR277      0.0375
    123  N         36.4000    6.1640   39.9490 N.3   280  TRP280     -0.1227
    124  CA        37.2300    5.9190   38.7680 C.3   280  TRP280      0.1737
    125  C         37.3240    4.4450   38.3740 C.2   280  TRP280      0.2595
    126  O         37.5380    4.1230   37.2020 O.2   280  TRP280     -0.2718
    127  CB        38.6190    6.5570   38.8890 C.3   280  TRP280      0.0564
    128  CG        39.5080    5.9920   39.9480 C.ar  280  TRP280      0.0003
    129  CD1       39.7160    6.5000   41.1950 C.ar  280  TRP280      0.0946
    130  CD2       40.3490    4.8380   39.8420 C.ar  280  TRP280      0.0152
    131  NE1       40.6180    5.7250   41.8820 N.ar  280  TRP280     -0.2442
    132  CE2       41.0220    4.6980   41.0700 C.ar  280  TRP280      0.0810
    133  CE3       40.5880    3.9040   38.8290 C.ar  280  TRP280      0.0012
    134  CZ2       41.9210    3.6580   41.3140 C.ar  280  TRP280      0.0191
    135  CZ3       41.4800    2.8750   39.0730 C.ar  280  TRP280      0.0001
    136  CH2       42.1350    2.7600   40.3040 C.ar  280  TRP280      0.0015
    137  N         37.1640    3.5540   39.3480 N.am  281  ARG281     -0.1980
    138  CA        37.0790    2.1250   39.0590 C.3   281  ARG281      0.1597
    139  C         35.9040    1.8370   38.1280 C.2   281  ARG281      0.2287
    140  O         35.9950    0.9890   37.2390 O.2   281  ARG281     -0.2864
    141  CB        36.9340    1.3140   40.3500 C.3   281  ARG281      0.0334
    142  CG        38.2520    0.8300   40.9320 C.3   281  ARG281      0.0492
    143  CD        38.0260   -0.0590   42.1470 C.3   281  ARG281      0.2205
    144  NE        39.2770   -0.3800   42.8290 N.pl3 281  ARG281     -0.0865
    145  CZ        39.3580   -0.8420   44.0730 C.cat 281  ARG281      0.5346
    146  NH1       38.2580   -1.0370   44.7870 N.pl3 281  ARG281      0.1354
    147  NH2       40.5420   -1.1030   44.6080 N.pl3 281  ARG281      0.1354
@<TRIPOS>BOND
     1    44    45    1
     2    45    48    1
     3    45    46    1
     4    48    49    1
     5    46    47    2
     6    51    49    1
     7    49    50    1
     8    39    38    2
     9    52    53    1
    10    57    56    1
    11    38    37    1
    12    74    72   am
    13    34    33    2
    14    53    56    1
    15    53    54    1
    16    64    63    1
    17    58    54   am
    18    58    59    1
    19    37    36    1
    20    37    40    1
    21    62    63    1
    22    62    59    1
    23    33    36   am
    24    33    32    1
    25    54    55    2
    26    72    71    1
    27    72    73    2
    28    63    65    1
    29    71    70    1
    30    59    60    1
    31    60    61    2
    32    66    67    1
    33    40    41    1
    34    32    31    1
    35    32    35    1
    36    43    41    1
    37    70    67    1
    38    41    42    1
    39    67    68    1
    40    68    75   am
    41    68    69    2
    42    75    76    1
    43    30    29    2
    44    22    21    2
    45    79    76    1
    46    79    80    1
    47    76    77    1
    48    29    28    1
    49    77    78    2
    50   126   125    2
    51   140   139    2
    52    82    80    1
    53    21    20    1
    54    21    27   am
    55    28    27    1
    56    80    81    1
    57    83    84    1
    58   139   138    1
    59    25    26    1
    60    25    24    1
    61    20    23    1
    62    20    19    1
    63   125   124    1
    64   125   137   am
    65   124   127    1
    66   124   123    1
    67   133   135   ar
    68   133   130   ar
    69   127   128    1
    70    23    24    1
    71   138   137    1
    72   138   141    1
    73   135   136   ar
    74    84    87    1
    75    84    85    1
    76    87    88    1
    77    95    94    1
    78    95    96    1
    79    94    93    1
    80   130   128   ar
    81   130   132   ar
    82   128   129   ar
    83    85    86    2
    84   136   134   ar
    85   141   142    1
    86    89    90    1
    87   142   143    1
    88   132   134   ar
    89   132   131   ar
    90    93    90    1
    91   129   131   ar
    92    11     9   ar
    93    11    10   ar
    94    15    14    2
    95     9     7   ar
    96    90    91    1
    97    10     8   ar
    98     4     3    2
    99   143   144    1
   100    14    13    1
   101     7     6   ar
   102   119   118    2
   103   144   145    2
   104    91    97   am
   105    91    92    2
   106     8     6   ar
   107    13    12    1
   108    13    16    1
   109     3    12   am
   110     3     2    1
   111     6     5    1
   112    97    98    1
   113   118   117    1
   114    12    18    1
   115   145   147    1
   116   145   146    1
   117     2     5    1
   118     2     1    1
   119    16    17    1
   120   117   116    1
   121   117   120    1
   122    98   101    1
   123    98    99    1
   124   101   102    1
   125   122   120    1
   126    99   100    2
   127    18    17    1
   128   108   109    1
   129   120   121    1
   130   115   113   am
   131   114   113    2
   132   113   112    1
   133   102   104   ar
   134   102   103   ar
   135   104   106   ar
   136   109   112    1
   137   109   110    1
   138   103   105   ar
   139   106   107   ar
   140   110   111    2
   141   105   107   ar
