@<TRIPOS>MOLECULE
tmp/4mlbA05.pdb
 89 84 0 0 0
SMALL
GASTEIGER

@<TRIPOS>ATOM
      1  N         57.5830  -12.5660   49.9810 N.3   135  GLU135     -0.1245
      2  CA        57.3660  -13.8680   49.3620 C.3   135  GLU135      0.1567
      3  C         56.5680  -13.7220   48.0700 C.2   135  GLU135      0.2260
      4  O         56.8380  -14.4040   47.0820 O.2   135  GLU135     -0.2867
      5  CB        56.6420  -14.8110   50.3260 C.3   135  GLU135      0.0388
      6  CG        56.4420  -16.2160   49.7800 C.3   135  GLU135      0.1160
      7  CD        55.6230  -17.0950   50.7050 C.2   135  GLU135      0.3649
      8  OE1       55.1100  -16.5780   51.7200 O.co2 135  GLU135     -0.2457
      9  OE2       55.4920  -18.3040   50.4150 O.co2 135  GLU135     -0.2457
     10  N         58.9420  -12.0470   45.2940 N.3   138  ARG138     -0.1231
     11  CA        59.9740  -12.9230   44.7460 C.3   138  ARG138      0.1694
     12  C         59.4330  -13.8320   43.6480 C.2   138  ARG138      0.2591
     13  O         60.1670  -14.2260   42.7420 O.2   138  ARG138     -0.2718
     14  CB        60.6250  -13.7630   45.8490 C.3   138  ARG138      0.0321
     15  CG        61.4220  -12.9590   46.8640 C.3   138  ARG138      0.0489
     16  CD        62.4050  -13.8380   47.6290 C.3   138  ARG138      0.2205
     17  NE        63.6460  -14.0540   46.8870 N.pl3 138  ARG138     -0.0865
     18  CZ        63.8870  -15.1060   46.1110 C.cat 138  ARG138      0.5346
     19  NH1       65.0470  -15.2110   45.4760 N.pl3 138  ARG138      0.1354
     20  NH2       62.9720  -16.0550   45.9680 N.pl3 138  ARG138      0.1354
     21  N         58.1480  -14.1630   43.7340 N.am  139  VAL139     -0.1980
     22  CA        57.5100  -15.0100   42.7350 C.3   139  VAL139      0.1595
     23  C         57.3850  -14.2870   41.3960 C.2   139  VAL139      0.2287
     24  O         57.7410  -14.8330   40.3520 O.2   139  VAL139     -0.2864
     25  CB        56.1180  -15.4840   43.1980 C.3   139  VAL139      0.0276
     26  CG1       55.4420  -16.2980   42.1060 C.3   139  VAL139      0.0022
     27  CG2       56.2360  -16.2980   44.4780 C.3   139  VAL139      0.0022
     28  N         60.7590  -13.1040   39.7540 N.3   142  ALA142     -0.1245
     29  CA        61.4410  -14.2210   39.1110 C.3   142  ALA142      0.1562
     30  C         61.0080  -14.3540   37.6570 C.2   142  ALA142      0.2260
     31  O         61.7920  -14.7570   36.7980 O.2   142  ALA142     -0.2867
     32  CB        61.1620  -15.5110   39.8610 C.3   142  ALA142      0.0290
     33  N         44.3990  -22.0280   43.4470 N.3   184  PHE184     -0.1241
     34  CA        45.6640  -21.9190   44.1640 C.3   184  PHE184      0.1605
     35  C         45.4780  -21.3150   45.5520 C.2   184  PHE184      0.2264
     36  O         46.0310  -21.8120   46.5310 O.2   184  PHE184     -0.2867
     37  CB        46.6790  -21.0980   43.3650 C.3   184  PHE184      0.0534
     38  CG        47.3420  -21.8650   42.2560 C.ar  184  PHE184     -0.0203
     39  CD1       46.8650  -23.1080   41.8700 C.ar  184  PHE184     -0.0042
     40  CD2       48.4530  -21.3520   41.6120 C.ar  184  PHE184     -0.0042
     41  CE1       47.4740  -23.8160   40.8540 C.ar  184  PHE184     -0.0003
     42  CE2       49.0680  -22.0570   40.5950 C.ar  184  PHE184     -0.0003
     43  CZ        48.5780  -23.2910   40.2160 C.ar  184  PHE184     -0.0000
     44  N         47.1930  -22.3030   49.2930 N.3   190  PHE190     -0.1241
     45  CA        48.4560  -21.5740   49.2210 C.3   190  PHE190      0.1605
     46  C         48.3280  -20.1800   49.8280 C.2   190  PHE190      0.2264
     47  O         49.3170  -19.5900   50.2610 O.2   190  PHE190     -0.2867
     48  CB        48.9470  -21.4680   47.7760 C.3   190  PHE190      0.0534
     49  CG        49.2450  -22.7930   47.1320 C.ar  190  PHE190     -0.0203
     50  CD1       49.5650  -23.9000   47.9000 C.ar  190  PHE190     -0.0042
     51  CD2       49.2060  -22.9290   45.7540 C.ar  190  PHE190     -0.0042
     52  CE1       49.8380  -25.1170   47.3060 C.ar  190  PHE190     -0.0003
     53  CE2       49.4790  -24.1430   45.1550 C.ar  190  PHE190     -0.0003
     54  CZ        49.7950  -25.2380   45.9310 C.ar  190  PHE190     -0.0000
     55  N         49.8930  -15.9770   48.4290 N.3   193  VAL193     -0.1245
     56  CA        51.0210  -16.2950   47.5610 C.3   193  VAL193      0.1561
     57  C         50.5680  -17.1810   46.3990 C.2   193  VAL193      0.2260
     58  O         51.2460  -17.2770   45.3770 O.2   193  VAL193     -0.2867
     59  CB        52.1740  -16.9720   48.3410 C.3   193  VAL193      0.0252
     60  CG1       51.8320  -18.4180   48.6600 C.3   193  VAL193      0.0019
     61  CG2       53.4730  -16.8970   47.5520 C.3   193  VAL193      0.0019
     62  N         51.4550  -17.2590   42.2130 N.3   197  TYR197     -0.1241
     63  CA        51.8070  -18.4050   41.3800 C.3   197  TYR197      0.1605
     64  C         50.8020  -18.6310   40.2570 C.2   197  TYR197      0.2264
     65  O         51.1630  -19.1060   39.1810 O.2   197  TYR197     -0.2867
     66  CB        51.9520  -19.6720   42.2270 C.3   197  TYR197      0.0534
     67  CG        53.2570  -19.7320   42.9810 C.ar  197  TYR197     -0.0201
     68  CD1       54.4470  -19.9980   42.3200 C.ar  197  TYR197     -0.0009
     69  CD2       53.3010  -19.5170   44.3510 C.ar  197  TYR197     -0.0009
     70  CE1       55.6430  -20.0480   42.9990 C.ar  197  TYR197      0.0417
     71  CE2       54.4970  -19.5660   45.0400 C.ar  197  TYR197      0.0417
     72  CZ        55.6640  -19.8340   44.3590 C.ar  197  TYR197      0.1957
     73  OH        56.8600  -19.8870   45.0370 O.3   197  TYR197     -0.2866
     74  N         51.9450  -16.2420   37.6400 N.3   200  LEU200     -0.1231
     75  CA        53.2000  -16.7150   37.0600 C.3   200  LEU200      0.1693
     76  C         53.0050  -17.8570   36.0590 C.2   200  LEU200      0.2591
     77  O         53.5510  -17.8220   34.9570 O.2   200  LEU200     -0.2718
     78  CB        54.1730  -17.1420   38.1620 C.3   200  LEU200      0.0284
     79  CG        55.5250  -17.6820   37.6930 C.3   200  LEU200      0.0019
     80  CD1       56.2620  -16.6430   36.8620 C.3   200  LEU200      0.0001
     81  CD2       56.3680  -18.1210   38.8810 C.3   200  LEU200      0.0001
     82  N         52.2290  -18.8650   36.4420 N.am  201  LEU201     -0.1980
     83  CA        51.9820  -20.0010   35.5580 C.3   201  LEU201      0.1596
     84  C         51.1900  -19.5830   34.3240 C.2   201  LEU201      0.2287
     85  O         51.4190  -20.0920   33.2260 O.2   201  LEU201     -0.2864
     86  CB        51.2590  -21.1280   36.2980 C.3   201  LEU201      0.0297
     87  CG        52.0560  -21.8350   37.3970 C.3   201  LEU201      0.0022
     88  CD1       51.2930  -23.0400   37.9270 C.3   201  LEU201      0.0001
     89  CD2       53.4280  -22.2470   36.8860 C.3   201  LEU201      0.0001
@<TRIPOS>BOND
     1    85    84    2
     2    84    83    1
     3    77    76    2
     4    83    86    1
     5    83    82    1
     6    76    82   am
     7    76    75    1
     8    86    87    1
     9    31    30    2
    10    80    79    1
    11    89    87    1
    12    75    74    1
    13    75    78    1
    14    87    88    1
    15    30    29    1
    16    79    78    1
    17    79    81    1
    18    29    28    1
    19    29    32    1
    20    65    64    2
    21    43    42   ar
    22    43    41   ar
    23    64    63    1
    24    24    23    2
    25    42    40   ar
    26    41    39   ar
    27    63    62    1
    28    63    66    1
    29    23    22    1
    30    40    38   ar
    31    39    38   ar
    32    26    25    1
    33    66    67    1
    34    38    37    1
    35    68    67   ar
    36    68    70   ar
    37    22    25    1
    38    22    21    1
    39    13    12    2
    40    67    69   ar
    41    70    72   ar
    42    25    27    1
    43    37    34    1
    44    33    34    1
    45    12    21   am
    46    12    11    1
    47    34    35    1
    48    69    71   ar
    49    72    73    1
    50    72    71   ar
    51    11    10    1
    52    11    14    1
    53    53    51   ar
    54    53    54   ar
    55    58    57    2
    56    19    18    1
    57    35    36    2
    58    51    49   ar
    59    14    15    1
    60    54    52   ar
    61    20    18    1
    62    18    17    2
    63    57    56    1
    64    15    16    1
    65    17    16    1
    66     4     3    2
    67    49    48    1
    68    49    50   ar
    69    52    50   ar
    70    61    59    1
    71    56    59    1
    72    56    55    1
    73    48    45    1
    74     3     2    1
    75    59    60    1
    76    45    44    1
    77    45    46    1
    78     2     1    1
    79     2     5    1
    80     6     5    1
    81     6     7    1
    82    46    47    2
    83     9     7   ar
    84     7     8   ar
