@<TRIPOS>MOLECULE
tmp/4mlbC15.pdb
 117 112 0 0 0
SMALL
GASTEIGER

@<TRIPOS>ATOM
      1  N         42.8370  -59.6620   33.2410 N.3   146  PHE146     -0.1227
      2  CA        42.3250  -59.8520   31.8900 C.3   146  PHE146      0.1736
      3  C         41.7580  -58.5570   31.3210 C.2   146  PHE146      0.2595
      4  O         41.9690  -58.2420   30.1490 O.2   146  PHE146     -0.2718
      5  CB        41.2530  -60.9430   31.8580 C.3   146  PHE146      0.0547
      6  CG        40.3900  -60.8990   30.6320 C.ar  146  PHE146     -0.0202
      7  CD1       39.0480  -60.5660   30.7250 C.ar  146  PHE146     -0.0042
      8  CD2       40.9250  -61.1660   29.3810 C.ar  146  PHE146     -0.0042
      9  CE1       38.2510  -60.5160   29.5940 C.ar  146  PHE146     -0.0003
     10  CE2       40.1350  -61.1160   28.2470 C.ar  146  PHE146     -0.0003
     11  CZ        38.7960  -60.7910   28.3540 C.ar  146  PHE146     -0.0000
     12  N         41.0340  -57.8150   32.1540 N.am  147  ILE147     -0.1980
     13  CA        40.4510  -56.5430   31.7420 C.3   147  ILE147      0.1595
     14  C         41.5500  -55.5610   31.3460 C.2   147  ILE147      0.2287
     15  O         41.4330  -54.8500   30.3490 O.2   147  ILE147     -0.2864
     16  CB        39.5920  -55.9280   32.8650 C.3   147  ILE147      0.0276
     17  CG1       38.4980  -56.9070   33.2960 C.3   147  ILE147      0.0022
     18  CG2       38.9800  -54.6110   32.4140 C.3   147  ILE147      0.0022
     19  CD1       37.4940  -57.2210   32.2070 C.3   147  ILE147      0.0001
     20  N         43.1590  -56.8180   28.0710 N.3   150  PHE150     -0.1241
     21  CA        42.1970  -56.6140   26.9940 C.3   150  PHE150      0.1605
     22  C         42.1410  -55.1460   26.5720 C.2   150  PHE150      0.2264
     23  O         42.0870  -54.8370   25.3820 O.2   150  PHE150     -0.2867
     24  CB        40.8060  -57.0970   27.4140 C.3   150  PHE150      0.0534
     25  CG        39.7390  -56.8440   26.3860 C.ar  150  PHE150     -0.0203
     26  CD1       39.5510  -57.7260   25.3330 C.ar  150  PHE150     -0.0042
     27  CD2       38.9200  -55.7270   26.4730 C.ar  150  PHE150     -0.0042
     28  CE1       38.5710  -57.4970   24.3840 C.ar  150  PHE150     -0.0003
     29  CE2       37.9380  -55.4940   25.5270 C.ar  150  PHE150     -0.0003
     30  CZ        37.7640  -56.3800   24.4810 C.ar  150  PHE150     -0.0000
     31  N         36.0570  -41.3690   34.4870 N.3   177  LEU177     -0.1245
     32  CA        35.1280  -42.1010   35.3370 C.3   177  LEU177      0.1561
     33  C         35.7950  -42.4500   36.6620 C.2   177  LEU177      0.2260
     34  O         35.1780  -42.3630   37.7250 O.2   177  LEU177     -0.2867
     35  CB        34.6420  -43.3710   34.6350 C.3   177  LEU177      0.0270
     36  CG        33.7040  -44.2790   35.4340 C.3   177  LEU177      0.0019
     37  CD1       32.4880  -43.5060   35.9210 C.3   177  LEU177      0.0001
     38  CD2       33.2790  -45.4770   34.5990 C.3   177  LEU177      0.0001
     39  N         34.4880  -41.7800   40.4900 N.3   181  LEU181     -0.1245
     40  CA        34.2280  -42.9230   41.3640 C.3   181  LEU181      0.1561
     41  C         35.1670  -42.9810   42.5660 C.2   181  LEU181      0.2260
     42  O         34.8080  -43.5190   43.6150 O.2   181  LEU181     -0.2867
     43  CB        34.3270  -44.2320   40.5780 C.3   181  LEU181      0.0270
     44  CG        33.3240  -44.4430   39.4430 C.3   181  LEU181      0.0019
     45  CD1       33.5370  -45.8040   38.7960 C.3   181  LEU181      0.0001
     46  CD2       31.8980  -44.3030   39.9490 C.3   181  LEU181      0.0001
     47  N         36.5040  -50.9940   38.2820 N.3   202  LEU202     -0.1245
     48  CA        35.2060  -50.7020   37.6850 C.3   202  LEU202      0.1561
     49  C         35.3440  -49.7850   36.4700 C.2   202  LEU202      0.2260
     50  O         34.6270  -49.9370   35.4810 O.2   202  LEU202     -0.2867
     51  CB        34.2700  -50.0750   38.7230 C.3   202  LEU202      0.0270
     52  CG        32.8600  -49.7180   38.2510 C.3   202  LEU202      0.0019
     53  CD1       32.1710  -50.9350   37.6520 C.3   202  LEU202      0.0001
     54  CD2       32.0410  -49.1460   39.3980 C.3   202  LEU202      0.0001
     55  N         36.6870  -51.8850   33.6060 N.3   205  VAL205     -0.1231
     56  CA        35.6250  -52.7260   33.0610 C.3   205  VAL205      0.1692
     57  C         34.7520  -51.9350   32.0930 C.2   205  VAL205      0.2591
     58  O         34.4340  -52.4070   30.9990 O.2   205  VAL205     -0.2718
     59  CB        34.7460  -53.3240   34.1810 C.3   205  VAL205      0.0266
     60  CG1       33.4990  -53.9710   33.6000 C.3   205  VAL205      0.0020
     61  CG2       35.5420  -54.3310   34.9970 C.3   205  VAL205      0.0020
     62  N         34.3750  -50.7260   32.4990 N.am  206  VAL206     -0.1980
     63  CA        33.5870  -49.8400   31.6490 C.3   206  VAL206      0.1595
     64  C         34.3390  -49.5240   30.3600 C.2   206  VAL206      0.2287
     65  O         33.7580  -49.5270   29.2740 O.2   206  VAL206     -0.2864
     66  CB        33.2220  -48.5370   32.3870 C.3   206  VAL206      0.0276
     67  CG1       32.6570  -47.5090   31.4210 C.3   206  VAL206      0.0022
     68  CG2       32.2330  -48.8270   33.5040 C.3   206  VAL206      0.0022
     69  N         36.4940  -51.4520   28.9500 N.3   208  SER208     -0.1202
     70  CA        36.4600  -52.6690   28.1450 C.3   208  SER208      0.2020
     71  C         35.1270  -52.8050   27.4200 C.2   208  SER208      0.2618
     72  O         35.0800  -53.2730   26.2850 O.2   208  SER208     -0.2717
     73  CB        36.7470  -53.9120   28.9970 C.3   208  SER208      0.2103
     74  OG        35.6850  -54.1930   29.8920 O.3   208  SER208     -0.2182
     75  N         34.0500  -52.3780   28.0740 N.am  209  LEU209     -0.1979
     76  CA        32.7270  -52.3920   27.4560 C.3   209  LEU209      0.1596
     77  C         32.6730  -51.5050   26.2120 C.2   209  LEU209      0.2287
     78  O         32.0640  -51.8750   25.2100 O.2   209  LEU209     -0.2864
     79  CB        31.6470  -51.9790   28.4590 C.3   209  LEU209      0.0297
     80  CG        31.4740  -52.8950   29.6750 C.3   209  LEU209      0.0022
     81  CD1       30.3620  -52.3910   30.5820 C.3   209  LEU209      0.0001
     82  CD2       31.2060  -54.3290   29.2430 C.3   209  LEU209      0.0001
     83  N         35.0550  -53.4020   23.6160 N.3   212  ALA212     -0.1231
     84  CA        34.3620  -54.5900   23.1300 C.3   212  ALA212      0.1694
     85  C         33.2250  -54.2030   22.1940 C.2   212  ALA212      0.2592
     86  O         32.9700  -54.8730   21.1950 O.2   212  ALA212     -0.2718
     87  CB        33.8280  -55.3990   24.2940 C.3   212  ALA212      0.0304
     88  N         32.5420  -53.1130   22.5260 N.am  213  TYR213     -0.1976
     89  CA        31.4340  -52.6350   21.7130 C.3   213  TYR213      0.1639
     90  C         31.9070  -52.1960   20.3370 C.2   213  TYR213      0.2290
     91  O         31.2590  -52.4840   19.3330 O.2   213  TYR213     -0.2864
     92  CB        30.7220  -51.4690   22.3940 C.3   213  TYR213      0.0560
     93  CG        29.7070  -50.7980   21.4990 C.ar  213  TYR213     -0.0198
     94  CD1       28.5080  -51.4230   21.1960 C.ar  213  TYR213     -0.0009
     95  CD2       29.9530  -49.5470   20.9480 C.ar  213  TYR213     -0.0009
     96  CE1       27.5780  -50.8220   20.3840 C.ar  213  TYR213      0.0417
     97  CE2       29.0300  -48.9380   20.1310 C.ar  213  TYR213      0.0417
     98  CZ        27.8450  -49.5810   19.8530 C.ar  213  TYR213      0.1957
     99  OH        26.9190  -48.9800   19.0390 O.3   213  TYR213     -0.2866
    100  N         33.4330  -55.6050   18.4900 N.3   216  PHE216     -0.1227
    101  CA        32.5890  -56.7830   18.3060 C.3   216  PHE216      0.1736
    102  C         31.1520  -56.4770   17.8810 C.2   216  PHE216      0.2595
    103  O         30.5400  -57.2510   17.1450 O.2   216  PHE216     -0.2718
    104  CB        32.5810  -57.6190   19.5890 C.3   216  PHE216      0.0547
    105  CG        33.9490  -57.9860   20.0790 C.ar  216  PHE216     -0.0202
    106  CD1       34.9250  -58.4150   19.1930 C.ar  216  PHE216     -0.0042
    107  CD2       34.2610  -57.8970   21.4270 C.ar  216  PHE216     -0.0042
    108  CE1       36.1890  -58.7540   19.6430 C.ar  216  PHE216     -0.0003
    109  CE2       35.5220  -58.2330   21.8830 C.ar  216  PHE216     -0.0003
    110  CZ        36.4870  -58.6610   20.9900 C.ar  216  PHE216     -0.0000
    111  N         30.6100  -55.3570   18.3470 N.am  217  VAL217     -0.1980
    112  CA        29.2080  -55.0340   18.0810 C.3   217  VAL217      0.1595
    113  C         29.0250  -54.0630   16.9130 C.2   217  VAL217      0.2287
    114  O         28.4050  -54.4040   15.9040 O.2   217  VAL217     -0.2864
    115  CB        28.5070  -54.4890   19.3410 C.3   217  VAL217      0.0276
    116  CG1       27.0700  -54.0890   19.0280 C.3   217  VAL217      0.0022
    117  CG2       28.5520  -55.5270   20.4560 C.3   217  VAL217      0.0022
@<TRIPOS>BOND
     1   114   113    2
     2   113   112    1
     3   103   102    2
     4   102   101    1
     5   102   111   am
     6   112   111    1
     7   112   115    1
     8   101   100    1
     9   101   104    1
    10   116   115    1
    11    99    98    1
    12   106   108   ar
    13   106   105   ar
    14    91    90    2
    15   115   117    1
    16   104   105    1
    17   108   110   ar
    18    98    97   ar
    19    98    96   ar
    20   105   107   ar
    21    97    95   ar
    22    90    89    1
    23    96    94   ar
    24    95    93   ar
    25   110   109   ar
    26    86    85    2
    27    94    93   ar
    28   107   109   ar
    29    93    92    1
    30    89    92    1
    31    89    88    1
    32    85    88   am
    33    85    84    1
    34    84    83    1
    35    84    87    1
    36    28    30   ar
    37    28    26   ar
    38    30    29   ar
    39    78    77    2
    40    26    25   ar
    41    23    22    2
    42    29    27   ar
    43    77    76    1
    44    72    71    2
    45    25    27   ar
    46    25    24    1
    47    22    21    1
    48    21    24    1
    49    21    20    1
    50    71    75   am
    51    71    70    1
    52    76    75    1
    53    76    79    1
    54    70    69    1
    55    70    73    1
    56    10    11   ar
    57    10     8   ar
    58    11     9   ar
    59    79    80    1
    60    73    74    1
    61    82    80    1
    62    65    64    2
    63     8     6   ar
    64     9     7   ar
    65    80    81    1
    66     4     3    2
    67    15    14    2
    68    64    63    1
    69     6     7   ar
    70     6     5    1
    71    58    57    2
    72     3     2    1
    73     3    12   am
    74    14    13    1
    75    67    66    1
    76    63    66    1
    77    63    62    1
    78    13    12    1
    79    13    16    1
    80     5     2    1
    81     2     1    1
    82    57    62   am
    83    57    56    1
    84    19    17    1
    85    66    68    1
    86    18    16    1
    87    16    17    1
    88    56    55    1
    89    56    59    1
    90    60    59    1
    91    59    61    1
    92    31    32    1
    93    38    36    1
    94    35    32    1
    95    35    36    1
    96    32    33    1
    97    36    37    1
    98    50    49    2
    99    49    48    1
   100    33    34    2
   101    53    52    1
   102    48    47    1
   103    48    51    1
   104    52    51    1
   105    52    54    1
   106    45    44    1
   107    44    46    1
   108    44    43    1
   109    39    40    1
   110    43    40    1
   111    40    41    1
   112    41    42    2
