@<TRIPOS>MOLECULE
tmp/4mlbD01.pdb
 79 73 0 0 0
SMALL
GASTEIGER

@<TRIPOS>ATOM
      1  N         93.8340  -43.8820   43.0640 N.3    19  VAL19      -0.1245
      2  CA        92.4940  -44.3240   42.6940 C.3    19  VAL19       0.1561
      3  C         91.4680  -43.1930   42.7320 C.2    19  VAL19       0.2260
      4  O         90.6640  -43.0400   41.8110 O.2    19  VAL19      -0.2867
      5  CB        92.0100  -45.4550   43.6250 C.3    19  VAL19       0.0252
      6  CG1       90.5870  -45.8660   43.2800 C.3    19  VAL19       0.0019
      7  CG2       92.9480  -46.6460   43.5420 C.3    19  VAL19       0.0019
      8  N         90.1320  -41.6870   38.7510 N.3    23  ILE23      -0.1245
      9  CA        88.7720  -42.0460   38.3540 C.3    23  ILE23       0.1561
     10  C         87.8370  -40.8600   38.0530 C.2    23  ILE23       0.2260
     11  O         87.1370  -40.8800   37.0380 O.2    23  ILE23      -0.2867
     12  CB        88.1400  -43.0410   39.3570 C.3    23  ILE23       0.0252
     13  CG1       88.9410  -44.3440   39.3500 C.3    23  ILE23       0.0019
     14  CG2       86.6810  -43.3000   39.0200 C.3    23  ILE23       0.0019
     15  CD1       88.4220  -45.3900   40.2880 C.3    23  ILE23       0.0001
     16  N         88.8080  -39.6840   34.7780 N.3    26  MET26      -0.1230
     17  CA        88.3870  -40.6040   33.7250 C.3    26  MET26       0.1702
     18  C         86.9590  -40.2910   33.2830 C.2    26  MET26       0.2592
     19  O         86.6340  -40.3750   32.0990 O.2    26  MET26      -0.2718
     20  CB        88.4700  -42.0560   34.2020 C.3    26  MET26       0.0401
     21  CG        89.8690  -42.5360   34.5490 C.3    26  MET26       0.0596
     22  SD        89.8900  -44.2920   34.9630 S.3    26  MET26      -0.1393
     23  CE        91.5800  -44.4920   35.5210 C.3    26  MET26       0.0692
     24  N         86.1140  -39.9360   34.2490 N.am   27  ILE27      -0.1980
     25  CA        84.7150  -39.6080   33.9920 C.3    27  ILE27       0.1595
     26  C         84.5870  -38.3180   33.1880 C.2    27  ILE27       0.2287
     27  O         83.8320  -38.2520   32.2130 O.2    27  ILE27      -0.2864
     28  CB        83.9320  -39.4380   35.3080 C.3    27  ILE27       0.0276
     29  CG1       83.9420  -40.7390   36.1100 C.3    27  ILE27       0.0022
     30  CG2       82.5060  -39.0000   35.0230 C.3    27  ILE27       0.0022
     31  CD1       83.6740  -40.5480   37.5870 C.3    27  ILE27       0.0001
     32  N         85.6780  -38.9120   29.7300 N.3    30  SER30      -0.1217
     33  CA        84.6840  -39.7210   29.0350 C.3    30  SER30       0.1889
     34  C         83.6040  -38.8530   28.3960 C.2    30  SER30       0.2288
     35  O         83.2510  -39.0480   27.2330 O.2    30  SER30      -0.2866
     36  CB        84.0440  -40.7220   29.9930 C.3    30  SER30       0.2089
     37  OG        84.9660  -41.7250   30.3550 O.3    30  SER30      -0.2183
     38  N         91.1250  -43.3540   27.4480 N.3   289  VAL289     -0.1231
     39  CA        90.5280  -42.4930   28.4710 C.3   289  VAL289      0.1678
     40  C         90.9600  -42.8350   29.9070 C.2   289  VAL289      0.2434
     41  O         91.3580  -41.9370   30.6500 O.2   289  VAL289     -0.2733
     42  CB        88.9800  -42.4220   28.3490 C.3   289  VAL289      0.0265
     43  CG1       88.3660  -41.8120   29.5980 C.3   289  VAL289      0.0020
     44  CG2       88.5800  -41.6370   27.1090 C.3   289  VAL289      0.0020
     45  N         90.8950  -44.1230   30.3040 N.am  290  PRO290     -0.2729
     46  CA        91.4000  -44.4360   31.6480 C.3   290  PRO290      0.1401
     47  C         92.8850  -44.1140   31.8030 C.2   290  PRO290      0.2269
     48  O         93.3100  -43.6900   32.8780 O.2   290  PRO290     -0.2865
     49  CB        91.1800  -45.9480   31.7600 C.3   290  PRO290      0.0296
     50  CG        90.0610  -46.2340   30.8260 C.3   290  PRO290      0.0237
     51  CD        90.2670  -45.3000   29.6740 C.3   290  PRO290      0.0939
     52  N        101.8490  -48.4280   40.9310 N.3   320  TYR320     -0.1241
     53  CA       100.4520  -48.7520   41.1920 C.3   320  TYR320      0.1605
     54  C         99.5550  -48.1960   40.0950 C.2   320  TYR320      0.2264
     55  O         98.5920  -48.8390   39.6840 O.2   320  TYR320     -0.2867
     56  CB       100.0220  -48.2000   42.5520 C.3   320  TYR320      0.0534
     57  CG        98.6970  -48.7350   43.0460 C.ar  320  TYR320     -0.0201
     58  CD1       98.5230  -50.0910   43.2880 C.ar  320  TYR320     -0.0009
     59  CD2       97.6270  -47.8850   43.2830 C.ar  320  TYR320     -0.0009
     60  CE1       97.3220  -50.5860   43.7420 C.ar  320  TYR320      0.0417
     61  CE2       96.4210  -48.3700   43.7440 C.ar  320  TYR320      0.0417
     62  CZ        96.2750  -49.7210   43.9690 C.ar  320  TYR320      0.1957
     63  OH        95.0780  -50.2130   44.4220 O.3   320  TYR320     -0.2866
     64  N         97.0750  -50.5000   37.8390 N.3   324  ILE324     -0.1245
     65  CA        95.6360  -50.3140   37.6710 C.3   324  ILE324      0.1561
     66  C         95.2680  -50.0500   36.2170 C.2   324  ILE324      0.2260
     67  O         94.3220  -50.6390   35.6950 O.2   324  ILE324     -0.2867
     68  CB        95.1000  -49.1610   38.5340 C.3   324  ILE324      0.0252
     69  CG1       95.3220  -49.4540   40.0150 C.3   324  ILE324      0.0019
     70  CG2       93.6180  -48.9450   38.2690 C.3   324  ILE324      0.0019
     71  CD1       94.5650  -48.5160   40.9170 C.3   324  ILE324      0.0001
     72  N         92.7490  -52.1950   33.8740 N.3   328  ILE328     -0.1245
     73  CA        91.6030  -51.5970   33.1980 C.3   328  ILE328      0.1561
     74  C         91.6670  -51.8300   31.6910 C.2   328  ILE328      0.2260
     75  O         90.6890  -52.2630   31.0810 O.2   328  ILE328     -0.2867
     76  CB        91.5040  -50.0830   33.4770 C.3   328  ILE328      0.0252
     77  CG1       91.2890  -49.8270   34.9700 C.3   328  ILE328      0.0019
     78  CG2       90.3750  -49.4650   32.6690 C.3   328  ILE328      0.0019
     79  CD1       91.2260  -48.3600   35.3340 C.3   328  ILE328      0.0001
@<TRIPOS>BOND
     1    44    42    1
     2    35    34    2
     3    38    39    1
     4    42    39    1
     5    42    43    1
     6    34    33    1
     7    39    40    1
     8    33    32    1
     9    33    36    1
    10    51    45    1
    11    51    50    1
    12    40    45   am
    13    40    41    2
    14    36    37    1
    15    45    46    1
    16    50    49    1
    17    75    74    2
    18    46    49    1
    19    46    47    1
    20    74    73    1
    21    47    48    2
    22    19    18    2
    23    27    26    2
    24    78    76    1
    25    26    25    1
    26    73    76    1
    27    73    72    1
    28    18    17    1
    29    18    24   am
    30    76    77    1
    31    17    20    1
    32    17    16    1
    33    25    24    1
    34    25    28    1
    35    20    21    1
    36    21    22    1
    37    22    23    1
    38    77    79    1
    39    30    28    1
    40    28    29    1
    41    67    66    2
    42    29    31    1
    43    66    65    1
    44    11    10    2
    45    65    64    1
    46    65    68    1
    47    10     9    1
    48    70    68    1
    49     9     8    1
    50     9    12    1
    51    68    69    1
    52    14    12    1
    53    13    12    1
    54    13    15    1
    55    55    54    2
    56    69    71    1
    57    54    53    1
    58    52    53    1
    59    53    56    1
    60     4     3    2
    61    56    57    1
    62     2     3    1
    63     2     1    1
    64     2     5    1
    65    57    59   ar
    66    57    58   ar
    67     6     5    1
    68    59    61   ar
    69    58    60   ar
    70     7     5    1
    71    60    62   ar
    72    61    62   ar
    73    62    63    1
