@<TRIPOS>MOLECULE
tmp/4mlhA01.pdb
 171 164 0 0 0
SMALL
GASTEIGER

@<TRIPOS>ATOM
      1  N         32.6770   12.0190   55.6080 N.3    48  TYR48      -0.1227
      2  CA        33.2830   13.3160   55.3240 C.3    48  TYR48       0.1736
      3  C         34.2410   13.8410   56.3780 C.2    48  TYR48       0.2595
      4  O         34.7080   14.9670   56.2740 O.2    48  TYR48      -0.2718
      5  CB        32.2030   14.3540   55.0180 C.3    48  TYR48       0.0548
      6  CG        31.6570   14.1820   53.6230 C.ar   48  TYR48      -0.0200
      7  CD1       32.3150   14.7370   52.5310 C.ar   48  TYR48      -0.0009
      8  CD2       30.5350   13.4000   53.3870 C.ar   48  TYR48      -0.0009
      9  CE1       31.8780   14.5120   51.2410 C.ar   48  TYR48       0.0417
     10  CE2       30.0860   13.1690   52.1030 C.ar   48  TYR48       0.0417
     11  CZ        30.7630   13.7240   51.0300 C.ar   48  TYR48       0.1957
     12  OH        30.3430   13.4640   49.7400 O.3    48  TYR48      -0.2866
     13  N         34.5490   13.0260   57.3800 N.am   49  VAL49      -0.1966
     14  CA        35.6750   13.3220   58.2520 C.3    49  VAL49       0.1727
     15  C         36.9660   12.8650   57.5760 C.2    49  VAL49       0.2616
     16  O         37.1320   11.6910   57.2490 O.2    49  VAL49      -0.2715
     17  CB        35.5400   12.6010   59.6050 C.3    49  VAL49       0.0290
     18  CG1       36.7890   12.8410   60.4400 C.3    49  VAL49       0.0023
     19  CG2       34.3100   13.1040   60.3420 C.3    49  VAL49       0.0023
     20  N         37.8870   13.7900   57.3610 N.am   50  ARG50      -0.1963
     21  CA        38.9690   13.5080   56.4430 C.3    50  ARG50       0.1729
     22  C         40.3450   13.5360   57.0500 C.2    50  ARG50       0.2616
     23  O         40.5750   14.1280   58.0960 O.2    50  ARG50      -0.2715
     24  CB        38.9070   14.4640   55.2580 C.3    50  ARG50       0.0348
     25  CG        37.5910   14.3770   54.5150 C.3    50  ARG50       0.0492
     26  CD        37.2350   15.6960   53.8540 C.3    50  ARG50       0.2205
     27  NE        37.1590   15.5700   52.4000 N.pl3  50  ARG50      -0.0865
     28  CZ        38.0970   15.0070   51.6390 C.cat  50  ARG50       0.5346
     29  NH1       39.2070   14.5040   52.1810 N.pl3  50  ARG50       0.1354
     30  NH2       37.9210   14.9510   50.3260 N.pl3  50  ARG50       0.1354
     31  N         41.2590   12.8900   56.3400 N.am   51  SER51      -0.1950
     32  CA        42.5730   12.5200   56.8370 C.3    51  SER51       0.1924
     33  C         43.2470   13.6810   57.5250 C.2    51  SER51       0.2314
     34  O         43.2540   13.7650   58.7530 O.2    51  SER51      -0.2863
     35  CB        43.4450   12.0450   55.6760 C.3    51  SER51       0.2116
     36  OG        44.6620   11.4970   56.1450 O.3    51  SER51      -0.2180
     37  N         43.1420   17.0840   58.8110 N.3    53  PRO53      -0.2116
     38  CA        42.3060   18.2470   59.1080 C.3    53  PRO53       0.1372
     39  C         43.0670   19.5450   58.8270 C.2    53  PRO53       0.2244
     40  O         44.3040   19.5690   58.8490 O.2    53  PRO53      -0.2868
     41  CB        41.9610   18.0730   60.5890 C.3    53  PRO53       0.0268
     42  CG        43.0710   17.2490   61.1380 C.3    53  PRO53       0.0207
     43  CD        43.5040   16.3350   60.0260 C.3    53  PRO53       0.0892
     44  N         44.1250   18.6900   69.6450 N.3    85  GLN85      -0.1245
     45  CA        43.1390   19.1560   70.6070 C.3    85  GLN85       0.1566
     46  C         43.0490   18.2290   71.8170 C.2    85  GLN85       0.2260
     47  O         43.2060   17.0100   71.6960 O.2    85  GLN85      -0.2867
     48  CB        41.7650   19.2460   69.9380 C.3    85  GLN85       0.0367
     49  CG        41.7690   19.9910   68.6120 C.3    85  GLN85       0.0905
     50  CD        40.9270   19.3020   67.5330 C.2    85  GLN85       0.2608
     51  OE1       41.4090   19.0430   66.4200 O.2    85  GLN85      -0.2717
     52  NE2       39.6670   19.0080   67.8550 N.am   85  GLN85      -0.0878
     53  N         29.9850   17.1520   55.8810 N.3   146  ILE146     -0.1245
     54  CA        30.2000   16.8770   57.2870 C.3   146  ILE146      0.1561
     55  C         29.0100   17.3080   58.1360 C.2   146  ILE146      0.2260
     56  O         28.8910   16.9110   59.2960 O.2   146  ILE146     -0.2867
     57  CB        31.4220   17.6080   57.8070 C.3   146  ILE146      0.0252
     58  CG1       32.0750   16.7740   58.9010 C.3   146  ILE146      0.0019
     59  CG2       31.0110   18.9560   58.3770 C.3   146  ILE146      0.0019
     60  CD1       32.4480   15.3910   58.4290 C.3   146  ILE146      0.0001
     61  N         36.1570    6.9230   67.2790 N.3   197  MET197     -0.1230
     62  CA        37.4910    6.8750   66.7010 C.3   197  MET197      0.1702
     63  C         38.2330    8.1940   66.9680 C.2   197  MET197      0.2592
     64  O         39.4160    8.1920   67.3570 O.2   197  MET197     -0.2718
     65  CB        37.3850    6.6200   65.1990 C.3   197  MET197      0.0401
     66  CG        38.6790    6.7950   64.4420 C.3   197  MET197      0.0596
     67  SD        38.3730    6.5770   62.6960 S.3   197  MET197     -0.1393
     68  CE        38.4190    8.2950   62.1060 C.3   197  MET197      0.0692
     69  N         37.5230    9.3090   66.7740 N.am  198  ILE198     -0.1980
     70  CA        38.1120   10.6340   66.8950 C.3   198  ILE198      0.1595
     71  C         38.4930   10.9370   68.3300 C.2   198  ILE198      0.2287
     72  O         39.5600   11.4920   68.6080 O.2   198  ILE198     -0.2864
     73  CB        37.1430   11.7230   66.3830 C.3   198  ILE198      0.0276
     74  CG1       37.1010   11.7010   64.8510 C.3   198  ILE198      0.0022
     75  CG2       37.5740   13.0970   66.8850 C.3   198  ILE198      0.0022
     76  CD1       38.4450   11.9660   64.1940 C.3   198  ILE198      0.0001
     77  N         41.8310    8.9690   68.6810 N.3   201  TYR201     -0.1227
     78  CA        42.9640    9.4600   67.8940 C.3   201  TYR201      0.1736
     79  C         43.8600   10.3990   68.7120 C.2   201  TYR201      0.2595
     80  O         45.0890   10.3220   68.6360 O.2   201  TYR201     -0.2718
     81  CB        42.4530   10.1950   66.6390 C.3   201  TYR201      0.0548
     82  CG        43.5360   10.9090   65.8510 C.ar  201  TYR201     -0.0200
     83  CD1       43.9560   10.4290   64.6160 C.ar  201  TYR201     -0.0009
     84  CD2       44.1900   12.0240   66.3790 C.ar  201  TYR201     -0.0009
     85  CE1       44.9960   11.0280   63.9400 C.ar  201  TYR201      0.0417
     86  CE2       45.2300   12.6260   65.7160 C.ar  201  TYR201      0.0417
     87  CZ        45.6330   12.1260   64.4990 C.ar  201  TYR201      0.1957
     88  OH        46.7020   12.7120   63.8550 O.3   201  TYR201     -0.2866
     89  N         43.2510   11.2950   69.4810 N.am  202  TYR202     -0.1976
     90  CA        44.0260   12.3000   70.2000 C.3   202  TYR202      0.1639
     91  C         44.8640   11.6390   71.2980 C.2   202  TYR202      0.2290
     92  O         45.9300   12.1250   71.6760 O.2   202  TYR202     -0.2864
     93  CB        43.0840   13.3720   70.7790 C.3   202  TYR202      0.0560
     94  CG        42.7550   13.2270   72.2500 C.ar  202  TYR202     -0.0198
     95  CD1       43.0240   14.2590   73.1420 C.ar  202  TYR202     -0.0009
     96  CD2       42.1740   12.0610   72.7480 C.ar  202  TYR202     -0.0009
     97  CE1       42.7260   14.1360   74.4920 C.ar  202  TYR202      0.0417
     98  CE2       41.8730   11.9240   74.0950 C.ar  202  TYR202      0.0417
     99  CZ        42.1510   12.9650   74.9650 C.ar  202  TYR202      0.1957
    100  OH        41.8620   12.8350   76.3110 O.3   202  TYR202     -0.2866
    101  N         47.4770    8.4990   68.1510 N.3   205  HIS205     -0.1241
    102  CA        47.3900    8.9820   66.7700 C.3   205  HIS205      0.1621
    103  C         47.1650    7.8500   65.7760 C.2   205  HIS205      0.2264
    104  O         46.7020    8.0740   64.6560 O.2   205  HIS205     -0.2867
    105  CB        48.6670    9.7340   66.3850 C.3   205  HIS205      0.0745
    106  CG        48.6160   11.2010   66.6730 C.ar  205  HIS205      0.0817
    107  ND1       48.4150   11.7050   67.9410 N.ar  205  HIS205     -0.2268
    108  CD2       48.7480   12.2730   65.8580 C.ar  205  HIS205      0.1154
    109  CE1       48.4260   13.0250   67.8940 C.ar  205  HIS205      0.1986
    110  NE2       48.6260   13.3950   66.6420 N.ar  205  HIS205     -0.2212
    111  N         45.0680    5.4840   66.1730 N.3   207  CYS207     -0.1221
    112  CA        43.6890    5.0280   66.2660 C.3   207  CYS207      0.1808
    113  C         42.9630    5.3580   64.9700 C.2   207  CYS207      0.2601
    114  O         42.7010    6.5220   64.6730 O.2   207  CYS207     -0.2717
    115  CB        42.9840    5.7010   67.4430 C.3   207  CYS207      0.0970
    116  SG        41.4190    4.9140   67.9010 S.3   207  CYS207     -0.0800
    117  N         42.6460    4.3290   64.1920 N.am  208  GLU208     -0.1979
    118  CA        42.0740    4.5410   62.8710 C.3   208  GLU208      0.1602
    119  C         40.8050    3.7270   62.6470 C.2   208  GLU208      0.2287
    120  O         40.2860    3.6600   61.5260 O.2   208  GLU208     -0.2864
    121  CB        43.1100    4.2170   61.7940 C.3   208  GLU208      0.0415
    122  CG        44.2560    5.2180   61.7510 C.3   208  GLU208      0.1163
    123  CD        44.7720    5.4570   60.3450 C.2   208  GLU208      0.3649
    124  OE1       45.4780    4.5740   59.8260 O.co2 208  GLU208     -0.2457
    125  OE2       44.4780    6.5230   59.7580 O.co2 208  GLU208     -0.2457
    126  N         39.4880    4.4000   58.6020 N.3   222  MET222     -0.1245
    127  CA        40.0080    5.3770   57.6550 C.3   222  MET222      0.1570
    128  C         40.4070    4.6860   56.3690 C.2   222  MET222      0.2261
    129  O         41.1980    3.7440   56.3800 O.2   222  MET222     -0.2867
    130  CB        41.2070    6.1170   58.2410 C.3   222  MET222      0.0387
    131  CG        40.8280    7.1350   59.2890 C.3   222  MET222      0.0595
    132  SD        39.4780    8.2230   58.7470 S.3   222  MET222     -0.1393
    133  CE        40.2800    9.8540   58.9020 C.3   222  MET222      0.0692
    134  N         42.7700   10.3880   53.2650 N.3   237  ARG237     -0.1245
    135  CA        41.8360    9.3550   53.6810 C.3   237  ARG237      0.1563
    136  C         40.5350    9.9330   54.2260 C.2   237  ARG237      0.2260
    137  O         40.5380   10.9210   54.9440 O.2   237  ARG237     -0.2867
    138  CB        42.5000    8.4650   54.7310 C.3   237  ARG237      0.0307
    139  CG        43.7990    7.8690   54.2390 C.3   237  ARG237      0.0489
    140  CD        44.7680    7.6310   55.3720 C.3   237  ARG237      0.2205
    141  NE        44.6340    6.2860   55.9050 N.pl3 237  ARG237     -0.0865
    142  CZ        45.4050    5.7860   56.8610 C.cat 237  ARG237      0.5346
    143  NH1       46.3700    6.5280   57.3870 N.pl3 237  ARG237      0.1354
    144  NH2       45.2030    4.5440   57.2900 N.pl3 237  ARG237      0.1354
    145  N         35.2370   17.3330   69.0470 N.3   438  LEU438     -0.1231
    146  CA        36.5140   17.3950   68.3470 C.3   438  LEU438      0.1693
    147  C         36.3160   17.6060   66.8500 C.2   438  LEU438      0.2591
    148  O         37.0720   18.3420   66.2130 O.2   438  LEU438     -0.2718
    149  CB        37.3050   16.1020   68.5700 C.3   438  LEU438      0.0284
    150  CG        38.0060   15.9170   69.9130 C.3   438  LEU438      0.0019
    151  CD1       38.5190   14.4940   70.0070 C.3   438  LEU438      0.0001
    152  CD2       39.1500   16.9190   70.0520 C.3   438  LEU438      0.0001
    153  N         35.3020   16.9470   66.2970 N.am  439  VAL439     -0.1980
    154  CA        35.0140   17.0130   64.8670 C.3   439  VAL439      0.1595
    155  C         34.3320   18.3350   64.5170 C.2   439  VAL439      0.2287
    156  O         34.5520   18.8900   63.4450 O.2   439  VAL439     -0.2864
    157  CB        34.1140   15.8080   64.4320 C.3   439  VAL439      0.0276
    158  CG1       33.5290   16.0360   63.0410 C.3   439  VAL439      0.0022
    159  CG2       34.9370   14.5340   64.4420 C.3   439  VAL439      0.0022
    160  N         36.6990   21.3170   64.2390 N.3   442  VAL442     -0.1231
    161  CA        37.4340   21.4560   62.9960 C.3   442  VAL442      0.1692
    162  C         36.4950   21.7790   61.8510 C.2   442  VAL442      0.2591
    163  O         36.8830   22.3990   60.8630 O.2   442  VAL442     -0.2718
    164  CB        38.2190   20.1790   62.6870 C.3   442  VAL442      0.0266
    165  CG1       38.9000   20.2850   61.3330 C.3   442  VAL442      0.0020
    166  CG2       39.2480   19.9520   63.7830 C.3   442  VAL442      0.0020
    167  N         35.2460   21.3630   61.9920 N.am  443  ALA443     -0.1980
    168  CA        34.2190   21.7340   61.0320 C.3   443  ALA443      0.1597
    169  C         33.9370   23.2140   61.2040 C.2   443  ALA443      0.2287
    170  O         33.5890   23.9050   60.2500 O.2   443  ALA443     -0.2864
    171  CB        32.9520   20.9260   61.2800 C.3   443  ALA443      0.0319
@<TRIPOS>BOND
     1    12    11    1
     2    30    28    1
     3    11     9   ar
     4    11    10   ar
     5     9     7   ar
     6    28    29    1
     7    28    27    2
     8    10     8   ar
     9    27    26    1
    10     7     6   ar
    11   134   135    1
    12     8     6   ar
    13     6     5    1
    14   135   136    1
    15   135   138    1
    16    26    25    1
    17   136   137    2
    18   139   138    1
    19   139   140    1
    20    25    24    1
    21     5     2    1
    22    24    21    1
    23     2     1    1
    24     2     3    1
    25   140   141    1
    26    35    36    1
    27    35    32    1
    28    53    54    1
    29   141   142    2
    30     4     3    2
    31    31    32    1
    32    31    22   am
    33   128   129    2
    34   128   127    1
    35     3    13   am
    36    21    22    1
    37    21    20    1
    38    32    33    1
    39   142   144    1
    40   142   143    1
    41    22    23    2
    42    16    15    2
    43    54    57    1
    44    54    55    1
    45    20    15   am
    46    13    14    1
    47    33    34    2
    48    15    14    1
    49   127   130    1
    50   127   126    1
    51    57    59    1
    52    57    58    1
    53    55    56    2
    54   130   131    1
    55    14    17    1
    56    60    58    1
    57   132   133    1
    58   132   131    1
    59    37    38    1
    60    37    43    1
    61    39    40    2
    62    39    38    1
    63    38    41    1
    64    17    19    1
    65    17    18    1
    66   125   123   ar
    67   124   123   ar
    68    43    42    1
    69   170   169    2
    70   123   122    1
    71    41    42    1
    72   163   162    2
    73   168   169    1
    74   168   171    1
    75   168   167    1
    76   165   164    1
    77   120   119    2
    78   122   121    1
    79   121   118    1
    80   162   167   am
    81   162   161    1
    82    68    67    1
    83   119   118    1
    84   164   161    1
    85   164   166    1
    86    67    66    1
    87   118   117    1
    88   161   160    1
    89   158   157    1
    90   156   155    2
    91    88    87    1
    92    85    87   ar
    93    85    83   ar
    94   117   113   am
    95    76    74    1
    96   157   159    1
    97   157   154    1
    98    66    65    1
    99    87    86   ar
   100   155   154    1
   101    83    82   ar
   102   104   103    2
   103   114   113    2
   104    74    73    1
   105   154   153    1
   106   113   112    1
   107    65    62    1
   108    86    84   ar
   109   103   102    1
   110    82    84   ar
   111    82    81    1
   112   108   110   ar
   113   108   106   ar
   114   111   112    1
   115   148   147    2
   116   112   115    1
   117   153   147   am
   118    73    75    1
   119    73    70    1
   120   105   106    1
   121   105   102    1
   122    51    50    2
   123    81    78    1
   124   110   109   ar
   125   106   107   ar
   126    62    63    1
   127    62    61    1
   128   102   101    1
   129    69    70    1
   130    69    63   am
   131   147   146    1
   132    70    71    1
   133    63    64    2
   134   115   116    1
   135    50    52   am
   136    50    49    1
   137    78    77    1
   138    78    79    1
   139   109   107   ar
   140    71    72    2
   141   146   149    1
   142   146   145    1
   143   149   150    1
   144    49    48    1
   145    80    79    2
   146    79    89   am
   147    89    90    1
   148    44    45    1
   149   150   151    1
   150   150   152    1
   151    48    45    1
   152    90    93    1
   153    90    91    1
   154    45    46    1
   155    93    94    1
   156    91    92    2
   157    47    46    2
   158    94    96   ar
   159    94    95   ar
   160    96    98   ar
   161    95    97   ar
   162    98    99   ar
   163    97    99   ar
   164    99   100    1
