@<TRIPOS>MOLECULE
tmp/4mliB00.pdb
 160 154 0 0 0
SMALL
GASTEIGER

@<TRIPOS>ATOM
      1  N         61.5580   13.9460   93.3990 N.3     4  THR4       -0.1203
      2  CA        61.5850   15.3790   93.1180 C.3     4  THR4        0.1994
      3  C         62.0070   15.6420   91.6760 C.2     4  THR4        0.2618
      4  O         63.0450   15.1560   91.2260 O.2     4  THR4       -0.2717
      5  CB        62.5390   16.1280   94.0690 C.3     4  THR4        0.1784
      6  OG1       62.0260   16.0710   95.4050 O.3     4  THR4       -0.2211
      7  CG2       62.6760   17.5850   93.6500 C.3     4  THR4        0.0376
      8  N         61.1960   16.4110   90.9550 N.am    5  HIS5       -0.1961
      9  CA        61.4830   16.7260   89.5610 C.3     5  HIS5        0.1787
     10  C         62.6120   17.7440   89.4480 C.2     5  HIS5        0.2620
     11  O         62.4430   18.9160   89.7840 O.2     5  HIS5       -0.2715
     12  CB        60.2290   17.2520   88.8540 C.3     5  HIS5        0.0785
     13  CG        60.4030   17.4550   87.3800 C.ar    5  HIS5        0.0821
     14  ND1       59.4120   17.9790   86.5790 N.ar    5  HIS5       -0.2267
     15  CD2       61.4510   17.1960   86.5600 C.ar    5  HIS5        0.1154
     16  CE1       59.8430   18.0400   85.3310 C.ar    5  HIS5        0.1986
     17  NE2       61.0760   17.5710   85.2930 N.ar    5  HIS5       -0.2212
     18  N         63.7620   17.2830   88.9700 N.am    6  ILE6       -0.1963
     19  CA        64.9070   18.1510   88.7340 C.3     6  ILE6        0.1727
     20  C         65.0400   18.4580   87.2490 C.2     6  ILE6        0.2616
     21  O         64.9620   17.5600   86.4110 O.2     6  ILE6       -0.2715
     22  CB        66.2150   17.5160   89.2400 C.3     6  ILE6        0.0290
     23  CG1       66.0990   17.1690   90.7230 C.3     6  ILE6        0.0022
     24  CG2       67.3920   18.4480   89.0030 C.3     6  ILE6        0.0023
     25  CD1       65.8660   18.3640   91.6010 C.3     6  ILE6        0.0001
     26  N         65.2350   19.7320   86.9260 N.am    7  LYS7       -0.1963
     27  CA        65.4190   20.1480   85.5430 C.3     7  LYS7        0.1728
     28  C         66.8360   20.6710   85.3390 C.2     7  LYS7        0.2616
     29  O         67.2230   21.6800   85.9270 O.2     7  LYS7       -0.2715
     30  CB        64.3870   21.2110   85.1680 C.3     7  LYS7        0.0311
     31  CG        62.9590   20.8030   85.4970 C.3     7  LYS7        0.0038
     32  CD        62.0000   21.9820   85.4340 C.3     7  LYS7        0.0206
     33  CE        61.8550   22.5030   84.0180 C.3     7  LYS7        0.1093
     34  NZ        61.3480   21.4550   83.0950 N.3     7  LYS7       -0.1314
     35  N         67.6080   19.9770   84.5080 N.am    8  PHE8       -0.1960
     36  CA        69.0040   20.3330   84.2800 C.3     8  PHE8        0.1771
     37  C         69.2040   21.0460   82.9440 C.2     8  PHE8        0.2620
     38  O         68.6990   20.6040   81.9090 O.2     8  PHE8       -0.2715
     39  CB        69.8860   19.0820   84.3450 C.3     8  PHE8        0.0574
     40  CG        71.3330   19.3410   84.0300 C.ar    8  PHE8       -0.0200
     41  CD1       72.1820   19.8670   84.9890 C.ar    8  PHE8       -0.0042
     42  CD2       71.8430   19.0580   82.7730 C.ar    8  PHE8       -0.0042
     43  CE1       73.5130   20.1080   84.7000 C.ar    8  PHE8       -0.0003
     44  CE2       73.1710   19.2970   82.4780 C.ar    8  PHE8       -0.0003
     45  CZ        74.0070   19.8240   83.4450 C.ar    8  PHE8       -0.0000
     46  N         69.9420   22.1520   82.9780 N.am    9  SER9       -0.1936
     47  CA        70.2780   22.8960   81.7670 C.3     9  SER9        0.2055
     48  C         71.7850   23.0160   81.5670 C.2     9  SER9        0.2643
     49  O         72.5020   23.4620   82.4660 O.2     9  SER9       -0.2714
     50  CB        69.6600   24.3000   81.8010 C.3     9  SER9        0.2130
     51  OG        68.3450   24.2960   81.2850 O.3     9  SER9       -0.2179
     52  N         72.2540   22.6070   80.3900 N.am   10  LYS10      -0.1963
     53  CA        73.6210   22.8870   79.9640 C.3    10  LYS10       0.1728
     54  C         73.5950   24.0530   78.9880 C.2    10  LYS10       0.2616
     55  O         73.0190   23.9480   77.9040 O.2    10  LYS10      -0.2715
     56  CB        74.2620   21.6660   79.3080 C.3    10  LYS10       0.0311
     57  CG        75.7640   21.8060   79.0700 C.3    10  LYS10       0.0038
     58  CD        76.5200   21.8790   80.3920 C.3    10  LYS10       0.0206
     59  CE        78.0370   21.8190   80.1880 C.3    10  LYS10       0.1093
     60  NZ        78.6170   23.1170   79.8560 N.3    10  LYS10      -0.1314
     61  N         74.2180   25.1630   79.3670 N.am   11  ARG11      -0.1977
     62  CA        74.1390   26.3750   78.5630 C.3    11  ARG11       0.1597
     63  C         75.5010   27.0000   78.3030 C.2    11  ARG11       0.2287
     64  O         76.4690   26.7210   79.0090 O.2    11  ARG11      -0.2864
     65  CB        73.2300   27.3960   79.2480 C.3    11  ARG11       0.0334
     66  CG        71.7730   26.9850   79.3010 C.3    11  ARG11       0.0492
     67  CD        70.9840   27.8640   80.2540 C.3    11  ARG11       0.2205
     68  NE        69.5740   27.4920   80.2810 N.pl3  11  ARG11      -0.0865
     69  CZ        68.7100   27.8930   81.2070 C.cat  11  ARG11       0.5346
     70  NH1       69.1120   28.6790   82.1980 N.pl3  11  ARG11       0.1354
     71  NH2       67.4460   27.5010   81.1450 N.pl3  11  ARG11       0.1354
     72  N         77.5840   14.3030   79.8150 N.3    23  MET23      -0.1245
     73  CA        77.2690   14.5220   81.2200 C.3    23  MET23       0.1570
     74  C         77.0640   13.2320   82.0050 C.2    23  MET23       0.2261
     75  O         76.6950   12.1980   81.4460 O.2    23  MET23      -0.2867
     76  CB        76.0090   15.3800   81.3460 C.3    23  MET23       0.0387
     77  CG        76.1180   16.7740   80.7590 C.3    23  MET23       0.0595
     78  SD        77.2110   17.8300   81.7220 S.3    23  MET23      -0.1393
     79  CE        76.6100   17.5220   83.3790 C.3    23  MET23       0.0692
     80  N         66.4180   21.1660   77.8540 N.3    42  VAL42      -0.1245
     81  CA        66.4630   20.9150   79.2870 C.3    42  VAL42       0.1561
     82  C         66.3500   19.4100   79.5210 C.2    42  VAL42       0.2260
     83  O         65.5880   18.7250   78.8390 O.2    42  VAL42      -0.2867
     84  CB        65.3330   21.6590   80.0310 C.3    42  VAL42       0.0252
     85  CG1       65.3920   21.3800   81.5260 C.3    42  VAL42       0.0019
     86  CG2       65.4230   23.1540   79.7650 C.3    42  VAL42       0.0019
     87  N         76.1820   16.4870   89.4970 N.3    54  PHE54      -0.1241
     88  CA        76.3030   16.5970   88.0480 C.3    54  PHE54       0.1605
     89  C         77.7690   16.7640   87.6640 C.2    54  PHE54       0.2264
     90  O         78.4320   17.6950   88.1190 O.2    54  PHE54      -0.2867
     91  CB        75.4890   17.7770   87.5110 C.3    54  PHE54       0.0534
     92  CG        74.0180   17.5030   87.3930 C.ar   54  PHE54      -0.0203
     93  CD1       73.5320   16.6790   86.3910 C.ar   54  PHE54      -0.0042
     94  CD2       73.1190   18.0850   88.2700 C.ar   54  PHE54      -0.0042
     95  CE1       72.1800   16.4280   86.2730 C.ar   54  PHE54      -0.0003
     96  CE2       71.7620   17.8390   88.1580 C.ar   54  PHE54      -0.0003
     97  CZ        71.2920   17.0110   87.1590 C.ar   54  PHE54      -0.0000
     98  N         80.4960   16.9410   84.3560 N.3    56  GLU56      -0.1245
     99  CA        80.7660   16.9970   82.9290 C.3    56  GLU56       0.1567
    100  C         82.0730   16.2800   82.6200 C.2    56  GLU56       0.2260
    101  O         83.1070   16.5680   83.2220 O.2    56  GLU56      -0.2867
    102  CB        80.8240   18.4390   82.4360 C.3    56  GLU56       0.0388
    103  CG        81.1240   18.5430   80.9590 C.3    56  GLU56       0.1160
    104  CD        81.0870   19.9640   80.4570 C.2    56  GLU56       0.3649
    105  OE1       81.1790   20.8950   81.2830 O.co2  56  GLU56      -0.2457
    106  OE2       80.9620   20.1440   79.2310 O.co2  56  GLU56      -0.2457
    107  N         83.0100   22.3970   82.8900 N.3    66  ALA66      -0.1231
    108  CA        82.5500   23.1240   84.0630 C.3    66  ALA66       0.1694
    109  C         82.7950   22.3310   85.3370 C.2    66  ALA66       0.2593
    110  O         82.8610   21.1010   85.3140 O.2    66  ALA66      -0.2718
    111  CB        81.0770   23.4620   83.9290 C.3    66  ALA66       0.0304
    112  N         82.9350   23.0510   86.4440 N.am   67  THR67      -0.1939
    113  CA        83.0800   22.4380   87.7550 C.3    67  THR67       0.2028
    114  C         81.8480   21.5990   88.0790 C.2    67  THR67       0.2642
    115  O         80.7220   22.0090   87.7980 O.2    67  THR67      -0.2714
    116  CB        83.2930   23.5080   88.8470 C.3    67  THR67       0.1808
    117  OG1       84.5100   24.2190   88.5860 O.3    67  THR67      -0.2208
    118  CG2       83.3690   22.8750   90.2270 C.3    67  THR67       0.0379
    119  N         82.0670   20.4170   88.6470 N.am   68  ALA68      -0.1963
    120  CA        80.9700   19.5370   89.0330 C.3    68  ALA68       0.1728
    121  C         80.0490   20.2300   90.0280 C.2    68  ALA68       0.2616
    122  O         80.4930   21.0490   90.8320 O.2    68  ALA68      -0.2715
    123  CB        81.5050   18.2410   89.6190 C.3    68  ALA68       0.0334
    124  N         78.7630   19.9030   89.9650 N.am   69  ILE69      -0.1977
    125  CA        77.7790   20.5370   90.8310 C.3    69  ILE69       0.1596
    126  C         77.1270   19.5240   91.7660 C.2    69  ILE69       0.2287
    127  O         76.4070   18.6270   91.3240 O.2    69  ILE69      -0.2864
    128  CB        76.6890   21.2490   90.0110 C.3    69  ILE69       0.0276
    129  CG1       77.3100   22.3440   89.1400 C.3    69  ILE69       0.0022
    130  CG2       75.6320   21.8310   90.9300 C.3    69  ILE69       0.0022
    131  CD1       76.3170   23.0510   88.2450 C.3    69  ILE69       0.0001
    132  N         74.5300   18.6850   94.8450 N.3    71  PHE71      -0.1241
    133  CA        73.3080   19.2010   95.4420 C.3    71  PHE71       0.1605
    134  C         72.6310   18.1530   96.3160 C.2    71  PHE71       0.2264
    135  O         72.9420   16.9650   96.2370 O.2    71  PHE71      -0.2867
    136  CB        72.3470   19.6900   94.3550 C.3    71  PHE71       0.0534
    137  CG        71.8470   18.6030   93.4420 C.ar   71  PHE71      -0.0203
    138  CD1       72.6300   18.1420   92.3950 C.ar   71  PHE71      -0.0042
    139  CD2       70.5870   18.0540   93.6210 C.ar   71  PHE71      -0.0042
    140  CE1       72.1680   17.1500   91.5500 C.ar   71  PHE71      -0.0003
    141  CE2       70.1200   17.0610   92.7800 C.ar   71  PHE71      -0.0003
    142  CZ        70.9120   16.6090   91.7430 C.ar   71  PHE71      -0.0000
    143  N         61.2880   17.7470   99.3240 N.3    77  GLY77      -0.1225
    144  CA        61.4150   18.0520   97.9110 C.3    77  GLY77       0.1811
    145  C         62.1880   19.3240   97.6220 C.2    77  GLY77       0.2280
    146  O         62.2160   19.8010   96.4880 O.2    77  GLY77      -0.2866
    147  N         65.5820   21.6360   97.1760 N.3    79  VAL79      -0.1245
    148  CA        66.9150   21.4180   96.6280 C.3    79  VAL79       0.1561
    149  C         67.9120   22.4610   97.1160 C.2    79  VAL79       0.2260
    150  O         67.7060   23.6660   96.9560 O.2    79  VAL79      -0.2867
    151  CB        66.9010   21.4320   95.0930 C.3    79  VAL79       0.0252
    152  CG1       68.3000   21.1830   94.5460 C.3    79  VAL79       0.0019
    153  CG2       65.9330   20.3900   94.5760 C.3    79  VAL79       0.0019
    154  N         71.8390   23.5540   96.7210 N.3    81  VAL81      -0.1245
    155  CA        73.1120   23.4080   96.0360 C.3    81  VAL81       0.1561
    156  C         74.1800   23.2450   97.1040 C.2    81  VAL81       0.2260
    157  O         74.5330   24.1830   97.8240 O.2    81  VAL81      -0.2867
    158  CB        73.4160   24.5850   95.1190 C.3    81  VAL81       0.0252
    159  CG1       74.7980   24.4220   94.5070 C.3    81  VAL81       0.0019
    160  CG2       72.3510   24.6690   94.0390 C.3    81  VAL81       0.0019
@<TRIPOS>BOND
     1    80    81    1
     2    55    54    2
     3    63    62    1
     4    63    64    2
     5    62    65    1
     6    62    61    1
     7    83    82    2
     8    54    61   am
     9    54    53    1
    10    57    56    1
    11    57    58    1
    12   106   104   ar
    13    65    66    1
    14    81    82    1
    15    81    84    1
    16    66    67    1
    17    56    53    1
    18    86    84    1
    19    72    73    1
    20    60    59    1
    21    53    52    1
    22    84    85    1
    23    59    58    1
    24    67    68    1
    25    68    69    2
    26    52    48   am
    27   104   103    1
    28   104   105   ar
    29    77    76    1
    30    77    78    1
    31   103   102    1
    32    71    69    1
    33    69    70    1
    34    73    76    1
    35    73    74    1
    36    51    50    1
    37    75    74    2
    38    48    47    1
    39    48    49    2
    40    78    79    1
    41    47    50    1
    42    47    46    1
    43    38    37    2
    44   102    99    1
    45    44    42   ar
    46    44    45   ar
    47   100    99    1
    48   100   101    2
    49    42    40   ar
    50   107   108    1
    51    99    98    1
    52    37    46   am
    53    37    36    1
    54    34    33    1
    55    45    43   ar
    56   111   108    1
    57    33    32    1
    58    40    39    1
    59    40    41   ar
    60   108   109    1
    61    36    39    1
    62    36    35    1
    63    35    28   am
    64    43    41   ar
    65    30    31    1
    66    30    27    1
    67    17    16   ar
    68    17    15   ar
    69   110   109    2
    70    16    14   ar
    71   109   112   am
    72    28    27    1
    73    28    29    2
    74    32    31    1
    75    27    26    1
    76    95    93   ar
    77    95    97   ar
    78    93    92   ar
    79    21    20    2
    80   112   113    1
    81    15    13   ar
    82    14    13   ar
    83    26    20   am
    84    97    96   ar
    85    20    19    1
    86    13    12    1
    87    92    91    1
    88    92    94   ar
    89    91    88    1
    90    89    88    1
    91    89    90    2
    92   113   114    1
    93   113   116    1
    94   115   114    2
    95    88    87    1
    96   114   119   am
    97    96    94   ar
    98   131   129    1
    99   117   116    1
   100   119   120    1
   101    19    18    1
   102    19    22    1
   103   116   118    1
   104    12     9    1
   105    18    10   am
   106    24    22    1
   107   120   123    1
   108   120   121    1
   109   129   128    1
   110    22    23    1
   111    10     9    1
   112    10    11    2
   113     9     8    1
   114   124   121   am
   115   124   125    1
   116   128   125    1
   117   128   130    1
   118   121   122    2
   119    23    25    1
   120   125   126    1
   121     8     3   am
   122     4     3    2
   123   127   126    2
   124   140   142   ar
   125   140   138   ar
   126     3     2    1
   127   142   141   ar
   128   138   137   ar
   129   141   139   ar
   130     2     1    1
   131     2     5    1
   132   137   139   ar
   133   137   136    1
   134     7     5    1
   135   160   158    1
   136     5     6    1
   137   136   133    1
   138   159   158    1
   139   152   151    1
   140   153   151    1
   141   132   133    1
   142   151   148    1
   143   158   155    1
   144   133   134    1
   145   155   154    1
   146   155   156    1
   147   135   134    2
   148   146   145    2
   149   148   149    1
   150   148   147    1
   151   150   149    2
   152   156   157    2
   153   145   144    1
   154   144   143    1
