@<TRIPOS>MOLECULE
tmp/4mllB01.pdb
 130 125 0 0 0
SMALL
GASTEIGER

@<TRIPOS>ATOM
      1  N         -4.8060   18.9760   54.5740 N.3    45  ASP45      -0.1225
      2  CA        -5.6040   20.1990   54.5560 C.3    45  ASP45       0.1805
      3  C         -5.7890   20.5720   53.0930 C.2    45  ASP45       0.2598
      4  O         -6.1310   19.7080   52.2780 O.2    45  ASP45      -0.2718
      5  CB        -4.9180   21.2470   55.4350 C.3    45  ASP45       0.1424
      6  CG        -4.8560   20.8190   56.9020 C.2    45  ASP45       0.3668
      7  OD1       -5.6720   19.9810   57.2790 O.co2  45  ASP45      -0.2456
      8  OD2       -4.0050   21.3470   57.6610 O.co2  45  ASP45      -0.2456
      9  N         -5.6890   21.8600   52.7640 N.am   46  SER46      -0.1952
     10  CA        -6.1070   22.3110   51.4320 C.3    46  SER46       0.1924
     11  C         -5.2270   21.7960   50.3180 C.2    46  SER46       0.2314
     12  O         -5.6190   21.8870   49.1540 O.2    46  SER46      -0.2863
     13  CB        -6.1150   23.8420   51.3370 C.3    46  SER46       0.2116
     14  OG        -7.1300   24.4240   52.1830 O.3    46  SER46      -0.2180
     15  N        -14.8160   34.7930   54.1920 N.3    77  MET77      -0.1245
     16  CA       -13.7660   35.5320   53.4770 C.3    77  MET77       0.1570
     17  C        -14.4240   36.0520   52.2150 C.2    77  MET77       0.2261
     18  O        -15.1900   35.3660   51.5870 O.2    77  MET77      -0.2867
     19  CB       -12.5390   34.6460   53.1310 C.3    77  MET77       0.0387
     20  CG       -11.5900   34.3000   54.2920 C.3    77  MET77       0.0595
     21  SD        -9.8580   33.8720   53.8730 S.3    77  MET77      -0.1393
     22  CE        -9.9990   32.2040   53.2110 C.3    77  MET77       0.0692
     23  N        -14.2370   34.0390   49.0650 N.3    80  TRP80      -0.1241
     24  CA       -15.0470   32.8300   49.0720 C.3    80  TRP80       0.1605
     25  C        -16.5260   33.1060   48.8090 C.2    80  TRP80       0.2264
     26  O        -17.3140   32.2160   48.4750 O.2    80  TRP80      -0.2867
     27  CB       -14.8980   32.0680   50.3750 C.3    80  TRP80       0.0550
     28  CG       -13.5730   31.4270   50.5570 C.ar   80  TRP80       0.0003
     29  CD1      -12.5790   31.3540   49.6470 C.ar   80  TRP80       0.0946
     30  CD2      -13.1810   30.6270   51.6630 C.ar   80  TRP80       0.0152
     31  NE1      -11.5150   30.6030   50.1590 N.ar   80  TRP80      -0.2442
     32  CE2      -11.8900   30.1210   51.3730 C.ar   80  TRP80       0.0810
     33  CE3      -13.7730   30.3250   52.8920 C.ar   80  TRP80       0.0012
     34  CZ2      -11.1850   29.3150   52.2660 C.ar   80  TRP80       0.0191
     35  CZ3      -13.0700   29.5170   53.7730 C.ar   80  TRP80       0.0001
     36  CH2      -11.8180   29.0100   53.4430 C.ar   80  TRP80       0.0015
     37  N         -7.5840   30.3180   45.3180 N.3    92  PHE92      -0.1227
     38  CA        -8.0780   30.8350   46.5770 C.3    92  PHE92       0.1736
     39  C         -8.4930   29.7950   47.6170 C.2    92  PHE92       0.2596
     40  O         -8.9920   30.1150   48.6950 O.2    92  PHE92      -0.2718
     41  CB        -9.2290   31.7970   46.3290 C.3    92  PHE92       0.0547
     42  CG        -8.8300   33.0120   45.5130 C.ar   92  PHE92      -0.0202
     43  CD1       -7.9100   33.9210   46.0250 C.ar   92  PHE92      -0.0042
     44  CD2       -9.1850   33.1090   44.1940 C.ar   92  PHE92      -0.0042
     45  CE1       -7.5040   35.0100   45.2570 C.ar   92  PHE92      -0.0003
     46  CE2       -8.8190   34.1890   43.4260 C.ar   92  PHE92      -0.0003
     47  CZ        -7.9570   35.1260   43.9610 C.ar   92  PHE92      -0.0000
     48  N         -8.1830   28.5250   47.3280 N.am   93  SER93      -0.1952
     49  CA        -8.4390   27.4360   48.2630 C.3    93  SER93       0.1924
     50  C         -9.8780   27.4540   48.7880 C.2    93  SER93       0.2314
     51  O        -10.1180   27.4670   49.9830 O.2    93  SER93      -0.2863
     52  CB        -7.4460   27.4580   49.4240 C.3    93  SER93       0.2116
     53  OG        -6.1460   27.1110   48.9650 O.3    93  SER93      -0.2180
     54  N        -12.8520   26.3020   50.0980 N.3    95  VAL95      -0.1245
     55  CA       -13.1990   25.0470   50.7450 C.3    95  VAL95       0.1561
     56  C        -14.6160   24.5760   50.3510 C.2    95  VAL95       0.2260
     57  O        -14.8770   23.3720   50.1460 O.2    95  VAL95      -0.2867
     58  CB       -13.0380   25.1680   52.2740 C.3    95  VAL95       0.0252
     59  CG1      -13.7040   23.9920   52.9730 C.3    95  VAL95       0.0019
     60  CG2      -11.5910   25.2080   52.6660 C.3    95  VAL95       0.0019
     61  N         -9.3650   17.7780   56.2440 N.3   139  LEU139     -0.1231
     62  CA        -9.1300   18.9840   57.0070 C.3   139  LEU139      0.1693
     63  C         -8.9160   18.6700   58.4830 C.2   139  LEU139      0.2591
     64  O         -9.8730   18.6640   59.2610 O.2   139  LEU139     -0.2718
     65  CB       -10.2660   20.0050   56.7980 C.3   139  LEU139      0.0284
     66  CG       -10.5090   20.4580   55.3330 C.3   139  LEU139      0.0019
     67  CD1      -11.8930   21.0780   55.1900 C.3   139  LEU139      0.0001
     68  CD2       -9.4400   21.4200   54.8390 C.3   139  LEU139      0.0001
     69  N         -7.6390   18.4760   58.8480 N.am  140  GLU140     -0.1979
     70  CA        -7.2690   18.1210   60.1980 C.3   140  GLU140      0.1602
     71  C         -8.1990   17.0550   60.7860 C.2   140  GLU140      0.2287
     72  O         -8.8110   17.2130   61.8620 O.2   140  GLU140     -0.2864
     73  CB        -7.1680   19.3750   61.0830 C.3   140  GLU140      0.0415
     74  CG        -6.1330   20.3890   60.6100 C.3   140  GLU140      0.1163
     75  CD        -4.7010   19.8610   60.6860 C.2   140  GLU140      0.3649
     76  OE1       -4.4530   18.8260   61.3670 O.co2 140  GLU140     -0.2457
     77  OE2       -3.8080   20.4380   60.0260 O.co2 140  GLU140     -0.2457
     78  N         -0.9520   25.8510   48.9390 N.3   191  THR191     -0.1203
     79  CA        -0.8540   25.9040   50.3930 C.3   191  THR191      0.1994
     80  C         -1.8720   25.0080   51.0580 C.2   191  THR191      0.2618
     81  O         -2.9030   24.6200   50.4720 O.2   191  THR191     -0.2717
     82  CB        -1.0550   27.3480   50.9240 C.3   191  THR191      0.1784
     83  OG1       -2.2640   27.8540   50.3980 O.3   191  THR191     -0.2211
     84  CG2        0.0900   28.2790   50.5700 C.3   191  THR191      0.0376
     85  N         -1.6260   24.7130   52.3380 N.am  192  GLY192     -0.1942
     86  CA        -2.6450   24.1580   53.2150 C.3   192  GLY192      0.2014
     87  C         -2.3030   24.4930   54.6500 C.2   192  GLY192      0.2639
     88  O         -1.1180   24.5690   54.9860 O.2   192  GLY192     -0.2714
     89  N         -3.2950   24.6790   55.5240 N.am  193  ALA193     -0.1963
     90  CA        -3.0250   25.0490   56.9040 C.3   193  ALA193      0.1728
     91  C         -4.1800   24.5880   57.7540 C.2   193  ALA193      0.2617
     92  O         -5.3630   24.6590   57.3460 O.2   193  ALA193     -0.2715
     93  CB        -2.8400   26.5350   57.0710 C.3   193  ALA193      0.0334
     94  N         -3.8840   24.2630   59.0080 N.am  194  GLY194     -0.1940
     95  CA        -4.9320   23.8930   59.9900 C.3   194  GLY194      0.2014
     96  C         -4.2810   23.7820   61.3400 C.2   194  GLY194      0.2638
     97  O         -3.0550   23.8460   61.4680 O.2   194  GLY194     -0.2714
     98  N         -5.1230   23.6560   62.3610 N.am  195  PHE195     -0.1973
     99  CA        -4.6490   23.3800   63.7020 C.3   195  PHE195      0.1639
    100  C         -4.6970   21.9040   63.9600 C.2   195  PHE195      0.2290
    101  O         -5.5960   21.1670   63.5310 O.2   195  PHE195     -0.2864
    102  CB        -5.5130   24.0870   64.7460 C.3   195  PHE195      0.0560
    103  CG        -5.3140   25.5790   64.7860 C.ar  195  PHE195     -0.0200
    104  CD1       -4.3660   26.1630   65.6100 C.ar  195  PHE195     -0.0042
    105  CD2       -6.1520   26.4060   64.0400 C.ar  195  PHE195     -0.0042
    106  CE1       -4.1970   27.5430   65.6070 C.ar  195  PHE195     -0.0003
    107  CE2       -5.9710   27.7690   64.0290 C.ar  195  PHE195     -0.0003
    108  CZ        -5.0290   28.3400   64.8690 C.ar  195  PHE195     -0.0000
    109  N         -3.5280   31.6430   62.3560 N.3   232  LEU232     -0.1245
    110  CA        -3.0740   30.5400   61.4760 C.3   232  LEU232      0.1561
    111  C         -2.1540   31.0830   60.3900 C.2   232  LEU232      0.2260
    112  O         -2.5890   31.5980   59.3840 O.2   232  LEU232     -0.2867
    113  CB        -4.2690   29.8260   60.8690 C.3   232  LEU232      0.0270
    114  CG        -3.9890   28.5300   60.1240 C.3   232  LEU232      0.0019
    115  CD1       -3.3340   27.5160   61.0220 C.3   232  LEU232      0.0001
    116  CD2       -5.2810   27.9850   59.5360 C.3   232  LEU232      0.0001
    117  N          0.9340   28.1070   56.8900 N.3   235  SER235     -0.1202
    118  CA         1.1970   28.0360   55.4480 C.3   235  SER235      0.2020
    119  C          1.8400   29.2860   54.8960 C.2   235  SER235      0.2618
    120  O          2.6380   29.2110   53.9500 O.2   235  SER235     -0.2717
    121  CB        -0.0620   27.7410   54.6470 C.3   235  SER235      0.2103
    122  OG        -0.8980   28.8900   54.6270 O.3   235  SER235     -0.2182
    123  N          1.5870   30.4480   55.5000 N.am  236  ILE236     -0.1979
    124  CA         2.3080   31.6420   55.1210 C.3   236  ILE236      0.1595
    125  C          3.8120   31.4540   55.3410 C.2   236  ILE236      0.2287
    126  O          4.6080   31.7580   54.4490 O.2   236  ILE236     -0.2864
    127  CB         1.8100   32.8690   55.9450 C.3   236  ILE236      0.0276
    128  CG1        0.3400   33.1520   55.6240 C.3   236  ILE236      0.0022
    129  CG2        2.6450   34.1070   55.6340 C.3   236  ILE236      0.0022
    130  CD1       -0.3440   34.1260   56.5550 C.3   236  ILE236      0.0001
@<TRIPOS>BOND
     1    46    47   ar
     2    46    44   ar
     3    47    45   ar
     4    44    42   ar
     5    45    43   ar
     6    37    38    1
     7    42    43   ar
     8    42    41    1
     9    41    38    1
    10    38    39    1
    11    48    39   am
    12    48    49    1
    13    39    40    2
    14    49    50    1
    15    49    52    1
    16    26    25    2
    17    50    51    2
    18    25    24    1
    19    78    79    1
    20    53    52    1
    21    23    24    1
    22    24    27    1
    23    12    11    2
    24    29    31   ar
    25    29    28   ar
    26    54    55    1
    27    57    56    2
    28    31    32   ar
    29    11    10    1
    30    56    55    1
    31    27    28    1
    32    79    82    1
    33    79    80    1
    34    83    82    1
    35    81    80    2
    36    28    30   ar
    37    84    82    1
    38    55    58    1
    39    80    85   am
    40    13    10    1
    41    13    14    1
    42    32    30   ar
    43    32    34   ar
    44    10     9    1
    45    18    17    2
    46    30    33   ar
    47    17    16    1
    48    34    36   ar
    49    58    60    1
    50    58    59    1
    51     4     3    2
    52    85    86    1
    53     9     3   am
    54    33    35   ar
    55     3     2    1
    56    19    16    1
    57    19    20    1
    58    22    21    1
    59    86    87    1
    60    36    35   ar
    61    16    15    1
    62    21    20    1
    63   120   119    2
    64   126   125    2
    65     2     1    1
    66     2     5    1
    67   122   121    1
    68   121   118    1
    69    87    88    2
    70    87    89   am
    71    68    66    1
    72   119   118    1
    73   119   123   am
    74   124   125    1
    75   124   123    1
    76   124   127    1
    77    67    66    1
    78    66    65    1
    79     5     6    1
    80   118   117    1
    81    89    90    1
    82   128   127    1
    83   128   130    1
    84   129   127    1
    85    61    62    1
    86    65    62    1
    87     6     7   ar
    88     6     8   ar
    89    90    93    1
    90    90    91    1
    91    62    63    1
    92    92    91    2
    93    91    94   am
    94    63    69   am
    95    63    64    2
    96    69    70    1
    97    94    95    1
    98   112   111    2
    99   116   114    1
   100    95    96    1
   101    77    75   ar
   102   114   113    1
   103   114   115    1
   104    70    71    1
   105    70    73    1
   106   111   110    1
   107    74    75    1
   108    74    73    1
   109    75    76   ar
   110    71    72    2
   111   113   110    1
   112    96    97    2
   113    96    98   am
   114   110   109    1
   115    98    99    1
   116   101   100    2
   117    99   100    1
   118    99   102    1
   119   107   105   ar
   120   107   108   ar
   121   105   103   ar
   122   102   103    1
   123   103   104   ar
   124   108   106   ar
   125   106   104   ar
