@<TRIPOS>MOLECULE
tmp/4mlmA00.pdb
 118 110 0 0 0
SMALL
GASTEIGER

@<TRIPOS>ATOM
      1  N         69.8810    8.4480   36.3900 N.3    23  TYR23      -0.1241
      2  CA        71.2040    8.6960   35.8270 C.3    23  TYR23       0.1605
      3  C         71.2840    8.0660   34.4460 C.2    23  TYR23       0.2264
      4  O         71.4400    8.7610   33.4450 O.2    23  TYR23      -0.2867
      5  CB        72.3190    8.1870   36.7390 C.3    23  TYR23       0.0534
      6  CG        73.6500    8.8330   36.4180 C.ar   23  TYR23      -0.0201
      7  CD1       73.9920   10.0620   36.9630 C.ar   23  TYR23      -0.0009
      8  CD2       74.5460    8.2300   35.5480 C.ar   23  TYR23      -0.0009
      9  CE1       75.2110   10.6750   36.6580 C.ar   23  TYR23       0.0417
     10  CE2       75.7650    8.8300   35.2360 C.ar   23  TYR23       0.0417
     11  CZ        76.0950   10.0450   35.7980 C.ar   23  TYR23       0.1957
     12  OH        77.3110   10.6430   35.4920 O.3    23  TYR23      -0.2866
     13  N         79.1170   13.5940   41.6270 N.3    57  ASP57      -0.1239
     14  CA        77.8560   14.0570   41.0510 C.3    57  ASP57       0.1674
     15  C         76.8850   14.6110   42.0860 C.2    57  ASP57       0.2266
     16  O         75.7330   14.8910   41.7750 O.2    57  ASP57      -0.2867
     17  CB        77.1950   12.9270   40.2460 C.3    57  ASP57       0.1410
     18  CG        77.7590   12.8150   38.8440 C.2    57  ASP57       0.3668
     19  OD1       78.3510   13.8160   38.3500 O.co2  57  ASP57      -0.2456
     20  OD2       77.6030   11.7310   38.2400 O.co2  57  ASP57      -0.2456
     21  N         74.3450   17.7830   41.3940 N.3    60  HIS60      -0.1241
     22  CA        73.1790   17.8600   40.5100 C.3    60  HIS60       0.1621
     23  C         71.9430   18.3030   41.2950 C.2    60  HIS60       0.2264
     24  O         71.6920   17.8090   42.3940 O.2    60  HIS60      -0.2867
     25  CB        72.8710   16.4970   39.8700 C.3    60  HIS60       0.0745
     26  CG        73.7350   16.1510   38.6940 C.ar   60  HIS60       0.0817
     27  ND1       73.8450   16.9620   37.5820 N.ar   60  HIS60      -0.2268
     28  CD2       74.4910   15.0570   38.4360 C.ar   60  HIS60       0.1154
     29  CE1       74.6610   16.3980   36.7070 C.ar   60  HIS60       0.1986
     30  NE2       75.0600   15.2340   37.1970 N.ar   60  HIS60      -0.2212
     31  N         76.9550   21.2560   38.1060 N.3    77  HIS77      -0.1241
     32  CA        77.0550   20.3010   39.2120 C.3    77  HIS77       0.1621
     33  C         78.4750   20.0660   39.6920 C.2    77  HIS77       0.2264
     34  O         78.6940   19.8690   40.8900 O.2    77  HIS77      -0.2867
     35  CB        76.3720   18.9560   38.9000 C.3    77  HIS77       0.0745
     36  CG        77.1350   18.0710   37.9540 C.ar   77  HIS77       0.0817
     37  ND1       77.3710   18.4120   36.6400 N.ar   77  HIS77      -0.2268
     38  CD2       77.6780   16.8400   38.1250 C.ar   77  HIS77       0.1154
     39  CE1       78.0410   17.4440   36.0460 C.ar   77  HIS77       0.1986
     40  NE2       78.2360   16.4710   36.9210 N.ar   77  HIS77      -0.2212
     41  N         85.8550   16.9600   36.3190 N.3   101  HIS101     -0.1226
     42  CA        85.3670   15.7910   35.5620 C.3   101  HIS101      0.1752
     43  C         84.6050   16.1510   34.2950 C.2   101  HIS101      0.2595
     44  O         84.4740   15.3200   33.3930 O.2   101  HIS101     -0.2718
     45  CB        84.6330   14.7480   36.4370 C.3   101  HIS101      0.0759
     46  CG        83.1660   15.0080   36.6610 C.ar  101  HIS101      0.0818
     47  ND1       82.6920   15.8680   37.6310 N.ar  101  HIS101     -0.2268
     48  CD2       82.0720   14.4450   36.0950 C.ar  101  HIS101      0.1154
     49  CE1       81.3700   15.8530   37.6270 C.ar  101  HIS101      0.1986
     50  NE2       80.9650   14.9870   36.7110 N.ar  101  HIS101     -0.2212
     51  N         84.1450   17.3940   34.1920 N.am  102  VAL102     -0.1980
     52  CA        83.5850   17.8510   32.9260 C.3   102  VAL102      0.1595
     53  C         84.6970   18.1220   31.9260 C.2   102  VAL102      0.2287
     54  O         84.6320   17.6920   30.7690 O.2   102  VAL102     -0.2864
     55  CB        82.6780   19.0810   33.0910 C.3   102  VAL102      0.0276
     56  CG1       82.3970   19.7150   31.7340 C.3   102  VAL102      0.0022
     57  CG2       81.3800   18.6580   33.7750 C.3   102  VAL102      0.0022
     58  N         85.9870   14.9340   30.3950 N.3   105  LYS105     -0.1245
     59  CA        85.2080   14.4410   29.2730 C.3   105  LYS105      0.1561
     60  C         85.5680   15.2140   28.0000 C.2   105  LYS105      0.2260
     61  O         85.7240   14.6290   26.9230 O.2   105  LYS105     -0.2867
     62  CB        83.7090   14.5610   29.5720 C.3   105  LYS105      0.0271
     63  CG        82.8280   14.3190   28.3610 C.3   105  LYS105      0.0035
     64  CD        81.3540   14.6390   28.6910 C.3   105  LYS105      0.0206
     65  CE        81.1300   16.1550   28.6940 C.3   105  LYS105      0.1093
     66  NZ        79.7140   16.4540   29.0220 N.3   105  LYS105     -0.1314
     67  N         76.6200    8.9580   27.7150 N.3   120  SER120     -0.1217
     68  CA        75.1690    8.9360   27.8660 C.3   120  SER120      0.1889
     69  C         74.5370   10.0630   27.0660 C.2   120  SER120      0.2288
     70  O         75.2140   11.0210   26.6870 O.2   120  SER120     -0.2866
     71  CB        74.7910    9.1210   29.3310 C.3   120  SER120      0.2089
     72  OG        75.1740   10.4050   29.8000 O.3   120  SER120     -0.2183
     73  N         72.6900   12.4050   28.1490 N.3   122  ALA122     -0.1231
     74  CA        72.9330   13.6640   28.8500 C.3   122  ALA122      0.1694
     75  C         74.3630   14.1650   28.6860 C.2   122  ALA122      0.2592
     76  O         74.5770   15.3470   28.4560 O.2   122  ALA122     -0.2718
     77  CB        72.5660   13.5550   30.3310 C.3   122  ALA122      0.0304
     78  N         75.3460   13.2820   28.8120 N.am  123  SER123     -0.1952
     79  CA        76.7420   13.7090   28.6920 C.3   123  SER123      0.1924
     80  C         77.0610   14.1970   27.2850 C.2   123  SER123      0.2314
     81  O         77.8550   15.1160   27.0920 O.2   123  SER123     -0.2863
     82  CB        77.6980   12.5860   29.1050 C.3   123  SER123      0.2116
     83  OG        77.5880   12.3410   30.4920 O.3   123  SER123     -0.2180
     84  N         75.1660   17.7510   27.1250 N.3   126  THR126     -0.1218
     85  CA        75.8000   18.8130   27.9180 C.3   126  THR126      0.1862
     86  C         77.0900   19.3060   27.2650 C.2   126  THR126      0.2287
     87  O         77.4570   20.4830   27.3920 O.2   126  THR126     -0.2866
     88  CB        76.0800   18.4010   29.3670 C.3   126  THR126      0.1770
     89  OG1       76.9260   17.2440   29.3800 O.3   126  THR126     -0.2211
     90  CG2       74.7700   18.1030   30.1100 C.3   126  THR126      0.0375
     91  N         79.3540   23.1140   26.9600 N.3   130  GLN130     -0.1245
     92  CA        80.5470   23.1510   27.7880 C.3   130  GLN130      0.1566
     93  C         81.7600   23.5340   26.9590 C.2   130  GLN130      0.2260
     94  O         82.8960   23.4440   27.4220 O.2   130  GLN130     -0.2867
     95  CB        80.7530   21.7900   28.4470 C.3   130  GLN130      0.0367
     96  CG        79.6480   21.4420   29.4300 C.3   130  GLN130      0.0905
     97  CD        79.5820   19.9560   29.7660 C.2   130  GLN130      0.2608
     98  OE1       80.0820   19.1110   29.0180 O.2   130  GLN130     -0.2717
     99  NE2       78.9530   19.6330   30.8930 N.am  130  GLN130     -0.0878
    100  N         86.9310   10.1880   35.1930 N.3   154  ARG154     -0.1245
    101  CA        85.9160   10.2460   34.1380 C.3   154  ARG154      0.1563
    102  C         85.7490    8.8970   33.4300 C.2   154  ARG154      0.2260
    103  O         84.6420    8.5270   33.0390 O.2   154  ARG154     -0.2867
    104  CB        86.2080   11.3770   33.1390 C.3   154  ARG154      0.0307
    105  CG        85.1050   11.5530   32.0930 C.3   154  ARG154      0.0489
    106  CD        83.9420   12.3570   32.6490 C.3   154  ARG154      0.2205
    107  NE        82.6700   12.0390   31.9930 N.pl3 154  ARG154     -0.0865
    108  CZ        81.5920   12.8040   32.0690 C.cat 154  ARG154      0.5346
    109  NH1       81.6570   13.9460   32.7330 N.pl3 154  ARG154      0.1354
    110  NH2       80.4560   12.4380   31.4790 N.pl3 154  ARG154      0.1354
    111  N         83.5390    7.1100   35.6740 N.3   157  ASP157     -0.1239
    112  CA        82.2400    7.7440   35.4830 C.3   157  ASP157      0.1674
    113  C         81.4490    7.1010   34.3450 C.2   157  ASP157      0.2266
    114  O         80.2960    6.6830   34.5340 O.2   157  ASP157     -0.2867
    115  CB        82.5050    9.2270   35.2070 C.3   157  ASP157      0.1410
    116  CG        81.2700   10.0750   35.2590 C.2   157  ASP157      0.3668
    117  OD1       80.1960    9.5930   35.6760 O.co2 157  ASP157     -0.2456
    118  OD2       81.3860   11.2560   34.8710 O.co2 157  ASP157     -0.2456
@<TRIPOS>BOND
     1    70    69    2
     2    61    60    2
     3    93    94    2
     4    93    92    1
     5    91    92    1
     6    69    68    1
     7    81    80    2
     8    84    85    1
     9    86    87    2
    10    86    85    1
    11    80    79    1
    12    67    68    1
    13    92    95    1
    14    68    71    1
    15    85    88    1
    16    60    59    1
    17    73    74    1
    18    63    64    1
    19    63    62    1
    20    95    96    1
    21    76    75    2
    22    75    78   am
    23    75    74    1
    24    64    65    1
    25    79    78    1
    26    79    82    1
    27    65    66    1
    28    74    77    1
    29    98    97    2
    30    82    83    1
    31    59    62    1
    32    59    58    1
    33    71    72    1
    34    88    89    1
    35    88    90    1
    36    96    97    1
    37    97    99   am
    38    54    53    2
    39   110   108    1
    40    56    55    1
    41    53    52    1
    42   107   108    2
    43   107   106    1
    44   108   109    1
    45   105   106    1
    46   105   104    1
    47    52    55    1
    48    52    51    1
    49   103   102    2
    50    55    57    1
    51   104   101    1
    52    44    43    2
    53   102   101    1
    54     4     3    2
    55   101   100    1
    56    51    43   am
    57    43    42    1
    58   113   114    2
    59   113   112    1
    60     3     2    1
    61   118   116   ar
    62   115   116    1
    63   115   112    1
    64    10     8   ar
    65    10    11   ar
    66   116   117   ar
    67   112   111    1
    68    12    11    1
    69     8     6   ar
    70    42    41    1
    71    42    45    1
    72    11     9   ar
    73     2     1    1
    74     2     5    1
    75    39    37   ar
    76    39    40   ar
    77    48    46   ar
    78    48    50   ar
    79     6     5    1
    80     6     7   ar
    81    45    46    1
    82    37    36   ar
    83     9     7   ar
    84    46    47   ar
    85    29    30   ar
    86    29    27   ar
    87    50    49   ar
    88    40    38   ar
    89    30    28   ar
    90    27    26   ar
    91    49    47   ar
    92    36    38   ar
    93    36    35    1
    94    31    32    1
    95    20    18   ar
    96    19    18   ar
    97    28    26   ar
    98    26    25    1
    99    18    17    1
   100    35    32    1
   101    32    33    1
   102    33    34    2
   103    25    22    1
   104    17    14    1
   105    22    23    1
   106    22    21    1
   107    14    13    1
   108    14    15    1
   109    23    24    2
   110    16    15    2
