@<TRIPOS>MOLECULE
tmp/4mlmA01.pdb
 86 79 0 0 0
SMALL
GASTEIGER

@<TRIPOS>ATOM
      1  N         88.8740   13.8410   26.7140 N.3   108  LEU108     -0.1245
      2  CA        88.7760   12.4870   26.1800 C.3   108  LEU108      0.1561
      3  C         88.1100   12.4820   24.8130 C.2   108  LEU108      0.2260
      4  O         88.5570   11.7750   23.9020 O.2   108  LEU108     -0.2867
      5  CB        88.0460   11.5690   27.1630 C.3   108  LEU108      0.0270
      6  CG        88.8800   11.2710   28.4080 C.3   108  LEU108      0.0019
      7  CD1       88.0220   10.6230   29.5070 C.3   108  LEU108      0.0001
      8  CD2       90.0600   10.3830   28.0230 C.3   108  LEU108      0.0001
      9  N         90.1410   11.1480   21.4390 N.3   112  LYS112     -0.1245
     10  CA        89.6580    9.9650   20.7310 C.3   112  LYS112      0.1561
     11  C         88.1660   10.1020   20.4300 C.2   112  LYS112      0.2260
     12  O         87.3270    9.8530   21.2940 O.2   112  LYS112     -0.2867
     13  CB        89.9100    8.7090   21.5680 C.3   112  LYS112      0.0271
     14  CG        89.6300    7.4040   20.8360 C.3   112  LYS112      0.0035
     15  CD        90.4670    7.2930   19.5700 C.3   112  LYS112      0.0206
     16  CE        90.2150    5.9730   18.8570 C.3   112  LYS112      0.1093
     17  NZ        91.0080    5.8670   17.6000 N.3   112  LYS112     -0.1314
     18  N         85.3830    8.1500   21.8670 N.3   115  TYR115     -0.1241
     19  CA        84.9040    8.2980   23.2500 C.3   115  TYR115      0.1605
     20  C         83.4890    8.8490   23.2660 C.2   115  TYR115      0.2264
     21  O         82.7010    8.5500   24.1630 O.2   115  TYR115     -0.2867
     22  CB        85.8170    9.1920   24.1060 C.3   115  TYR115      0.0534
     23  CG        85.5660    9.0060   25.6000 C.ar  115  TYR115     -0.0201
     24  CD1       86.1620    7.9570   26.2930 C.ar  115  TYR115     -0.0009
     25  CD2       84.7250    9.8590   26.3070 C.ar  115  TYR115     -0.0009
     26  CE1       85.9380    7.7620   27.6470 C.ar  115  TYR115      0.0417
     27  CE2       84.4880    9.6710   27.6820 C.ar  115  TYR115      0.0417
     28  CZ        85.0960    8.6140   28.3340 C.ar  115  TYR115      0.1957
     29  OH        84.8850    8.4040   29.6780 O.3   115  TYR115     -0.2866
     30  N         80.8160    6.4450   24.0340 N.3   118  ASN118     -0.1240
     31  CA        80.6700    5.9680   25.4050 C.3   118  ASN118      0.1653
     32  C         79.7730    6.8680   26.2440 C.2   118  ASN118      0.2266
     33  O         79.3800    6.5090   27.3540 O.2   118  ASN118     -0.2867
     34  CB        82.0410    5.8760   26.0840 C.3   118  ASN118      0.1155
     35  CG        82.9880    4.9440   25.3630 C.2   118  ASN118      0.2627
     36  OD1       84.1300    5.3070   25.0650 O.2   118  ASN118     -0.2716
     37  ND2       82.5240    3.7300   25.0860 N.am  118  ASN118     -0.0877
     38  N         96.0970   13.0230   34.9060 N.3   148  LYS148     -0.1245
     39  CA        95.7440   11.6150   34.7380 C.3   148  LYS148      0.1561
     40  C         94.6730   11.1640   35.7220 C.2   148  LYS148      0.2260
     41  O         93.7890   10.3830   35.3680 O.2   148  LYS148     -0.2867
     42  CB        96.9830   10.7260   34.8420 C.3   148  LYS148      0.0271
     43  CG        97.8960   10.8400   33.6340 C.3   148  LYS148      0.0035
     44  CD        99.0980    9.9280   33.7730 C.3   148  LYS148      0.0206
     45  CE        99.8840    9.8530   32.4730 C.3   148  LYS148      0.1093
     46  NZ       101.0460    8.9250   32.6030 N.3   148  LYS148     -0.1314
     47  N         91.3450   12.0520   34.3850 N.3   151  LEU151     -0.1231
     48  CA        90.9350   11.1240   33.3280 C.3   151  LEU151      0.1693
     49  C         90.4310    9.8080   33.9050 C.2   151  LEU151      0.2591
     50  O         89.4530    9.2570   33.4160 O.2   151  LEU151     -0.2718
     51  CB        92.0640   10.8550   32.3290 C.3   151  LEU151      0.0284
     52  CG        92.5930   12.0640   31.5600 C.3   151  LEU151      0.0019
     53  CD1       93.5840   11.6140   30.4980 C.3   151  LEU151      0.0001
     54  CD2       91.4600   12.8550   30.9340 C.3   151  LEU151      0.0001
     55  N         91.0780    9.3140   34.9570 N.am  152  LYS152     -0.1980
     56  CA        90.6200    8.0840   35.6030 C.3   152  LYS152      0.1596
     57  C         89.2210    8.2410   36.1920 C.2   152  LYS152      0.2287
     58  O         88.3600    7.3740   36.0100 O.2   152  LYS152     -0.2864
     59  CB        91.5930    7.6630   36.7100 C.3   152  LYS152      0.0298
     60  CG        92.9510    7.1770   36.1940 C.3   152  LYS152      0.0038
     61  CD        93.9280    6.9550   37.3610 C.3   152  LYS152      0.0206
     62  CE        95.2690    6.4210   36.8570 C.3   152  LYS152      0.1093
     63  NZ        96.2440    6.1920   37.9750 N.3   152  LYS152     -0.1314
     64  N         86.8330    8.1510   33.2690 N.3   155  ALA155     -0.1245
     65  CA        86.6960    6.7870   32.7460 C.3   155  ALA155      0.1562
     66  C         85.8040    5.9290   33.6470 C.2   155  ALA155      0.2260
     67  O         84.9660    5.1540   33.1530 O.2   155  ALA155     -0.2867
     68  CB        88.0540    6.1450   32.5510 C.3   155  ALA155      0.0290
     69  N         82.0570    6.9980   33.1650 N.3   158  GLU158     -0.1231
     70  CA        81.3470    6.4140   32.0220 C.3   158  GLU158      0.1699
     71  C         81.0460    4.9390   32.2410 C.2   158  GLU158      0.2592
     72  O         80.0930    4.3980   31.6740 O.2   158  GLU158     -0.2718
     73  CB        82.1340    6.6030   30.7220 C.3   158  GLU158      0.0402
     74  CG        81.5840    7.7120   29.8310 C.3   158  GLU158      0.1161
     75  CD        81.6350    9.0720   30.5040 C.2   158  GLU158      0.3649
     76  OE1       82.7540    9.6070   30.6640 O.co2 158  GLU158     -0.2457
     77  OE2       80.5560    9.6070   30.8810 O.co2 158  GLU158     -0.2457
     78  N         81.8680    4.2930   33.0580 N.am  159  LYS159     -0.1980
     79  CA        81.6900    2.8740   33.3580 C.3   159  LYS159      0.1596
     80  C         80.5990    2.6230   34.4020 C.2   159  LYS159      0.2287
     81  O         80.1000    1.5100   34.5130 O.2   159  LYS159     -0.2864
     82  CB        83.0170    2.2620   33.8290 C.3   159  LYS159      0.0298
     83  CG        83.0090    0.7530   33.9810 C.3   159  LYS159      0.0038
     84  CD        84.2850    0.2960   34.6720 C.3   159  LYS159      0.0206
     85  CE        84.4640   -1.2110   34.6050 C.3   159  LYS159      0.1093
     86  NZ        85.6700   -1.6180   35.3720 N.3   159  LYS159     -0.1314
@<TRIPOS>BOND
     1    17    16    1
     2    16    15    1
     3    15    14    1
     4    11    10    1
     5    11    12    2
     6    10     9    1
     7    10    13    1
     8    14    13    1
     9    18    19    1
    10    19    20    1
    11    19    22    1
    12    20    21    2
    13     4     3    2
    14    30    31    1
    15    22    23    1
    16     3     2    1
    17    36    35    2
    18    37    35   am
    19    35    34    1
    20    31    34    1
    21    31    32    1
    22    23    24   ar
    23    23    25   ar
    24     2     1    1
    25     2     5    1
    26    32    33    2
    27    24    26   ar
    28    25    27   ar
    29     5     6    1
    30    26    28   ar
    31    27    28   ar
    32     8     6    1
    33    28    29    1
    34     6     7    1
    35    74    75    1
    36    74    73    1
    37    53    52    1
    38    75    76   ar
    39    75    77   ar
    40    73    70    1
    41    54    52    1
    42    52    51    1
    43    72    71    2
    44    70    71    1
    45    70    69    1
    46    71    78   am
    47    51    48    1
    48    45    46    1
    49    45    44    1
    50    68    65    1
    51    65    64    1
    52    65    66    1
    53    78    79    1
    54    67    66    2
    55    48    49    1
    56    48    47    1
    57    79    82    1
    58    79    80    1
    59    50    49    2
    60    43    44    1
    61    43    42    1
    62    82    83    1
    63    49    55   am
    64    83    84    1
    65    80    81    2
    66    85    84    1
    67    85    86    1
    68    39    42    1
    69    39    38    1
    70    39    40    1
    71    55    56    1
    72    41    40    2
    73    56    57    1
    74    56    59    1
    75    58    57    2
    76    60    59    1
    77    60    61    1
    78    62    61    1
    79    62    63    1
