@<TRIPOS>MOLECULE
tmp/4mloA00.pdb
 164 152 0 0 0
SMALL
GASTEIGER

@<TRIPOS>ATOM
      1  N        -14.3170    3.5640  -21.4040 N.3     6  ASN6       -0.1240
      2  CA       -15.4080    3.5830  -22.3630 C.3     6  ASN6        0.1653
      3  C        -16.6650    3.1270  -21.6540 C.2     6  ASN6        0.2266
      4  O        -16.6210    2.2820  -20.7590 O.2     6  ASN6       -0.2867
      5  CB       -15.1390    2.6760  -23.5830 C.3     6  ASN6        0.1155
      6  CG       -14.0180    3.1650  -24.4270 C.2     6  ASN6        0.2627
      7  OD1      -12.8710    2.7610  -24.2370 O.2     6  ASN6       -0.2716
      8  ND2      -14.3200    4.0500  -25.3610 N.am    6  ASN6       -0.0877
      9  N        -20.3880    1.7040  -22.7990 N.3     8  TYR8       -0.1241
     10  CA       -21.1960    1.1940  -23.8940 C.3     8  TYR8        0.1605
     11  C        -22.6460    1.0620  -23.4580 C.2     8  TYR8        0.2264
     12  O        -22.9420    0.5300  -22.3860 O.2     8  TYR8       -0.2867
     13  CB       -20.7040   -0.1680  -24.3440 C.3     8  TYR8        0.0534
     14  CG       -19.2930   -0.1250  -24.8870 C.ar    8  TYR8       -0.0201
     15  CD1      -18.2140   -0.5800  -24.1430 C.ar    8  TYR8       -0.0009
     16  CD2      -19.0580    0.4090  -26.1080 C.ar    8  TYR8       -0.0009
     17  CE1      -16.9190   -0.5330  -24.6700 C.ar    8  TYR8        0.0417
     18  CE2      -17.7660    0.4510  -26.6460 C.ar    8  TYR8        0.0417
     19  CZ       -16.7140    0.0000  -25.9260 C.ar    8  TYR8        0.1957
     20  OH       -15.4520    0.0690  -26.5160 O.3     8  TYR8       -0.2866
     21  N        -23.9750   -9.2880  -26.5560 N.3    16  TYR16      -0.1241
     22  CA       -22.7030   -9.0760  -27.2090 C.3    16  TYR16       0.1605
     23  C        -21.9360  -10.3860  -27.1800 C.2    16  TYR16       0.2264
     24  O        -21.8780  -11.0510  -26.1400 O.2    16  TYR16      -0.2867
     25  CB       -21.8960   -7.9950  -26.4960 C.3    16  TYR16       0.0534
     26  CG       -22.5250   -6.6140  -26.5480 C.ar   16  TYR16      -0.0201
     27  CD1      -22.4790   -5.7730  -25.4320 C.ar   16  TYR16      -0.0009
     28  CD2      -23.1200   -6.1420  -27.7030 C.ar   16  TYR16      -0.0009
     29  CE1      -23.0350   -4.4960  -25.4680 C.ar   16  TYR16       0.0417
     30  CE2      -23.6980   -4.8650  -27.7450 C.ar   16  TYR16       0.0417
     31  CZ       -23.6440   -4.0520  -26.6230 C.ar   16  TYR16       0.1957
     32  OH       -24.1930   -2.7900  -26.6570 O.3    16  TYR16      -0.2866
     33  N        -18.2190  -12.2090  -28.3400 N.3    18  PHE18      -0.1241
     34  CA       -16.8350  -12.0280  -28.7310 C.3    18  PHE18       0.1605
     35  C        -16.2130  -13.3790  -29.0380 C.2    18  PHE18       0.2264
     36  O        -16.3550  -14.3240  -28.2400 O.2    18  PHE18      -0.2867
     37  CB       -16.0590  -11.3350  -27.6290 C.3    18  PHE18       0.0534
     38  CG       -16.6530  -10.0400  -27.2320 C.ar   18  PHE18      -0.0203
     39  CD1      -16.5010   -8.9310  -28.0350 C.ar   18  PHE18      -0.0042
     40  CD2      -17.4680   -9.9560  -26.1170 C.ar   18  PHE18      -0.0042
     41  CE1      -17.0830   -7.7310  -27.6930 C.ar   18  PHE18      -0.0003
     42  CE2      -18.0550   -8.7560  -25.7780 C.ar   18  PHE18      -0.0003
     43  CZ       -17.8570   -7.6470  -26.5620 C.ar   18  PHE18      -0.0000
     44  N        -11.2200  -12.5970  -29.3070 N.3    21  LEU21      -0.1245
     45  CA       -10.9090  -11.2140  -28.9320 C.3    21  LEU21       0.1561
     46  C         -9.5840  -11.1980  -28.1640 C.2    21  LEU21       0.2260
     47  O         -9.5190  -11.7020  -27.0360 O.2    21  LEU21      -0.2867
     48  CB       -12.0240  -10.6210  -28.0730 C.3    21  LEU21       0.0270
     49  CG       -11.8540   -9.1630  -27.6350 C.3    21  LEU21       0.0019
     50  CD1      -11.9720   -8.2630  -28.8720 C.3    21  LEU21       0.0001
     51  CD2      -12.8210   -8.7690  -26.4950 C.3    21  LEU21       0.0001
     52  N         -7.8990   -5.2830  -18.6940 N.3    27  LYS27      -0.1245
     53  CA        -9.2240   -4.6530  -18.7420 C.3    27  LYS27       0.1561
     54  C        -10.0680   -5.0600  -17.5490 C.2    27  LYS27       0.2260
     55  O         -9.9560   -6.1660  -17.0260 O.2    27  LYS27      -0.2867
     56  CB        -9.9920   -5.0120  -20.0370 C.3    27  LYS27       0.0271
     57  CG        -9.4480   -4.2730  -21.2390 C.3    27  LYS27       0.0035
     58  CD       -10.1680   -4.6320  -22.4970 C.3    27  LYS27       0.0206
     59  CE        -9.4070   -4.1330  -23.6930 C.3    27  LYS27       0.1093
     60  NZ        -9.6190   -2.6820  -23.8650 N.3    27  LYS27      -0.1314
     61  N        -14.3500   -4.6250  -16.4170 N.3    29  PHE29      -0.1241
     62  CA       -15.6370   -4.0690  -16.8210 C.3    29  PHE29       0.1605
     63  C        -16.7360   -4.5130  -15.8690 C.2    29  PHE29       0.2264
     64  O        -16.5910   -5.4720  -15.1100 O.2    29  PHE29      -0.2867
     65  CB       -15.9960   -4.4110  -18.2850 C.3    29  PHE29       0.0534
     66  CG       -16.3650   -5.8460  -18.5440 C.ar   29  PHE29      -0.0203
     67  CD1      -15.4210   -6.7360  -19.0390 C.ar   29  PHE29      -0.0042
     68  CD2      -17.6730   -6.2980  -18.3630 C.ar   29  PHE29      -0.0042
     69  CE1      -15.7600   -8.0500  -19.3230 C.ar   29  PHE29      -0.0003
     70  CE2      -18.0240   -7.6180  -18.6510 C.ar   29  PHE29      -0.0003
     71  CZ       -17.0650   -8.4940  -19.1290 C.ar   29  PHE29      -0.0000
     72  N        -10.0970   -8.9980  -17.2610 N.3    57  LEU57      -0.1245
     73  CA        -9.5980   -9.7380  -18.4210 C.3    57  LEU57       0.1561
     74  C         -8.0850   -9.5740  -18.4960 C.2    57  LEU57       0.2260
     75  O         -7.5690   -8.4470  -18.4780 O.2    57  LEU57      -0.2867
     76  CB       -10.2480   -9.2660  -19.7300 C.3    57  LEU57       0.0270
     77  CG       -11.7880   -9.3150  -19.7910 C.3    57  LEU57       0.0019
     78  CD1      -12.2570   -8.8080  -21.1380 C.3    57  LEU57       0.0001
     79  CD2      -12.2870  -10.7250  -19.5540 C.3    57  LEU57       0.0001
     80  N        -16.5290  -15.1360  -25.2390 N.3    65  PHE65      -0.1241
     81  CA       -17.5800  -15.0200  -24.2400 C.3    65  PHE65       0.1605
     82  C        -18.7030  -14.1800  -24.8050 C.2    65  PHE65       0.2264
     83  O        -18.5350  -13.4660  -25.7960 O.2    65  PHE65      -0.2867
     84  CB       -17.0770  -14.4430  -22.9120 C.3    65  PHE65       0.0534
     85  CG       -16.7160  -12.9740  -22.9460 C.ar   65  PHE65      -0.0203
     86  CD1      -15.4250  -12.5850  -23.2610 C.ar   65  PHE65      -0.0042
     87  CD2      -17.6240  -11.9900  -22.5740 C.ar   65  PHE65      -0.0042
     88  CE1      -15.0620  -11.2610  -23.2470 C.ar   65  PHE65      -0.0003
     89  CE2      -17.2760  -10.6520  -22.5650 C.ar   65  PHE65      -0.0003
     90  CZ       -15.9810  -10.2820  -22.8880 C.ar   65  PHE65      -0.0000
     91  N        -22.1020  -11.6480  -23.3440 N.3    67  LEU67      -0.1245
     92  CA       -22.7490  -10.9040  -22.2730 C.3    67  LEU67       0.1561
     93  C        -24.1700  -10.6000  -22.7220 C.2    67  LEU67       0.2260
     94  O        -24.3760   -9.9190  -23.7320 O.2    67  LEU67      -0.2867
     95  CB       -21.9790   -9.6150  -21.9400 C.3    67  LEU67       0.0270
     96  CG       -22.5030   -8.8600  -20.7060 C.3    67  LEU67       0.0019
     97  CD1      -22.3010   -9.6750  -19.4300 C.3    67  LEU67       0.0001
     98  CD2      -21.8570   -7.4920  -20.5670 C.3    67  LEU67       0.0001
     99  N        -22.4120   -0.4480  -19.8030 N.3    77  VAL77      -0.1245
    100  CA       -21.2480   -1.2710  -19.4710 C.3    77  VAL77       0.1561
    101  C        -20.0150   -0.3810  -19.4800 C.2    77  VAL77       0.2260
    102  O        -19.6320    0.1640  -20.5210 O.2    77  VAL77      -0.2867
    103  CB       -21.0770   -2.4430  -20.4490 C.3    77  VAL77       0.0252
    104  CG1      -20.0170   -3.4130  -19.9420 C.3    77  VAL77       0.0019
    105  CG2      -22.3950   -3.1640  -20.6420 C.3    77  VAL77       0.0019
    106  N        -15.9620    0.0850  -19.0970 N.3    79  VAL79      -0.1245
    107  CA       -14.7580   -0.6820  -19.4150 C.3    79  VAL79       0.1561
    108  C        -13.5470    0.1910  -19.1170 C.2    79  VAL79       0.2260
    109  O        -13.3720    1.2410  -19.7430 O.2    79  VAL79      -0.2867
    110  CB       -14.7410   -1.1110  -20.8890 C.3    79  VAL79       0.0252
    111  CG1      -13.4840   -1.9770  -21.2040 C.3    79  VAL79       0.0019
    112  CG2      -15.9940   -1.8480  -21.2320 C.3    79  VAL79       0.0019
    113  N         -9.5010   -1.3640  -33.1440 N.3   221  ILE221     -0.1245
    114  CA       -10.3670   -0.8550  -32.0850 C.3   221  ILE221      0.1561
    115  C         -9.6840    0.3140  -31.4010 C.2   221  ILE221      0.2260
    116  O        -10.2730    1.3730  -31.2060 O.2   221  ILE221     -0.2867
    117  CB       -10.7330   -1.9920  -31.1130 C.3   221  ILE221      0.0252
    118  CG1      -11.7480   -2.9020  -31.7850 C.3   221  ILE221      0.0019
    119  CG2      -11.3370   -1.4550  -29.8480 C.3   221  ILE221      0.0019
    120  CD1      -11.8990   -4.2260  -31.0940 C.3   221  ILE221      0.0001
    121  N        -10.9730    4.1620  -31.1540 N.3   225  LYS225     -0.1245
    122  CA       -11.1260    4.8640  -29.8840 C.3   225  LYS225      0.1561
    123  C        -10.3990    6.1960  -29.8630 C.2   225  LYS225      0.2260
    124  O        -10.7370    7.0450  -29.0270 O.2   225  LYS225     -0.2867
    125  CB       -10.6380    3.9810  -28.7330 C.3   225  LYS225      0.0271
    126  CG       -11.5740    2.8480  -28.3750 C.3   225  LYS225      0.0035
    127  CD       -10.9940    2.0360  -27.2210 C.3   225  LYS225      0.0206
    128  CE       -11.9600    0.9920  -26.7900 C.3   225  LYS225      0.1093
    129  NZ       -11.5280    0.4270  -25.4770 N.3   225  LYS225     -0.1314
    130  N        -16.2960   -9.4770  -33.2840 N.3   254  MET254     -0.1245
    131  CA       -17.1490   -8.6020  -32.5040 C.3   254  MET254      0.1570
    132  C        -18.6420   -8.8450  -32.7220 C.2   254  MET254      0.2261
    133  O        -19.4580   -8.2690  -31.9930 O.2   254  MET254     -0.2867
    134  CB       -16.8190   -7.1590  -32.8440 C.3   254  MET254      0.0387
    135  CG       -15.3510   -6.7920  -32.6350 C.3   254  MET254      0.0595
    136  SD       -14.9220   -6.6900  -30.8850 S.3   254  MET254     -0.1393
    137  CE       -15.6360   -5.1850  -30.3610 C.3   254  MET254      0.0692
    138  N        -20.4740   -7.6410  -34.9390 N.3   256  VAL256     -0.1245
    139  CA       -21.0660   -6.4350  -35.5100 C.3   256  VAL256      0.1561
    140  C        -20.1200   -5.9290  -36.5840 C.2   256  VAL256      0.2260
    141  O        -18.9520   -6.3060  -36.6300 O.2   256  VAL256     -0.2867
    142  CB       -21.3440   -5.3150  -34.4680 C.3   256  VAL256      0.0252
    143  CG1      -22.2310   -5.8350  -33.3660 C.3   256  VAL256      0.0019
    144  CG2      -20.0460   -4.7730  -33.8740 C.3   256  VAL256      0.0019
    145  N        -19.7460   -0.6820  -34.6090 N.3   261  TYR261     -0.1241
    146  CA       -18.9340   -0.4090  -33.4320 C.3   261  TYR261      0.1605
    147  C        -18.6100    1.0810  -33.3390 C.2   261  TYR261      0.2264
    148  O        -18.6810    1.6900  -32.2580 O.2   261  TYR261     -0.2867
    149  CB       -17.6640   -1.2730  -33.4570 C.3   261  TYR261      0.0534
    150  CG       -16.7530   -0.9610  -32.3040 C.ar  261  TYR261     -0.0201
    151  CD1      -15.5440   -0.2830  -32.4850 C.ar  261  TYR261     -0.0009
    152  CD2      -17.1360   -1.2860  -31.0080 C.ar  261  TYR261     -0.0009
    153  CE1      -14.7470    0.0220  -31.3930 C.ar  261  TYR261      0.0417
    154  CE2      -16.3410   -0.9910  -29.9230 C.ar  261  TYR261      0.0417
    155  CZ       -15.1570   -0.3180  -30.1200 C.ar  261  TYR261      0.1957
    156  OH       -14.3810   -0.0010  -29.0370 O.3   261  TYR261     -0.2866
    157  N        -21.3240    2.6710  -31.7180 N.3   264  MET264     -0.1245
    158  CA       -21.3600    2.4350  -30.2760 C.3   264  MET264      0.1570
    159  C        -20.4100    3.3650  -29.5420 C.2   264  MET264      0.2261
    160  O        -20.6490    3.7160  -28.3830 O.2   264  MET264     -0.2867
    161  CB       -21.0150    0.9770  -29.9820 C.3   264  MET264      0.0387
    162  CG       -22.0140    0.0330  -30.5960 C.3   264  MET264      0.0595
    163  SD       -21.5450   -1.6750  -30.2950 S.3   264  MET264     -0.1393
    164  CE       -22.0250   -1.8020  -28.5660 C.3   264  MET264      0.0692
@<TRIPOS>BOND
     1   141   140    2
     2   140   139    1
     3   139   138    1
     4   139   142    1
     5   145   146    1
     6   142   144    1
     7   142   143    1
     8   149   146    1
     9   149   150    1
    10   146   147    1
    11   147   148    2
    12   130   131    1
    13   113   114    1
    14   134   135    1
    15   134   131    1
    16   132   131    1
    17   132   133    2
    18   135   136    1
    19   151   150   ar
    20   151   153   ar
    21   150   152   ar
    22   114   115    1
    23   114   117    1
    24   118   117    1
    25   118   120    1
    26   157   158    1
    27   115   116    2
    28   153   155   ar
    29   121   122    1
    30   117   119    1
    31   152   154   ar
    32   136   137    1
    33   162   163    1
    34   162   161    1
    35   163   164    1
    36   158   161    1
    37   158   159    1
    38   155   154   ar
    39   155   156    1
    40   122   123    1
    41   122   125    1
    42   123   124    2
    43   159   160    2
    44    44    45    1
    45    35    34    1
    46    35    36    2
    47    45    46    1
    48    45    48    1
    49    50    49    1
    50   125   126    1
    51    34    33    1
    52    34    37    1
    53   126   127    1
    54    46    47    2
    55    48    49    1
    56    39    41   ar
    57    39    38   ar
    58    30    28   ar
    59    30    31   ar
    60    28    26   ar
    61    41    43   ar
    62    49    51    1
    63    37    38    1
    64    38    40   ar
    65   127   128    1
    66    22    23    1
    67    22    21    1
    68    22    25    1
    69    23    24    2
    70   128   129    1
    71    32    31    1
    72    18    16   ar
    73    18    19   ar
    74    31    29   ar
    75    43    42   ar
    76    26    25    1
    77    26    27   ar
    78    20    19    1
    79    40    42   ar
    80    16    14   ar
    81    19    17   ar
    82    83    82    2
    83    29    27   ar
    84     8     6   am
    85    80    81    1
    86    14    13    1
    87    14    15   ar
    88    82    81    1
    89    17    15   ar
    90     6     7    2
    91     6     5    1
    92    13    10    1
    93    81    84    1
    94    10    11    1
    95    10     9    1
    96    60    59    1
    97    94    93    2
    98    59    58    1
    99     5     2    1
   100    11    12    2
   101    91    92    1
   102    86    88   ar
   103    86    85   ar
   104    88    90   ar
   105    85    84    1
   106    85    87   ar
   107    90    89   ar
   108    93    92    1
   109    87    89   ar
   110    58    57    1
   111     2     3    1
   112     2     1    1
   113    92    95    1
   114    95    96    1
   115     3     4    2
   116    57    56    1
   117   112   110    1
   118   111   110    1
   119    78    77    1
   120   110   107    1
   121    96    98    1
   122    96    97    1
   123   105   103    1
   124   102   101    2
   125   103   104    1
   126   103   100    1
   127    56    53    1
   128    99   100    1
   129    77    76    1
   130    77    79    1
   131   109   108    2
   132    76    73    1
   133   101   100    1
   134   107   108    1
   135   107   106    1
   136    69    71   ar
   137    69    67   ar
   138    71    70   ar
   139    67    66   ar
   140    53    52    1
   141    53    54    1
   142    70    68   ar
   143    66    68   ar
   144    66    65    1
   145    74    75    2
   146    74    73    1
   147    73    72    1
   148    65    62    1
   149    54    55    2
   150    62    61    1
   151    62    63    1
   152    63    64    2
