@<TRIPOS>MOLECULE
tmp/4mlpC00.pdb
 170 168 0 0 0
SMALL
GASTEIGER

@<TRIPOS>ATOM
      1  N         49.9890    3.0000  102.7990 N.3   287  GLN287     -0.1245
      2  CA        50.1790    4.4210  102.8170 C.3   287  GLN287      0.1566
      3  C         49.6790    5.0800  101.5580 C.2   287  GLN287      0.2260
      4  O         49.0760    6.0930  101.6220 O.2   287  GLN287     -0.2867
      5  CB        51.6340    4.7660  103.0690 C.3   287  GLN287      0.0367
      6  CG        52.1080    4.4070  104.4720 C.3   287  GLN287      0.0905
      7  CD        51.2510    5.0030  105.5890 C.2   287  GLN287      0.2608
      8  OE1       51.2440    6.1880  105.8020 O.2   287  GLN287     -0.2717
      9  NE2       50.5140    4.1640  106.2770 N.am  287  GLN287     -0.0878
     10  N         45.5580    4.6010  101.4230 N.3   290  TRP290     -0.1227
     11  CA        44.7990    5.4970  102.2590 C.3   290  TRP290      0.1737
     12  C         44.7240    6.8780  101.5780 C.2   290  TRP290      0.2595
     13  O         43.7230    7.4850  101.5430 O.2   290  TRP290     -0.2718
     14  CB        45.3590    5.5650  103.6730 C.3   290  TRP290      0.0564
     15  CG        44.8050    4.5590  104.5570 C.ar  290  TRP290      0.0003
     16  CD1       45.3750    3.4100  104.9200 C.ar  290  TRP290      0.0946
     17  CD2       43.5340    4.5800  105.1780 C.ar  290  TRP290      0.0152
     18  NE1       44.5670    2.7110  105.7400 N.ar  290  TRP290     -0.2442
     19  CE2       43.4180    3.4100  105.9170 C.ar  290  TRP290      0.0810
     20  CE3       42.4870    5.4770  105.1880 C.ar  290  TRP290      0.0012
     21  CZ2       42.3180    3.1270  106.6670 C.ar  290  TRP290      0.0191
     22  CZ3       41.4060    5.1910  105.9170 C.ar  290  TRP290      0.0001
     23  CH2       41.3240    4.0310  106.6620 C.ar  290  TRP290      0.0015
     24  N         45.8270    7.2770  100.9960 N.am  291  ARG291     -0.1980
     25  CA        45.8980    8.5070  100.2480 C.3   291  ARG291      0.1597
     26  C         44.9110    8.4500   99.0780 C.2   291  ARG291      0.2287
     27  O         44.1240    9.3130   98.9390 O.2   291  ARG291     -0.2864
     28  CB        47.3410    8.7080   99.8100 C.3   291  ARG291      0.0334
     29  CG        47.6490    9.6720   98.7060 C.3   291  ARG291      0.0492
     30  CD        49.1500    9.7100   98.4310 C.3   291  ARG291      0.2205
     31  NE        49.5550   10.8140   97.5910 N.pl3 291  ARG291     -0.0865
     32  CZ        49.5530   10.7800   96.2720 C.cat 291  ARG291      0.5346
     33  NH1       49.1810    9.6930   95.6520 N.pl3 291  ARG291      0.1354
     34  NH2       49.8810   11.8320   95.5850 N.pl3 291  ARG291      0.1354
     35  N         41.1500    8.8200  100.2850 N.3   294  PHE294     -0.1241
     36  CA        40.7290   10.1690  100.5820 C.3   294  PHE294      0.1605
     37  C         40.5280   11.0040   99.3170 C.2   294  PHE294      0.2264
     38  O         39.5820   11.7000   99.2040 O.2   294  PHE294     -0.2867
     39  CB        41.6570   10.8320  101.5740 C.3   294  PHE294      0.0534
     40  CG        41.5590   10.2990  102.9520 C.ar  294  PHE294     -0.0203
     41  CD1       40.3730   10.2110  103.5750 C.ar  294  PHE294     -0.0042
     42  CD2       42.6730    9.9110  103.6200 C.ar  294  PHE294     -0.0042
     43  CE1       40.2880    9.7550  104.8690 C.ar  294  PHE294     -0.0003
     44  CE2       42.6140    9.4410  104.9020 C.ar  294  PHE294     -0.0003
     45  CZ        41.4080    9.3550  105.5300 C.ar  294  PHE294     -0.0000
     46  N         52.3040   10.1300  112.2650 N.3   353  HIS353     -0.1241
     47  CA        50.8630    9.9700  112.1380 C.3   353  HIS353      0.1621
     48  C         50.2080    9.8040  113.5030 C.2   353  HIS353      0.2264
     49  O         49.1470   10.2940  113.7280 O.2   353  HIS353     -0.2867
     50  CB        50.4750    8.7750  111.2530 C.3   353  HIS353      0.0745
     51  CG        50.6240    9.0080  109.7820 C.ar  353  HIS353      0.0817
     52  ND1       51.2200   10.1210  109.2520 N.ar  353  HIS353     -0.2268
     53  CD2       50.2620    8.2520  108.7290 C.ar  353  HIS353      0.1154
     54  CE1       51.2260   10.0410  107.9430 C.ar  353  HIS353      0.1986
     55  NE2       50.6470    8.9210  107.6020 N.ar  353  HIS353     -0.2212
     56  N         49.9280   13.0680  115.0830 N.3   356  ARG356     -0.1231
     57  CA        48.7870   13.7270  114.5040 C.3   356  ARG356      0.1694
     58  C         47.4920   13.3690  115.2050 C.2   356  ARG356      0.2592
     59  O         46.7450   14.2090  115.5570 O.2   356  ARG356     -0.2718
     60  CB        48.6930   13.4240  112.9990 C.3   356  ARG356      0.0321
     61  CG        49.8340   14.0030  112.1870 C.3   356  ARG356      0.0489
     62  CD        49.8620   13.5870  110.7320 C.3   356  ARG356      0.2205
     63  NE        51.2090   13.6100  110.2020 N.pl3 356  ARG356     -0.0865
     64  CZ        51.5180   13.7800  108.9420 C.cat 356  ARG356      0.5346
     65  NH1       50.5730   13.9400  108.0450 N.pl3 356  ARG356      0.1354
     66  NH2       52.7710   13.7940  108.5770 N.pl3 356  ARG356      0.1354
     67  N         47.3030   12.1080  115.4660 N.am  357  HIS357     -0.1976
     68  CA        46.1300   11.6730  116.1720 C.3   357  HIS357      0.1656
     69  C         46.0790   12.3150  117.5640 C.2   357  HIS357      0.2291
     70  O         45.0540   12.6820  118.0100 O.2   357  HIS357     -0.2864
     71  CB        46.1020   10.1650  116.2890 C.3   357  HIS357      0.0771
     72  CG        45.9510    9.4590  114.9880 C.ar  357  HIS357      0.0820
     73  ND1       45.1920    9.9440  113.9570 N.ar  357  HIS357     -0.2267
     74  CD2       46.4640    8.2970  114.5490 C.ar  357  HIS357      0.1154
     75  CE1       45.2440    9.1100  112.9440 C.ar  357  HIS357      0.1986
     76  NE2       46.0260    8.1110  113.2760 N.ar  357  HIS357     -0.2212
     77  N         45.2310   16.1260  117.2990 N.3   360  ALA360     -0.1245
     78  CA        43.8920   16.1870  116.7670 C.3   360  ALA360      0.1562
     79  C         42.8200   15.7770  117.7520 C.2   360  ALA360      0.2260
     80  O         41.8310   16.4080  117.8430 O.2   360  ALA360     -0.2867
     81  CB        43.7990   15.3810  115.4860 C.3   360  ALA360      0.0290
     82  N         46.9900   22.5950  110.0770 N.3   379  PHE379     -0.1241
     83  CA        47.7700   21.6110  109.3680 C.3   379  PHE379      0.1605
     84  C         48.0640   22.0680  107.9310 C.2   379  PHE379      0.2264
     85  O         49.1380   21.9430  107.4790 O.2   379  PHE379     -0.2867
     86  CB        47.0890   20.2510  109.3880 C.3   379  PHE379      0.0534
     87  CG        47.3630   19.4490  110.6180 C.ar  379  PHE379     -0.0203
     88  CD1       47.6990   20.0570  111.7970 C.ar  379  PHE379     -0.0042
     89  CD2       47.2890   18.0880  110.5940 C.ar  379  PHE379     -0.0042
     90  CE1       47.9600   19.3310  112.9230 C.ar  379  PHE379     -0.0003
     91  CE2       47.5460   17.3580  111.7240 C.ar  379  PHE379     -0.0003
     92  CZ        47.8790   17.9820  112.8830 C.ar  379  PHE379     -0.0000
     93  N         51.9620   21.7310  107.7360 N.3   383  LEU383     -0.1245
     94  CA        52.2900   20.3590  107.4590 C.3   383  LEU383      0.1561
     95  C         52.6070   20.1190  106.0080 C.2   383  LEU383      0.2260
     96  O         51.7790   20.2910  105.1800 O.2   383  LEU383     -0.2867
     97  CB        51.1330   19.4870  107.8570 C.3   383  LEU383      0.0270
     98  CG        51.2280   18.1990  108.6270 C.3   383  LEU383      0.0019
     99  CD1       50.0360   17.3280  108.4040 C.3   383  LEU383      0.0001
    100  CD2       52.5060   17.4240  108.5900 C.3   383  LEU383      0.0001
    101  N         52.8470   17.4550  104.1240 N.3   385  ASP385     -0.1225
    102  CA        52.1880   16.4420  103.3670 C.3   385  ASP385      0.1805
    103  C         50.6830   16.5860  103.4130 C.2   385  ASP385      0.2597
    104  O         49.9700   15.7280  103.0380 O.2   385  ASP385     -0.2718
    105  CB        52.6440   15.0600  103.7530 C.3   385  ASP385      0.1424
    106  CG        52.4130   14.7360  105.1960 C.2   385  ASP385      0.3668
    107  OD1       51.5690   15.3460  105.8270 O.co2 385  ASP385     -0.2456
    108  OD2       53.0850   13.8450  105.6800 O.co2 385  ASP385     -0.2456
    109  N         50.2520   17.7160  103.9010 N.am  386  ALA386     -0.1979
    110  CA        48.8610   18.0080  103.9860 C.3   386  ALA386      0.1597
    111  C         48.3610   18.5490  102.6650 C.2   386  ALA386      0.2287
    112  O         48.8820   19.4910  102.1470 O.2   386  ALA386     -0.2864
    113  CB        48.6190   19.0090  105.0920 C.3   386  ALA386      0.0319
    114  N         43.6640   14.5060  101.7580 N.3   390  VAL390     -0.1231
    115  CA        44.1640   13.7130  102.8650 C.3   390  VAL390      0.1692
    116  C         43.9840   14.3690  104.2410 C.2   390  VAL390      0.2592
    117  O         43.7060   13.7210  105.1770 O.2   390  VAL390     -0.2718
    118  CB        45.6120   13.2420  102.6220 C.3   390  VAL390      0.0266
    119  CG1       46.0790   12.3390  103.7170 C.3   390  VAL390      0.0020
    120  CG2       45.6770   12.4580  101.3360 C.3   390  VAL390      0.0020
    121  N         44.2040   15.6700  104.3190 N.am  391  ASN391     -0.1974
    122  CA        44.0840   16.3980  105.5590 C.3   391  ASN391      0.1688
    123  C         42.6570   16.4580  106.0610 C.2   391  ASN391      0.2292
    124  O         42.3910   16.0160  107.1150 O.2   391  ASN391     -0.2864
    125  CB        44.6510   17.7850  105.3080 C.3   391  ASN391      0.1181
    126  CG        44.8620   18.6200  106.5650 C.2   391  ASN391      0.2629
    127  OD1       45.0460   18.1320  107.6460 O.2   391  ASN391     -0.2716
    128  ND2       44.8550   19.8900  106.3690 N.am  391  ASN391     -0.0877
    129  N         41.3180   12.9150  106.9510 N.3   394  SER394     -0.1202
    130  CA        41.8940   12.4580  108.1900 C.3   394  SER394      0.2020
    131  C         41.2790   13.1090  109.4160 C.2   394  SER394      0.2618
    132  O         41.0110   12.4340  110.3470 O.2   394  SER394     -0.2717
    133  CB        43.3860   12.7250  108.1990 C.3   394  SER394      0.2103
    134  OG        44.0520   11.9170  107.2950 O.3   394  SER394     -0.2182
    135  N         41.0730   14.4190  109.3720 N.am  395  TRP395     -0.1975
    136  CA        40.4740   15.1560  110.4540 C.3   395  TRP395      0.1640
    137  C         39.0450   14.6920  110.7290 C.2   395  TRP395      0.2290
    138  O         38.6950   14.5130  111.8330 O.2   395  TRP395     -0.2864
    139  CB        40.5670   16.6890  110.2230 C.3   395  TRP395      0.0576
    140  CG        41.8590   17.2550  110.6030 C.ar  395  TRP395      0.0006
    141  CD1       42.9090   17.4300  109.8280 C.ar  395  TRP395      0.0946
    142  CD2       42.2480   17.6690  111.8890 C.ar  395  TRP395      0.0152
    143  NE1       43.9390   17.9640  110.5110 N.ar  395  TRP395     -0.2442
    144  CE2       43.5500   18.1230  111.7970 C.ar  395  TRP395      0.0810
    145  CE3       41.6050   17.7450  113.1040 C.ar  395  TRP395      0.0012
    146  CZ2       44.2210   18.6090  112.8640 C.ar  395  TRP395      0.0191
    147  CZ3       42.2690   18.1990  114.1440 C.ar  395  TRP395      0.0001
    148  CH2       43.5610   18.6440  114.0330 C.ar  395  TRP395      0.0015
    149  N         37.8890   11.7020  109.9560 N.3   397  TRP397     -0.1227
    150  CA        37.9950   10.3370  110.3890 C.3   397  TRP397      0.1737
    151  C         38.3060   10.3310  111.8690 C.2   397  TRP397      0.2595
    152  O         37.6020    9.7810  112.6160 O.2   397  TRP397     -0.2718
    153  CB        39.1330    9.6560  109.6500 C.3   397  TRP397      0.0564
    154  CG        39.3550    8.1730  109.9560 C.ar  397  TRP397      0.0003
    155  CD1       38.8050    7.1180  109.3090 C.ar  397  TRP397      0.0946
    156  CD2       40.2220    7.6180  110.9350 C.ar  397  TRP397      0.0152
    157  NE1       39.2610    5.9500  109.8320 N.ar  397  TRP397     -0.2442
    158  CE2       40.1370    6.2340  110.8330 C.ar  397  TRP397      0.0810
    159  CE3       41.0710    8.1620  111.8850 C.ar  397  TRP397      0.0012
    160  CZ2       40.8520    5.3910  111.6440 C.ar  397  TRP397      0.0191
    161  CZ3       41.7810    7.3110  112.7020 C.ar  397  TRP397      0.0001
    162  CH2       41.6690    5.9490  112.5680 C.ar  397  TRP397      0.0015
    163  N         39.3120   11.0620  112.2720 N.am  398  LEU398     -0.1980
    164  CA        39.7270   11.0870  113.6370 C.3   398  LEU398      0.1596
    165  C         38.6710   11.5940  114.6120 C.2   398  LEU398      0.2287
    166  O         38.5560   11.1040  115.6880 O.2   398  LEU398     -0.2864
    167  CB        40.9820   11.9090  113.7660 C.3   398  LEU398      0.0297
    168  CG        41.4290   11.9870  115.2090 C.3   398  LEU398      0.0022
    169  CD1       42.8650   11.6360  115.3830 C.3   398  LEU398      0.0001
    170  CD2       41.0680   13.2990  115.8430 C.3   398  LEU398      0.0001
@<TRIPOS>BOND
     1    34    32    1
     2    33    32    1
     3    32    31    2
     4    31    30    1
     5    30    29    1
     6    29    28    1
     7    27    26    2
     8    26    25    1
     9    38    37    2
    10    37    36    1
    11    28    25    1
    12    25    24    1
    13    35    36    1
    14    36    39    1
    15    24    12   am
    16   120   118    1
    17    10    11    1
    18    13    12    2
    19     3     4    2
    20     3     2    1
    21    39    40    1
    22    12    11    1
    23   114   115    1
    24   112   111    2
    25    11    14    1
    26   118   115    1
    27   118   119    1
    28   111   110    1
    29     1     2    1
    30     2     5    1
    31   115   116    1
    32    40    41   ar
    33    40    42   ar
    34   104   103    2
    35     5     6    1
    36   102   103    1
    37   102   105    1
    38   102   101    1
    39   103   109   am
    40    41    43   ar
    41    42    44   ar
    42    14    15    1
    43   105   106    1
    44   109   110    1
    45   110   113    1
    46   116   121   am
    47   116   117    2
    48   121   122    1
    49     6     7    1
    50    15    16   ar
    51    15    17   ar
    52    43    45   ar
    53    44    45   ar
    54    16    18   ar
    55    17    20   ar
    56    17    19   ar
    57    96    95    2
    58    20    22   ar
    59   106   108   ar
    60   106   107   ar
    61   125   122    1
    62   125   126    1
    63   122   123    1
    64     7     8    2
    65     7     9   am
    66    18    19   ar
    67    22    23   ar
    68    19    21   ar
    69    95    94    1
    70   123   124    2
    71   128   126   am
    72   126   127    2
    73    23    21   ar
    74   129   130    1
    75   134   133    1
    76    94    93    1
    77    94    97    1
    78    85    84    2
    79    55    54   ar
    80    55    53   ar
    81    97    98    1
    82    84    83    1
    83    54    52   ar
    84    65    64    1
    85   130   133    1
    86   130   131    1
    87    99    98    1
    88    66    64    1
    89   100    98    1
    90    53    51   ar
    91    64    63    2
    92    52    51   ar
    93   155   157   ar
    94   155   154   ar
    95    83    86    1
    96    83    82    1
    97   135   131   am
    98   135   136    1
    99    86    87    1
   100   131   132    2
   101   153   154    1
   102   153   150    1
   103    51    50    1
   104   141   143   ar
   105   141   140   ar
   106   157   158   ar
   107   154   156   ar
   108   149   150    1
   109    63    62    1
   110   139   136    1
   111   139   140    1
   112   150   151    1
   113   136   137    1
   114   143   144   ar
   115    89    87   ar
   116    89    91   ar
   117   140   142   ar
   118    87    88   ar
   119   137   138    2
   120    62    61    1
   121   158   156   ar
   122   158   160   ar
   123   156   159   ar
   124    50    47    1
   125   160   162   ar
   126    91    92   ar
   127   144   142   ar
   128   144   146   ar
   129    88    90   ar
   130   151   163   am
   131   151   152    2
   132   159   161   ar
   133   142   145   ar
   134    47    46    1
   135    47    48    1
   136    61    60    1
   137   163   164    1
   138   162   161   ar
   139   146   148   ar
   140    92    90   ar
   141    75    76   ar
   142    75    73   ar
   143    60    57    1
   144   145   147   ar
   145    76    74   ar
   146    48    49    2
   147   164   167    1
   148   164   165    1
   149   167   168    1
   150    73    72   ar
   151   148   147   ar
   152    57    56    1
   153    57    58    1
   154    74    72   ar
   155   165   166    2
   156    72    71    1
   157    58    67   am
   158    58    59    2
   159   168   169    1
   160   168   170    1
   161    67    68    1
   162    81    78    1
   163    68    71    1
   164    68    69    1
   165    78    77    1
   166    78    79    1
   167    69    70    2
   168    79    80    2
