@<TRIPOS>MOLECULE
tmp/4mlsA00.pdb
 172 169 0 0 0
SMALL
GASTEIGER

@<TRIPOS>ATOM
      1  N         83.6970   44.7500   10.1920 N.3     7  PHE7       -0.1227
      2  CA        83.9750   46.1500    9.9150 C.3     7  PHE7        0.1736
      3  C         85.4040   46.3150    9.4140 C.2     7  PHE7        0.2596
      4  O         86.3510   45.9100   10.0750 O.2     7  PHE7       -0.2718
      5  CB        83.7450   47.0160   11.1680 C.3     7  PHE7        0.0547
      6  CG        84.1390   48.4510   10.9760 C.ar    7  PHE7       -0.0202
      7  CD1       83.2850   49.3380   10.3490 C.ar    7  PHE7       -0.0042
      8  CD2       85.3780   48.9030   11.3850 C.ar    7  PHE7       -0.0042
      9  CE1       83.6560   50.6620   10.1370 C.ar    7  PHE7       -0.0003
     10  CE2       85.7560   50.2210   11.1760 C.ar    7  PHE7       -0.0003
     11  CZ        84.8930   51.1030   10.5510 C.ar    7  PHE7       -0.0000
     12  N         85.5420   46.9060    8.2320 N.am    8  SER8       -0.1938
     13  CA        86.8470   47.1780    7.6410 C.3     8  SER8        0.2055
     14  C         87.0750   48.6690    7.5520 C.2     8  SER8        0.2643
     15  O         86.2320   49.3890    7.0390 O.2     8  SER8       -0.2714
     16  CB        86.9190   46.6050    6.2320 C.3     8  SER8        0.2130
     17  OG        87.0540   45.1980    6.2590 O.3     8  SER8       -0.2179
     18  N         88.2070   49.1420    8.0580 N.am    9  LYS9       -0.1963
     19  CA        88.5890   50.5350    7.8540 C.3     9  LYS9        0.1728
     20  C         89.7590   50.5450    6.8950 C.2     9  LYS9        0.2616
     21  O         90.7950   49.9470    7.1640 O.2     9  LYS9       -0.2715
     22  CB        88.9670   51.2390    9.1620 C.3     9  LYS9        0.0311
     23  CG        89.3580   52.7130    8.9760 C.3     9  LYS9        0.0038
     24  CD        88.1410   53.6520    8.8730 C.3     9  LYS9        0.0206
     25  CE        88.5580   55.1340    8.8160 C.3     9  LYS9        0.1093
     26  NZ        89.0570   55.5740    7.5030 N.3     9  LYS9       -0.1314
     27  N         89.5870   51.2330    5.7800 N.am   10  ARG10      -0.1963
     28  CA        90.5110   51.0680    4.6610 C.3    10  ARG10       0.1729
     29  C         91.0240   52.3890    4.1280 C.2    10  ARG10       0.2616
     30  O         90.5000   53.4530    4.4590 O.2    10  ARG10      -0.2715
     31  CB        89.8150   50.3340    3.5200 C.3    10  ARG10       0.0348
     32  CG        89.0460   49.1270    3.9430 C.3    10  ARG10       0.0492
     33  CD        89.6800   47.8440    3.4540 C.3    10  ARG10       0.2205
     34  NE        88.6550   46.8200    3.3310 N.pl3  10  ARG10      -0.0865
     35  CZ        87.9090   46.6510    2.2450 C.cat  10  ARG10       0.5346
     36  NH1       88.1000   47.4240    1.1770 N.pl3  10  ARG10       0.1354
     37  NH2       86.9820   45.7060    2.2150 N.pl3  10  ARG10       0.1354
     38  N         92.0580   52.3220    3.2980 N.am   11  ASP11      -0.1957
     39  CA        92.4400   53.4910    2.5510 C.3    11  ASP11       0.1840
     40  C         91.8310   53.3460    1.1660 C.2    11  ASP11       0.2622
     41  O         91.0820   52.4070    0.9170 O.2    11  ASP11      -0.2715
     42  CB        93.9610   53.6550    2.5190 C.3    11  ASP11       0.1450
     43  CG        94.6790   52.4930    1.8400 C.2    11  ASP11       0.3671
     44  OD1       94.0600   51.7360    1.0600 O.co2  11  ASP11      -0.2456
     45  OD2       95.8960   52.3490    2.0730 O.co2  11  ASP11      -0.2456
     46  N         92.1670   54.2530    0.2610 N.am   12  GLU12      -0.1963
     47  CA        91.5700   54.2510   -1.0750 C.3    12  GLU12       0.1733
     48  C         92.0590   53.1320   -1.9920 C.2    12  GLU12       0.2616
     49  O         91.3930   52.7890   -2.9630 O.2    12  GLU12      -0.2715
     50  CB        91.7450   55.6170   -1.7290 C.3    12  GLU12       0.0429
     51  CG        91.0920   56.7110   -0.9230 C.3    12  GLU12       0.1163
     52  CD        91.0940   58.0310   -1.6280 C.2    12  GLU12       0.3649
     53  OE1       91.4060   59.0470   -0.9800 O.co2  12  GLU12      -0.2457
     54  OE2       90.7830   58.0610   -2.8390 O.co2  12  GLU12      -0.2457
     55  N         93.2090   52.5530   -1.6720 N.am   13  ASP13      -0.1957
     56  CA        93.7090   51.4080   -2.4220 C.3    13  ASP13       0.1840
     57  C         93.0370   50.1310   -1.9470 C.2    13  ASP13       0.2622
     58  O         93.2850   49.0530   -2.4860 O.2    13  ASP13      -0.2715
     59  CB        95.2180   51.2890   -2.2620 C.3    13  ASP13       0.1450
     60  CG        95.9140   52.5930   -2.4940 C.2    13  ASP13       0.3671
     61  OD1       95.5740   53.2570   -3.4930 O.co2  13  ASP13      -0.2456
     62  OD2       96.7780   52.9630   -1.6730 O.co2  13  ASP13      -0.2456
     63  N         92.1940   50.2560   -0.9270 N.am   14  GLY14      -0.1954
     64  CA        91.4230   49.1300   -0.4430 C.3    14  GLY14       0.1869
     65  C         92.2150   48.2650    0.5090 C.2    14  GLY14       0.2309
     66  O         91.8940   47.0970    0.7020 O.2    14  GLY14      -0.2863
     67  N         93.4690   49.9910    7.0930 N.3    17  LEU17      -0.1245
     68  CA        94.1630   51.1900    7.5340 C.3    17  LEU17       0.1561
     69  C         94.2340   51.2620    9.0480 C.2    17  LEU17       0.2260
     70  O         93.1960   51.2440    9.7130 O.2    17  LEU17      -0.2867
     71  CB        93.4500   52.4360    7.0140 C.3    17  LEU17       0.0270
     72  CG        94.1050   53.7560    7.4190 C.3    17  LEU17       0.0019
     73  CD1       95.5020   53.8330    6.8400 C.3    17  LEU17       0.0001
     74  CD2       93.2800   54.9330    6.9480 C.3    17  LEU17       0.0001
     75  N         87.7330   54.8630   16.4330 N.3    22  MET22      -0.1245
     76  CA        86.3980   54.4790   15.9790 C.3    22  MET22       0.1570
     77  C         85.4880   54.2250   17.1620 C.2    22  MET22       0.2261
     78  O         85.9310   53.6760   18.1680 O.2    22  MET22      -0.2867
     79  CB        86.4710   53.1750   15.1820 C.3    22  MET22       0.0387
     80  CG        87.2290   53.2790   13.8660 C.3    22  MET22       0.0595
     81  SD        86.3400   54.3440   12.7240 S.3    22  MET22      -0.1393
     82  CE        84.6400   53.7950   12.9630 C.3    22  MET22       0.0692
     83  N         78.5880   53.4630   13.0470 N.3    53  PHE53      -0.1241
     84  CA        80.0430   53.4470   13.1670 C.3    53  PHE53       0.1605
     85  C         80.5300   54.8730   13.0080 C.2    53  PHE53       0.2264
     86  O         80.2800   55.5040   11.9750 O.2    53  PHE53      -0.2867
     87  CB        80.6560   52.6170   12.0510 C.3    53  PHE53       0.0534
     88  CG        80.6190   51.1480   12.2950 C.ar   53  PHE53      -0.0203
     89  CD1       81.3680   50.5890   13.3110 C.ar   53  PHE53      -0.0042
     90  CD2       79.8670   50.3160   11.4780 C.ar   53  PHE53      -0.0042
     91  CE1       81.3530   49.2090   13.5310 C.ar   53  PHE53      -0.0003
     92  CE2       79.8460   48.9370   11.6840 C.ar   53  PHE53      -0.0003
     93  CZ        80.5850   48.3830   12.7160 C.ar   53  PHE53      -0.0000
     94  N         83.7890   57.5930   13.0600 N.3    55  GLU55      -0.1245
     95  CA        85.2320   57.8480   13.1150 C.3    55  GLU55       0.1567
     96  C         85.4570   59.1260   13.9050 C.2    55  GLU55       0.2260
     97  O         85.0250   60.2000   13.4830 O.2    55  GLU55      -0.2867
     98  CB        85.8390   57.9910   11.7070 C.3    55  GLU55       0.0388
     99  CG        87.2970   58.4730   11.7490 C.3    55  GLU55       0.1160
    100  CD        88.0910   58.2210   10.4690 C.2    55  GLU55       0.3649
    101  OE1       87.5350   58.4130    9.3600 O.co2  55  GLU55      -0.2457
    102  OE2       89.2880   57.8590   10.5870 O.co2  55  GLU55      -0.2457
    103  N         91.0790   60.5470   12.6070 N.3    58  ALA58      -0.1231
    104  CA        91.7620   59.8850   11.5060 C.3    58  ALA58       0.1679
    105  C         93.2630   59.9890   11.6860 C.2    58  ALA58       0.2434
    106  O         93.7610   60.9410   12.2880 O.2    58  ALA58      -0.2733
    107  CB        91.3540   60.4880   10.1840 C.3    58  ALA58       0.0304
    108  N         93.9950   58.9950   11.1750 N.am   59  PRO59      -0.2718
    109  CA        95.4530   59.0850   11.1970 C.3    59  PRO59       0.1535
    110  C         95.9320   60.2140   10.3110 C.2    59  PRO59       0.2599
    111  O         95.2740   60.5730    9.3180 O.2    59  PRO59      -0.2715
    112  CB        95.9120   57.7320   10.6330 C.3    59  PRO59       0.0310
    113  CG        94.7080   57.0950   10.0470 C.3    59  PRO59       0.0237
    114  CD        93.5240   57.6640   10.7660 C.3    59  PRO59       0.0939
    115  N         97.0700   60.7780   10.6810 N.am   60  ASP60      -0.1958
    116  CA        97.6200   61.8920    9.9430 C.3    60  ASP60       0.1840
    117  C         97.7430   61.5490    8.4650 C.2    60  ASP60       0.2623
    118  O         98.1160   60.4340    8.1030 O.2    60  ASP60      -0.2715
    119  CB        98.9760   62.2970   10.5050 C.3    60  ASP60       0.1450
    120  CG        99.4980   63.5630    9.8710 C.2    60  ASP60       0.3671
    121  OD1       98.8410   64.6060   10.0490 O.co2  60  ASP60      -0.2456
    122  OD2      100.5480   63.5190    9.1960 O.co2  60  ASP60      -0.2456
    123  N         97.3940   62.5100    7.6190 N.am   61  GLY61      -0.1940
    124  CA        97.3900   62.3030    6.1860 C.3    61  GLY61       0.2014
    125  C         96.0530   61.8130    5.6710 C.2    61  GLY61       0.2639
    126  O         95.8700   61.6930    4.4480 O.2    61  GLY61      -0.2714
    127  N         95.1230   61.5330    6.5860 N.am   62  TYR62      -0.1959
    128  CA        93.8260   60.9750    6.2090 C.3    62  TYR62       0.1771
    129  C         92.6580   61.8040    6.7040 C.2    62  TYR62       0.2619
    130  O         92.7450   62.4680    7.7280 O.2    62  TYR62      -0.2715
    131  CB        93.6760   59.5240    6.6810 C.3    62  TYR62       0.0574
    132  CG        94.6820   58.5770    6.0560 C.ar   62  TYR62      -0.0198
    133  CD1       95.9950   58.5380    6.5030 C.ar   62  TYR62      -0.0009
    134  CD2       94.3210   57.7230    5.0220 C.ar   62  TYR62      -0.0009
    135  CE1       96.9330   57.6810    5.9280 C.ar   62  TYR62       0.0417
    136  CE2       95.2580   56.8550    4.4340 C.ar   62  TYR62       0.0417
    137  CZ        96.5620   56.8410    4.8950 C.ar   62  TYR62       0.1957
    138  OH        97.4940   55.9890    4.3410 O.3    62  TYR62      -0.2866
    139  N         91.5640   61.7440    5.9580 N.am   63  GLU63      -0.1977
    140  CA        90.3770   62.5400    6.2150 C.3    63  GLU63       0.1602
    141  C         89.3880   61.7190    6.9880 C.2    63  GLU63       0.2287
    142  O         89.2790   60.5120    6.7760 O.2    63  GLU63      -0.2864
    143  CB        89.7300   62.9580    4.8970 C.3    63  GLU63       0.0415
    144  CG        90.5400   63.9680    4.1230 C.3    63  GLU63       0.1163
    145  CD        90.3630   65.3710    4.6680 C.2    63  GLU63       0.3649
    146  OE1       89.2810   65.6430    5.2400 O.co2  63  GLU63      -0.2457
    147  OE2       91.2960   66.1960    4.5260 O.co2  63  GLU63      -0.2457
    148  N         86.1430   60.0120    7.7890 N.3    65  ALA65      -0.1231
    149  CA        85.0600   59.4690    6.9910 C.3    65  ALA65       0.1694
    150  C         83.7070   59.8400    7.5790 C.2    65  ALA65       0.2593
    151  O         83.5740   59.9880    8.7930 O.2    65  ALA65      -0.2718
    152  CB        85.1890   57.9630    6.9340 C.3    65  ALA65       0.0304
    153  N         82.7060   59.9770    6.7170 N.am   66  THR66      -0.1939
    154  CA        81.3370   60.1960    7.1590 C.3    66  THR66       0.2028
    155  C         80.8330   58.9540    7.8560 C.2    66  THR66       0.2642
    156  O         81.0420   57.8420    7.3710 O.2    66  THR66      -0.2714
    157  CB        80.4210   60.4960    5.9850 C.3    66  THR66       0.1808
    158  OG1       80.7990   61.7510    5.4200 O.3    66  THR66      -0.2208
    159  CG2       78.9720   60.5790    6.4400 C.3    66  THR66       0.0379
    160  N         80.1780   59.1490    9.0020 N.am   67  ALA67      -0.1963
    161  CA        79.6870   58.0440    9.8230 C.3    67  ALA67       0.1728
    162  C         78.7410   57.1570    9.0320 C.2    67  ALA67       0.2616
    163  O         78.0480   57.6310    8.1180 O.2    67  ALA67      -0.2715
    164  CB        78.9970   58.5740   11.0590 C.3    67  ALA67       0.0334
    165  N         78.7320   55.8690    9.3630 N.am   68  ILE68      -0.1977
    166  CA        77.8920   54.9200    8.6470 C.3    68  ILE68       0.1596
    167  C         76.7890   54.3890    9.5450 C.2    68  ILE68       0.2287
    168  O         77.0610   53.7040   10.5170 O.2    68  ILE68      -0.2864
    169  CB        78.6800   53.7040    8.1380 C.3    68  ILE68       0.0276
    170  CG1       79.7780   54.1240    7.1640 C.3    68  ILE68       0.0022
    171  CG2       77.7440   52.7370    7.4480 C.3    68  ILE68       0.0022
    172  CD1       80.8180   53.0470    6.9740 C.3    68  ILE68       0.0001
@<TRIPOS>BOND
     1    61    60   ar
     2    49    48    2
     3    54    52   ar
     4    60    59    1
     5    60    62   ar
     6    58    57    2
     7    56    59    1
     8    56    57    1
     9    56    55    1
    10    48    55   am
    11    48    47    1
    12    57    63   am
    13    50    47    1
    14    50    51    1
    15    52    53   ar
    16    52    51    1
    17    47    46    1
    18    63    64    1
    19    64    65    1
    20    46    40   am
    21    65    66    2
    22    41    40    2
    23    44    43   ar
    24    40    39    1
    25    36    35    1
    26    43    45   ar
    27    43    42    1
    28    37    35    1
    29    35    34    2
    30    42    39    1
    31    39    38    1
    32    38    29   am
    33    34    33    1
    34    33    32    1
    35    31    32    1
    36    31    28    1
    37   144   145    1
    38   144   143    1
    39    29    30    2
    40    29    28    1
    41   138   137    1
    42   136   137   ar
    43   136   134   ar
    44   126   125    2
    45   147   145   ar
    46    28    27    1
    47   145   146   ar
    48   137   135   ar
    49   143   140    1
    50   134   132   ar
    51   158   157    1
    52   125   124    1
    53   125   127   am
    54    27    20   am
    55   135   133   ar
    56   139   140    1
    57   139   129   am
    58   157   159    1
    59   157   154    1
    60   132   133   ar
    61   132   131    1
    62   124   123    1
    63   128   127    1
    64   128   131    1
    65   128   129    1
    66   140   141    1
    67    16    17    1
    68    16    13    1
    69   129   130    2
    70   153   154    1
    71   153   150   am
    72   142   141    2
    73    73    72    1
    74    20    21    2
    75    20    19    1
    76   152   149    1
    77    74    72    1
    78   172   170    1
    79   149   150    1
    80   149   148    1
    81    71    72    1
    82    71    68    1
    83    15    14    2
    84    67    68    1
    85   154   155    1
    86   170   169    1
    87   156   155    2
    88   171   169    1
    89    26    25    1
    90    68    69    1
    91    14    13    1
    92    14    18   am
    93   150   151    2
    94   123   117   am
    95    13    12    1
    96    19    18    1
    97    19    22    1
    98   155   160   am
    99   118   117    2
   100   163   162    2
   101   169   166    1
   102    12     3   am
   103   117   116    1
   104   166   165    1
   105   166   167    1
   106    25    24    1
   107    24    23    1
   108    23    22    1
   109   160   161    1
   110   162   165   am
   111   162   161    1
   112    69    70    2
   113   122   120   ar
   114   111   110    2
   115   101   100   ar
   116     3     2    1
   117     3     4    2
   118   167   168    2
   119   161   164    1
   120   120   121   ar
   121   120   119    1
   122     2     1    1
   123     2     5    1
   124   116   119    1
   125   116   115    1
   126   113   112    1
   127   113   114    1
   128     9     7   ar
   129     9    11   ar
   130   107   104    1
   131   110   115   am
   132   110   109    1
   133     7     6   ar
   134   100   102   ar
   135   100    99    1
   136    11    10   ar
   137   112   109    1
   138   114   108    1
   139     6     5    1
   140     6     8   ar
   141   108   109    1
   142   108   105   am
   143    10     8   ar
   144    90    92   ar
   145    90    88   ar
   146   104   105    1
   147   104   103    1
   148    92    93   ar
   149   105   106    2
   150    98    99    1
   151    98    95    1
   152    86    85    2
   153    87    88    1
   154    87    84    1
   155    88    89   ar
   156    93    91   ar
   157    81    82    1
   158    81    80    1
   159    85    84    1
   160    83    84    1
   161    94    95    1
   162    95    96    1
   163    89    91   ar
   164    97    96    2
   165    80    79    1
   166    79    76    1
   167    76    75    1
   168    76    77    1
   169    77    78    2
