@<TRIPOS>MOLECULE
tmp/4mltA01.pdb
 128 124 0 0 0
SMALL
GASTEIGER

@<TRIPOS>ATOM
      1  N         17.8630    0.2810    3.5780 N.3    59  ASN59      -0.1240
      2  CA        18.9820    1.1120    4.0140 C.3    59  ASN59       0.1653
      3  C         20.2080    0.2900    4.2770 C.2    59  ASN59       0.2266
      4  O         21.1510    0.7940    4.8880 O.2    59  ASN59      -0.2867
      5  CB        18.6110    1.9600    5.2480 C.3    59  ASN59       0.1155
      6  CG        18.3030    1.1120    6.4980 C.2    59  ASN59       0.2627
      7  OD1       18.5590   -0.1040    6.5500 O.2    59  ASN59      -0.2716
      8  ND2       17.7490    1.7690    7.5140 N.am   59  ASN59      -0.0877
      9  N         12.8450    0.5020    5.8560 N.3    64  ASN64      -0.1240
     10  CA        11.9840    1.4420    6.5610 C.3    64  ASN64       0.1653
     11  C         10.7830    1.8320    5.7210 C.2    64  ASN64       0.2266
     12  O         10.9450    2.1810    4.5740 O.2    64  ASN64      -0.2867
     13  CB        12.7640    2.7380    6.8940 C.3    64  ASN64       0.1155
     14  CG        13.9210    2.5030    7.8360 C.2    64  ASN64       0.2627
     15  OD1       13.9030    1.5900    8.6530 O.2    64  ASN64      -0.2716
     16  ND2       14.9820    3.3040    7.6860 N.am   64  ASN64      -0.0877
     17  N          8.4940    6.3370   11.2700 N.3    89  GLN89      -0.1245
     18  CA         8.8490    5.2040   10.3990 C.3    89  GLN89       0.1566
     19  C          8.5940    3.9050   11.1260 C.2    89  GLN89       0.2260
     20  O          8.4810    3.9300   12.3440 O.2    89  GLN89      -0.2867
     21  CB        10.3110    5.2960    9.9460 C.3    89  GLN89       0.0367
     22  CG        11.3810    5.2890   11.0980 C.3    89  GLN89       0.0905
     23  CD        12.0890    3.9700   11.2070 C.2    89  GLN89       0.2608
     24  OE1       11.4680    2.9040   11.3020 O.2    89  GLN89      -0.2717
     25  NE2       13.3910    4.0180   11.1760 N.am   89  GLN89      -0.0878
     26  N         10.0870   -0.3620   10.9030 N.3    91  HIS91      -0.1241
     27  CA        10.9620   -1.3280   10.2830 C.3    91  HIS91       0.1621
     28  C         10.8410   -2.6080   11.0880 C.2    91  HIS91       0.2264
     29  O         10.1670   -2.6380   12.1220 O.2    91  HIS91      -0.2867
     30  CB        12.4090   -0.8600   10.2870 C.3    91  HIS91       0.0745
     31  CG        12.9260   -0.5490   11.6610 C.ar   91  HIS91       0.0817
     32  ND1       12.6900    0.6560   12.2840 N.ar   91  HIS91      -0.2268
     33  CD2       13.5700   -1.3240   12.5680 C.ar   91  HIS91       0.1154
     34  CE1       13.2310    0.6330   13.4960 C.ar   91  HIS91       0.1986
     35  NE2       13.7850   -0.5540   13.6810 N.ar   91  HIS91      -0.2212
     36  N          9.1830   -2.6020   14.8540 N.3   116  HIS116     -0.1241
     37  CA         9.4250   -1.3950   15.6020 C.3   116  HIS116      0.1621
     38  C          8.7430   -0.1790   14.9710 C.2   116  HIS116      0.2264
     39  O          9.1000    0.2110   13.8660 O.2   116  HIS116     -0.2867
     40  CB        10.9560   -1.1420   15.7150 C.3   116  HIS116      0.0745
     41  CG        11.6680   -2.1100   16.6130 C.ar  116  HIS116      0.0817
     42  ND1       13.0420   -2.2520   16.6300 N.ar  116  HIS116     -0.2268
     43  CD2       11.1970   -2.9690   17.5420 C.ar  116  HIS116      0.1154
     44  CE1       13.3830   -3.1710   17.5140 C.ar  116  HIS116      0.1986
     45  NE2       12.2830   -3.6250   18.0780 N.ar  116  HIS116     -0.2212
     46  N          8.3620    3.7120   15.2920 N.3   118  VAL118     -0.1245
     47  CA         9.2400    4.7280   15.9180 C.3   118  VAL118      0.1561
     48  C          8.5060    6.0320   15.8820 C.2   118  VAL118      0.2260
     49  O          7.9940    6.4360   14.8090 O.2   118  VAL118     -0.2867
     50  CB        10.5950    4.8810   15.1620 C.3   118  VAL118      0.0252
     51  CG1       11.6170    5.8500   15.8780 C.3   118  VAL118      0.0019
     52  CG2       11.2250    3.5410   14.9080 C.3   118  VAL118      0.0019
     53  N         12.6770   15.1690   14.6870 N.3   127  PHE127     -0.1241
     54  CA        13.2840   13.8970   15.1040 C.3   127  PHE127      0.1605
     55  C         14.7270   14.1460   15.5770 C.2   127  PHE127      0.2264
     56  O         15.1560   13.5920   16.5840 O.2   127  PHE127     -0.2867
     57  CB        13.2770   12.8990   13.9410 C.3   127  PHE127      0.0534
     58  CG        13.9650   11.6060   14.2450 C.ar  127  PHE127     -0.0203
     59  CD1       13.2550   10.5670   14.8370 C.ar  127  PHE127     -0.0042
     60  CD2       15.3140   11.4290   13.9550 C.ar  127  PHE127     -0.0042
     61  CE1       13.8660    9.3520   15.1370 C.ar  127  PHE127     -0.0003
     62  CE2       15.9640   10.2110   14.2440 C.ar  127  PHE127     -0.0003
     63  CZ        15.2310    9.1640   14.8560 C.ar  127  PHE127     -0.0000
     64  N         12.1810    9.7280   22.2340 N.3   137  LEU137     -0.1245
     65  CA        11.5360    8.7350   21.3390 C.3   137  LEU137      0.1561
     66  C         10.6600    7.7240   22.1000 C.2   137  LEU137      0.2260
     67  O         10.8740    7.4620   23.3040 O.2   137  LEU137     -0.2867
     68  CB        12.5890    7.9400   20.5820 C.3   137  LEU137      0.0270
     69  CG        13.5480    8.6150   19.5900 C.3   137  LEU137      0.0019
     70  CD1       14.4230    7.5570   18.9260 C.3   137  LEU137      0.0001
     71  CD2       12.8150    9.3870   18.5180 C.3   137  LEU137      0.0001
     72  N          9.1530    3.8060   21.1420 N.3   139  VAL139     -0.1245
     73  CA         9.1080    2.7830   20.1160 C.3   139  VAL139      0.1561
     74  C          8.1220    1.7480   20.5940 C.2   139  VAL139      0.2260
     75  O          8.2010    1.2640   21.7350 O.2   139  VAL139     -0.2867
     76  CB        10.4730    2.2030   19.7540 C.3   139  VAL139      0.0252
     77  CG1       10.3180    1.1380   18.6360 C.3   139  VAL139      0.0019
     78  CG2       11.4910    3.3520   19.3030 C.3   139  VAL139      0.0019
     79  N         18.0050    3.1190   21.0060 N.3   194  LEU194     -0.1231
     80  CA        17.9690    2.5300   19.6830 C.3   194  LEU194      0.1693
     81  C         18.7110    1.1690   19.7290 C.2   194  LEU194      0.2593
     82  O         19.6580    1.0180   20.4930 O.2   194  LEU194     -0.2718
     83  CB        18.6800    3.4510   18.6800 C.3   194  LEU194      0.0284
     84  CG        18.3000    4.9420   18.5240 C.3   194  LEU194      0.0019
     85  CD1       19.0620    5.5650   17.3420 C.3   194  LEU194      0.0001
     86  CD2       16.8000    5.1190   18.3470 C.3   194  LEU194      0.0001
     87  N         18.3270    0.1870   18.9180 N.am  195  THR195     -0.1939
     88  CA        19.0450   -1.0760   18.9700 C.3   195  THR195      0.2028
     89  C         20.0660   -1.1710   17.8110 C.2   195  THR195      0.2643
     90  O         20.7330   -2.2410   17.5970 O.2   195  THR195     -0.2714
     91  CB        18.1180   -2.2680   18.8760 C.3   195  THR195      0.1808
     92  OG1       17.4800   -2.2300   17.5900 O.3   195  THR195     -0.2208
     93  CG2       17.0570   -2.2780   20.0280 C.3   195  THR195      0.0379
     94  N         20.1550   -0.1010   17.0240 N.am  196  THR196     -0.1937
     95  CA        21.2430   -0.0200   16.0330 C.3   196  THR196      0.2013
     96  C         22.0920    1.2120   16.3230 C.2   196  THR196      0.2484
     97  O         21.6160    2.1890   16.9440 O.2   196  THR196     -0.2729
     98  CB        20.6720    0.0890   14.6000 C.3   196  THR196      0.1807
     99  OG1       19.8770    1.2840   14.5300 O.3   196  THR196     -0.2208
    100  CG2       19.7580   -1.0600   14.3420 C.3   196  THR196      0.0379
    101  N         23.3470    1.1970   15.8410 N.am  197  PRO197     -0.2715
    102  CA        24.1490    2.4100   15.9400 C.3   197  PRO197      0.1521
    103  C         23.3660    3.6020   15.3600 C.2   197  PRO197      0.2440
    104  O         22.7470    3.4730   14.2920 O.2   197  PRO197     -0.2731
    105  CB        25.3770    2.0360   15.1420 C.3   197  PRO197      0.0310
    106  CG        25.5390    0.5560   15.4610 C.3   197  PRO197      0.0237
    107  CD        24.1210    0.0530   15.2930 C.3   197  PRO197      0.0939
    108  N         23.3680    4.7580   16.0190 N.am  198  PRO198     -0.2727
    109  CA        24.2510    5.2040   17.0780 C.3   198  PRO198      0.1402
    110  C         23.7940    4.8040   18.5060 C.2   198  PRO198      0.2269
    111  O         24.3630    5.2930   19.4910 O.2   198  PRO198     -0.2865
    112  CB        24.2870    6.7380   16.8790 C.3   198  PRO198      0.0296
    113  CG        22.9730    7.0890   16.1890 C.3   198  PRO198      0.0237
    114  CD        22.6390    5.8650   15.3610 C.3   198  PRO198      0.0939
    115  N         10.4860    2.3300   25.6610 N.3   205  TRP205     -0.1241
    116  CA        10.0730    1.1570   24.9320 C.3   205  TRP205      0.1605
    117  C          8.7280    0.7410   25.4420 C.2   205  TRP205      0.2264
    118  O          8.4830    0.7580   26.6570 O.2   205  TRP205     -0.2867
    119  CB        11.0830   -0.0560   25.1210 C.3   205  TRP205      0.0550
    120  CG        12.2130    0.0760   24.1820 C.ar  205  TRP205      0.0003
    121  CD1       13.4510    0.6430   24.4250 C.ar  205  TRP205      0.0946
    122  CD2       12.2130   -0.3300   22.8140 C.ar  205  TRP205      0.0152
    123  NE1       14.1930    0.6440   23.2690 N.ar  205  TRP205     -0.2442
    124  CE2       13.4760    0.0160   22.2760 C.ar  205  TRP205      0.0810
    125  CE3       11.2520   -0.9330   21.9790 C.ar  205  TRP205      0.0012
    126  CZ2       13.8040   -0.2310   20.9490 C.ar  205  TRP205      0.0191
    127  CZ3       11.6030   -1.2240   20.6760 C.ar  205  TRP205      0.0001
    128  CH2       12.8430   -0.8600   20.1630 C.ar  205  TRP205      0.0015
@<TRIPOS>BOND
     1     1     2    1
     2     2     3    1
     3     2     5    1
     4     3     4    2
     5    12    11    2
     6     5     6    1
     7    11    10    1
     8     9    10    1
     9     6     7    2
    10     6     8   am
    11    10    13    1
    12    13    14    1
    13    16    14   am
    14    14    15    2
    15    21    18    1
    16    21    22    1
    17    27    30    1
    18    27    26    1
    19    27    28    1
    20    30    31    1
    21    18    19    1
    22    18    17    1
    23    28    29    2
    24    22    23    1
    25    19    20    2
    26    25    23   am
    27    23    24    2
    28    31    32   ar
    29    31    33   ar
    30    32    34   ar
    31    33    35   ar
    32    34    35   ar
    33    39    38    2
    34    57    58    1
    35    57    54    1
    36    60    62   ar
    37    60    58   ar
    38    62    63   ar
    39    58    59   ar
    40   104   103    2
    41   100    98    1
    42    99    98    1
    43    98    95    1
    44    53    54    1
    45    49    48    2
    46    59    61   ar
    47    36    37    1
    48    63    61   ar
    49    52    50    1
    50    38    37    1
    51    54    55    1
    52   105   106    1
    53   105   102    1
    54    50    51    1
    55    50    47    1
    56    46    47    1
    57   107   106    1
    58   107   101    1
    59   103   102    1
    60   103   108   am
    61   114   108    1
    62   114   113    1
    63    55    56    2
    64    37    40    1
    65    40    41    1
    66   101   102    1
    67   101    96   am
    68    48    47    1
    69   108   109    1
    70    95    96    1
    71    95    94    1
    72   113   112    1
    73    96    97    2
    74    41    42   ar
    75    41    43   ar
    76    42    44   ar
    77   112   109    1
    78    94    89   am
    79   109   110    1
    80    85    84    1
    81    44    45   ar
    82    43    45   ar
    83    92    91    1
    84    90    89    2
    85    89    88    1
    86    86    84    1
    87   110   111    2
    88    71    69    1
    89    84    83    1
    90    77    76    1
    91    83    80    1
    92    91    88    1
    93    91    93    1
    94    87    88    1
    95    87    81   am
    96    70    69    1
    97    78    76    1
    98    69    68    1
    99    80    81    1
   100    80    79    1
   101    81    82    2
   102    76    73    1
   103    73    74    1
   104    73    72    1
   105   128   127   ar
   106   128   126   ar
   107    68    65    1
   108    74    75    2
   109   127   125   ar
   110   126   124   ar
   111    65    66    1
   112    65    64    1
   113   125   122   ar
   114    66    67    2
   115   124   122   ar
   116   124   123   ar
   117   122   120   ar
   118   123   121   ar
   119   120   121   ar
   120   120   119    1
   121   116   119    1
   122   116   117    1
   123   116   115    1
   124   117   118    2
