@<TRIPOS>MOLECULE
tmp/4mlxA01.pdb
 108 104 0 0 0
SMALL
GASTEIGER

@<TRIPOS>ATOM
      1  N         12.6850    0.3570    5.8630 N.3    64  ASN64      -0.1240
      2  CA        11.8480    1.2520    6.6590 C.3    64  ASN64       0.1653
      3  C         10.6650    1.6780    5.8030 C.2    64  ASN64       0.2266
      4  O         10.8160    2.1170    4.6890 O.2    64  ASN64      -0.2867
      5  CB        12.6220    2.5340    7.0230 C.3    64  ASN64       0.1155
      6  CG        13.6570    2.3300    8.1030 C.2    64  ASN64       0.2627
      7  OD1       13.7760    1.2380    8.6700 O.2    64  ASN64      -0.2716
      8  ND2       14.5240    3.3530    8.2790 N.am   64  ASN64      -0.0877
      9  N          8.5210    6.1010   11.2940 N.3    89  GLN89      -0.1245
     10  CA         8.8470    4.9280   10.3810 C.3    89  GLN89       0.1566
     11  C          8.5710    3.6810   11.1640 C.2    89  GLN89       0.2260
     12  O          8.5480    3.7110   12.4300 O.2    89  GLN89      -0.2867
     13  CB        10.3120    4.9080    9.8000 C.3    89  GLN89       0.0367
     14  CG        11.4050    5.0500   10.8250 C.3    89  GLN89       0.0905
     15  CD        12.0070    3.7570   11.2610 C.2    89  GLN89       0.2608
     16  OE1       11.4120    2.6760   11.1750 O.2    89  GLN89      -0.2717
     17  NE2       13.2700    3.8500   11.6660 N.am   89  GLN89      -0.0878
     18  N          9.8160   -0.6380   10.9440 N.3    91  HIS91      -0.1241
     19  CA        10.7570   -1.6350   10.3660 C.3    91  HIS91       0.1621
     20  C         10.6910   -2.8850   11.1530 C.2    91  HIS91       0.2264
     21  O         10.0180   -2.9560   12.1790 O.2    91  HIS91      -0.2867
     22  CB        12.2400   -1.1210   10.3030 C.3    91  HIS91       0.0745
     23  CG        12.7780   -0.8320   11.6480 C.ar   91  HIS91       0.0817
     24  ND1       12.5830    0.3890   12.2800 N.ar   91  HIS91      -0.2268
     25  CD2       13.4230   -1.6290   12.5410 C.ar   91  HIS91       0.1154
     26  CE1       13.0520    0.3190   13.5100 C.ar   91  HIS91       0.1986
     27  NE2       13.5950   -0.8850   13.6880 N.ar   91  HIS91      -0.2212
     28  N         12.9740   -6.5650   12.4840 N.3    93  HIS93      -0.1241
     29  CA        14.2170   -7.3680   12.6240 C.3    93  HIS93       0.1621
     30  C         13.7870   -8.8100   12.5430 C.2    93  HIS93       0.2264
     31  O         12.7290   -9.1400   13.0190 O.2    93  HIS93      -0.2867
     32  CB        14.9120   -7.1180   13.9970 C.3    93  HIS93       0.0745
     33  CG        15.1720   -5.6660   14.3160 C.ar   93  HIS93       0.0817
     34  ND1       16.4180   -5.1110   14.1430 N.ar   93  HIS93      -0.2268
     35  CD2       14.3600   -4.6480   14.7170 C.ar   93  HIS93       0.1154
     36  CE1       16.3860   -3.8200   14.4880 C.ar   93  HIS93       0.1986
     37  NE2       15.1260   -3.5080   14.7840 N.ar   93  HIS93      -0.2212
     38  N          9.0990   -2.8070   14.8720 N.3   116  HIS116     -0.1241
     39  CA         9.3290   -1.6010   15.6550 C.3   116  HIS116      0.1621
     40  C          8.6770   -0.4540   14.9510 C.2   116  HIS116      0.2264
     41  O          9.0420   -0.0900   13.8150 O.2   116  HIS116     -0.2867
     42  CB        10.8540   -1.3120   15.7200 C.3   116  HIS116      0.0745
     43  CG        11.5230   -2.2770   16.6150 C.ar  116  HIS116      0.0817
     44  ND1       12.8830   -2.4790   16.6300 N.ar  116  HIS116     -0.2268
     45  CD2       10.9990   -3.0900   17.5690 C.ar  116  HIS116      0.1154
     46  CE1       13.1820   -3.3840   17.5420 C.ar  116  HIS116      0.1986
     47  NE2       12.0610   -3.8210   18.0930 N.ar  116  HIS116     -0.2212
     48  N          8.3930    3.3830   15.2300 N.3   118  VAL118     -0.1245
     49  CA         9.2820    4.3950   15.8950 C.3   118  VAL118      0.1561
     50  C          8.5650    5.7550   15.8880 C.2   118  VAL118      0.2260
     51  O          8.1520    6.2240   14.8110 O.2   118  VAL118     -0.2867
     52  CB        10.5890    4.5580   15.1450 C.3   118  VAL118      0.0252
     53  CG1       11.5300    5.6140   15.7750 C.3   118  VAL118      0.0019
     54  CG2       11.3480    3.2300   15.0050 C.3   118  VAL118      0.0019
     55  N         12.7060   14.7950   14.7070 N.3   127  PHE127     -0.1241
     56  CA        13.3680   13.5540   15.0910 C.3   127  PHE127      0.1605
     57  C         14.8020   13.7720   15.5030 C.2   127  PHE127      0.2264
     58  O         15.2630   13.1890   16.5240 O.2   127  PHE127     -0.2867
     59  CB        13.2710   12.5560   13.9160 C.3   127  PHE127      0.0534
     60  CG        13.9940   11.2790   14.1780 C.ar  127  PHE127     -0.0203
     61  CD1       13.3520   10.2500   14.9340 C.ar  127  PHE127     -0.0042
     62  CD2       15.3280   11.1260   13.8230 C.ar  127  PHE127     -0.0042
     63  CE1       14.0180    9.0960   15.2450 C.ar  127  PHE127     -0.0003
     64  CE2       15.9960    9.9060   14.1540 C.ar  127  PHE127     -0.0003
     65  CZ        15.3450    8.9160   14.8430 C.ar  127  PHE127     -0.0000
     66  N          9.1730    3.5960   21.1770 N.3   139  VAL139     -0.1245
     67  CA         9.0790    2.5430   20.1470 C.3   139  VAL139      0.1561
     68  C          8.1130    1.4890   20.6070 C.2   139  VAL139      0.2260
     69  O          8.2510    0.9710   21.7270 O.2   139  VAL139     -0.2867
     70  CB        10.4400    1.9400   19.8680 C.3   139  VAL139      0.0252
     71  CG1       10.2890    0.8580   18.7260 C.3   139  VAL139      0.0019
     72  CG2       11.4600    2.9620   19.2950 C.3   139  VAL139      0.0019
     73  N         17.9880    2.8400   21.1550 N.3   194  LEU194     -0.1231
     74  CA        17.9200    2.2510   19.7980 C.3   194  LEU194      0.1693
     75  C         18.7100    0.9540   19.8140 C.2   194  LEU194      0.2593
     76  O         19.7260    0.8120   20.5280 O.2   194  LEU194     -0.2718
     77  CB        18.6780    3.1530   18.7910 C.3   194  LEU194      0.0284
     78  CG        18.2690    4.5680   18.6620 C.3   194  LEU194      0.0019
     79  CD1       19.1400    5.2960   17.5040 C.3   194  LEU194      0.0001
     80  CD2       16.7480    4.5510   18.3400 C.3   194  LEU194      0.0001
     81  N         18.2720   -0.0080   19.0040 N.am  195  THR195     -0.1939
     82  CA        19.0260   -1.3210   19.0140 C.3   195  THR195      0.2028
     83  C         20.0070   -1.4160   17.8440 C.2   195  THR195      0.2642
     84  O         20.6310   -2.4610   17.6370 O.2   195  THR195     -0.2714
     85  CB        18.0550   -2.4960   18.8780 C.3   195  THR195      0.1808
     86  OG1       17.3910   -2.4000   17.6120 O.3   195  THR195     -0.2208
     87  CG2       17.0190   -2.4840   19.9970 C.3   195  THR195      0.0379
     88  N         20.0740   -0.3440   17.0560 N.am  196  THR196     -0.1950
     89  CA        21.1250   -0.2160   16.0040 C.3   196  THR196      0.1897
     90  C         21.9570    0.9920   16.3430 C.2   196  THR196      0.2313
     91  O         21.4870    1.9540   16.9710 O.2   196  THR196     -0.2863
     92  CB        20.5160   -0.0220   14.6010 C.3   196  THR196      0.1794
     93  OG1       19.6010    1.0990   14.6570 O.3   196  THR196     -0.2208
     94  CG2       19.7650   -1.2610   14.1930 C.3   196  THR196      0.0378
     95  N         10.5630    2.1190   25.7240 N.3   205  TRP205     -0.1241
     96  CA        10.0900    0.9120   24.9810 C.3   205  TRP205      0.1605
     97  C          8.7110    0.4970   25.4940 C.2   205  TRP205      0.2264
     98  O          8.4180    0.4520   26.7300 O.2   205  TRP205     -0.2867
     99  CB        11.0870   -0.3080   25.2230 C.3   205  TRP205      0.0550
    100  CG        12.2160   -0.2080   24.2240 C.ar  205  TRP205      0.0003
    101  CD1       13.4230    0.3310   24.4300 C.ar  205  TRP205      0.0946
    102  CD2       12.1560   -0.6200   22.8580 C.ar  205  TRP205      0.0152
    103  NE1       14.1530    0.3110   23.2800 N.ar  205  TRP205     -0.2442
    104  CE2       13.3950   -0.2440   22.2630 C.ar  205  TRP205      0.0810
    105  CE3       11.1730   -1.2100   22.0600 C.ar  205  TRP205      0.0012
    106  CZ2       13.7210   -0.5300   20.9180 C.ar  205  TRP205      0.0191
    107  CZ3       11.4820   -1.4580   20.7400 C.ar  205  TRP205      0.0001
    108  CH2       12.7410   -1.1670   20.1790 C.ar  205  TRP205      0.0015
@<TRIPOS>BOND
     1     4     3    2
     2     3     2    1
     3     1     2    1
     4     2     5    1
     5     5     6    1
     6     6     8   am
     7     6     7    2
     8    13    10    1
     9    13    14    1
    10    22    19    1
    11    22    23    1
    12    19    18    1
    13    19    20    1
    14    10    11    1
    15    10     9    1
    16    14    15    1
    17    20    21    2
    18    11    12    2
    19    16    15    2
    20    15    17   am
    21    23    24   ar
    22    23    25   ar
    23    24    26   ar
    24    28    29    1
    25    25    27   ar
    26    30    29    1
    27    30    31    2
    28    29    32    1
    29    26    27   ar
    30    41    40    2
    31    62    64   ar
    32    62    60   ar
    33    59    60    1
    34    59    56    1
    35    32    33    1
    36    34    33   ar
    37    34    36   ar
    38    64    65   ar
    39    60    61   ar
    40    94    92    1
    41    33    35   ar
    42    36    37   ar
    43    92    93    1
    44    92    89    1
    45    55    56    1
    46    35    37   ar
    47    51    50    2
    48    65    63   ar
    49    38    39    1
    50    61    63   ar
    51    40    39    1
    52    54    52    1
    53    56    57    1
    54    52    53    1
    55    52    49    1
    56    48    49    1
    57    57    58    2
    58    39    42    1
    59    42    43    1
    60    50    49    1
    61    89    90    1
    62    89    88    1
    63    90    91    2
    64    43    44   ar
    65    43    45   ar
    66    44    46   ar
    67    88    83   am
    68    79    78    1
    69    46    47   ar
    70    45    47   ar
    71    86    85    1
    72    84    83    2
    73    83    82    1
    74    80    78    1
    75    78    77    1
    76    71    70    1
    77    77    74    1
    78    85    82    1
    79    85    87    1
    80    81    82    1
    81    81    75   am
    82    72    70    1
    83    74    75    1
    84    74    73    1
    85    75    76    2
    86    70    67    1
    87    67    68    1
    88    67    66    1
    89   108   107   ar
    90   108   106   ar
    91    68    69    2
    92   107   105   ar
    93   106   104   ar
    94   105   102   ar
    95   104   102   ar
    96   104   103   ar
    97   102   100   ar
    98   103   101   ar
    99   100   101   ar
   100   100    99    1
   101    96    99    1
   102    96    97    1
   103    96    95    1
   104    97    98    2
