@<TRIPOS>MOLECULE
tmp/4mm1A01.pdb
 126 120 0 0 0
SMALL
GASTEIGER

@<TRIPOS>ATOM
      1  N         26.6150   26.1780   37.3520 N.3    79  PRO79      -0.2102
      2  CA        26.8830   26.1600   35.9090 C.3    79  PRO79       0.1504
      3  C         27.7750   27.2940   35.4130 C.2    79  PRO79       0.2576
      4  O         27.6070   28.4420   35.8240 O.2    79  PRO79      -0.2718
      5  CB        25.4830   26.2850   35.3020 C.3    79  PRO79       0.0282
      6  CG        24.7170   27.0560   36.3070 C.3    79  PRO79       0.0208
      7  CD        25.2450   26.6310   37.6490 C.3    79  PRO79       0.0893
      8  N         28.7110   26.9540   34.5290 N.am   80  GLY80      -0.1943
      9  CA        29.5550   27.9330   33.8640 C.3    80  GLY80       0.2014
     10  C         29.0600   28.2320   32.4600 C.2    80  GLY80       0.2639
     11  O         29.4910   29.1950   31.8250 O.2    80  GLY80      -0.2714
     12  N         28.1540   27.3870   31.9780 N.am   81  ASN81      -0.1958
     13  CA        27.5060   27.5620   30.6810 C.3    81  ASN81       0.1819
     14  C         26.3110   26.6210   30.6340 C.2    81  ASN81       0.2621
     15  O         25.9990   25.9730   31.6310 O.2    81  ASN81      -0.2715
     16  CB        28.4680   27.2820   29.5220 C.3    81  ASN81       0.1195
     17  CG        28.1200   28.0720   28.2660 C.2    81  ASN81       0.2630
     18  OD1       27.0010   28.5640   28.1160 O.2    81  ASN81      -0.2716
     19  ND2       29.0790   28.1860   27.3540 N.am   81  ASN81      -0.0877
     20  N         25.6370   26.5350   29.4920 N.am   82  THR82      -0.1951
     21  CA        24.5110   25.6180   29.3700 C.3    82  THR82       0.1897
     22  C         24.9700   24.1570   29.4270 C.2    82  THR82       0.2313
     23  O         24.1490   23.2500   29.5630 O.2    82  THR82      -0.2863
     24  CB        23.7280   25.8610   28.0660 C.3    82  THR82       0.1794
     25  OG1       24.5970   25.6910   26.9380 O.3    82  THR82      -0.2208
     26  CG2       23.1500   27.2700   28.0550 C.3    82  THR82       0.0378
     27  N         24.3770   21.8640   32.9690 N.3    85  VAL85      -0.1245
     28  CA        23.1180   21.2480   33.3650 C.3    85  VAL85       0.1561
     29  C         23.2180   19.7290   33.2830 C.2    85  VAL85       0.2260
     30  O         23.6200   19.1770   32.2580 O.2    85  VAL85      -0.2867
     31  CB        21.9520   21.7250   32.4780 C.3    85  VAL85       0.0252
     32  CG1       20.6370   21.1120   32.9470 C.3    85  VAL85       0.0019
     33  CG2       21.8660   23.2450   32.4770 C.3    85  VAL85       0.0019
     34  N         19.6750   23.5330   40.8480 N.3    92  ILE92      -0.1245
     35  CA        20.6090   24.3450   40.0820 C.3    92  ILE92       0.1561
     36  C         20.5560   25.8000   40.5390 C.2    92  ILE92       0.2260
     37  O         19.4790   26.3600   40.7350 O.2    92  ILE92      -0.2867
     38  CB        20.3230   24.2550   38.5600 C.3    92  ILE92       0.0252
     39  CG1       21.3400   25.0900   37.7750 C.3    92  ILE92       0.0019
     40  CG2       18.8870   24.6830   38.2390 C.3    92  ILE92       0.0019
     41  CD1       21.3210   24.8310   36.2800 C.3    92  ILE92       0.0001
     42  N         20.3430   28.8930   39.2680 N.3    94  PHE94      -0.1227
     43  CA        20.0070   29.5090   37.9940 C.3    94  PHE94       0.1736
     44  C         20.4300   30.9740   38.0520 C.2    94  PHE94       0.2595
     45  O         19.6850   31.8300   38.5330 O.2    94  PHE94      -0.2718
     46  CB        18.5150   29.3720   37.6950 C.3    94  PHE94       0.0547
     47  CG        18.1750   29.5590   36.2490 C.ar   94  PHE94      -0.0202
     48  CD1       17.9720   30.8200   35.7210 C.ar   94  PHE94      -0.0042
     49  CD2       18.0770   28.4610   35.4110 C.ar   94  PHE94      -0.0042
     50  CE1       17.6630   30.9810   34.3830 C.ar   94  PHE94      -0.0003
     51  CE2       17.7720   28.6140   34.0760 C.ar   94  PHE94      -0.0003
     52  CZ        17.5650   29.8740   33.5590 C.ar   94  PHE94      -0.0000
     53  N         21.6390   31.2470   37.5670 N.am   95  MET95      -0.1979
     54  CA        22.3090   32.5110   37.8530 C.3    95  MET95       0.1605
     55  C         22.5000   33.4220   36.6490 C.2    95  MET95       0.2287
     56  O         22.6190   32.9700   35.5090 O.2    95  MET95      -0.2864
     57  CB        23.6760   32.2430   38.4840 C.3    95  MET95       0.0413
     58  CG        24.4370   31.0800   37.8760 C.3    95  MET95       0.0598
     59  SD        26.1390   30.9750   38.4580 S.3    95  MET95      -0.1393
     60  CE        25.9210   31.3070   40.2070 C.3    95  MET95       0.0692
     61  N         25.1260   36.4570   35.4670 N.3    97  LEU97      -0.1245
     62  CA        26.3950   37.1300   35.7190 C.3    97  LEU97       0.1561
     63  C         26.2070   38.6350   35.5370 C.2    97  LEU97       0.2260
     64  O         26.3690   39.1630   34.4380 O.2    97  LEU97      -0.2867
     65  CB        27.4860   36.6060   34.7850 C.3    97  LEU97       0.0270
     66  CG        28.8740   37.2420   34.9230 C.3    97  LEU97       0.0019
     67  CD1       29.2680   37.4870   36.3710 C.3    97  LEU97       0.0001
     68  CD2       29.9210   36.3890   34.2230 C.3    97  LEU97       0.0001
     69  N         26.0530   36.1060   28.8850 N.3   105  TRP105     -0.1241
     70  CA        26.2990   35.6170   30.2370 C.3   105  TRP105      0.1605
     71  C         25.3070   36.1810   31.2540 C.2   105  TRP105      0.2264
     72  O         25.2470   35.7050   32.3920 O.2   105  TRP105     -0.2867
     73  CB        27.7250   35.9620   30.6720 C.3   105  TRP105      0.0550
     74  CG        28.7910   35.3400   29.8260 C.ar  105  TRP105      0.0003
     75  CD1       29.6910   35.9870   29.0320 C.ar  105  TRP105      0.0946
     76  CD2       29.0790   33.9430   29.7030 C.ar  105  TRP105      0.0152
     77  NE1       30.5190   35.0790   28.4190 N.ar  105  TRP105     -0.2442
     78  CE2       30.1630   33.8170   28.8130 C.ar  105  TRP105      0.0810
     79  CE3       28.5230   32.7870   30.2580 C.ar  105  TRP105      0.0012
     80  CZ2       30.7030   32.5810   28.4650 C.ar  105  TRP105      0.0191
     81  CZ3       29.0580   31.5610   29.9100 C.ar  105  TRP105      0.0001
     82  CH2       30.1370   31.4670   29.0220 C.ar  105  TRP105      0.0015
     83  N         22.5350   32.9490   27.7200 N.3   109  ALA109     -0.1231
     84  CA        22.8020   31.5710   28.1090 C.3   109  ALA109      0.1694
     85  C         21.6400   31.0080   28.9180 C.2   109  ALA109      0.2591
     86  O         21.2280   29.8640   28.7270 O.2   109  ALA109     -0.2718
     87  CB        24.0890   31.4890   28.9090 C.3   109  ALA109      0.0304
     88  N         21.1220   31.8270   29.8270 N.am  110  GLN110     -0.1979
     89  CA        20.0150   31.4350   30.6910 C.3   110  GLN110      0.1601
     90  C         18.7660   31.1000   29.8790 C.2   110  GLN110      0.2287
     91  O         18.0230   30.1800   30.2200 O.2   110  GLN110     -0.2864
     92  CB        19.7010   32.5450   31.7000 C.3   110  GLN110      0.0394
     93  CG        20.7940   32.7940   32.7360 C.3   110  GLN110      0.0908
     94  CD        22.0130   33.4920   32.1610 C.2   110  GLN110      0.2608
     95  OE1       22.0350   33.8720   30.9900 O.2   110  GLN110     -0.2717
     96  NE2       23.0370   33.6680   32.9870 N.am  110  GLN110     -0.0878
     97  N         19.1680   27.7500   27.9690 N.3   113  GLY113     -0.1225
     98  CA        19.2180   26.5970   28.8530 C.3   113  GLY113      0.1811
     99  C         17.9610   26.3760   29.6800 C.2   113  GLY113      0.2280
    100  O         17.8560   25.3790   30.3940 O.2   113  GLY113     -0.2866
    101  N         16.1630   23.0260   31.7790 N.3   117  VAL117     -0.1245
    102  CA        16.0000   23.0370   33.2290 C.3   117  VAL117      0.1561
    103  C         14.5480   22.7390   33.6110 C.2   117  VAL117      0.2260
    104  O         14.2880   22.0370   34.5870 O.2   117  VAL117     -0.2867
    105  CB        16.4440   24.3960   33.8280 C.3   117  VAL117      0.0252
    106  CG1       15.9270   24.5670   35.2590 C.3   117  VAL117      0.0019
    107  CG2       17.9540   24.5010   33.8210 C.3   117  VAL117      0.0019
    108  N         24.7450   36.9100   40.4110 N.3   129  TYR129     -0.1241
    109  CA        26.1350   36.4630   40.4260 C.3   129  TYR129      0.1605
    110  C         27.0540   37.6300   40.0840 C.2   129  TYR129      0.2264
    111  O         27.0210   38.1400   38.9630 O.2   129  TYR129     -0.2867
    112  CB        26.3190   35.3150   39.4280 C.3   129  TYR129      0.0534
    113  CG        27.6670   34.6300   39.4640 C.ar  129  TYR129     -0.0201
    114  CD1       28.1860   34.1330   40.6510 C.ar  129  TYR129     -0.0009
    115  CD2       28.4120   34.4670   38.3040 C.ar  129  TYR129     -0.0009
    116  CE1       29.4120   33.4990   40.6840 C.ar  129  TYR129      0.0417
    117  CE2       29.6400   33.8360   38.3270 C.ar  129  TYR129      0.0417
    118  CZ        30.1360   33.3560   39.5200 C.ar  129  TYR129      0.1957
    119  OH        31.3580   32.7270   39.5540 O.3   129  TYR129     -0.2866
    120  N         36.5950   33.1040   35.6810 N.3   138  VAL138     -0.1245
    121  CA        35.2030   33.3680   35.3500 C.3   138  VAL138      0.1561
    122  C         35.0270   34.8530   35.0560 C.2   138  VAL138      0.2260
    123  O         34.2470   35.2340   34.1810 O.2   138  VAL138     -0.2867
    124  CB        34.2430   32.9200   36.4800 C.3   138  VAL138      0.0252
    125  CG1       34.5460   33.6420   37.7840 C.3   138  VAL138      0.0019
    126  CG2       32.7940   33.1400   36.0670 C.3   138  VAL138      0.0019
@<TRIPOS>BOND
     1    25    24    1
     2    19    17   am
     3    83    84    1
     4    97    98    1
     5    26    24    1
     6    24    21    1
     7    84    87    1
     8    84    85    1
     9    18    17    2
    10    17    16    1
    11    77    78   ar
    12    77    75   ar
    13    80    78   ar
    14    80    82   ar
    15    86    85    2
    16    78    76   ar
    17    98    99    1
    18    69    70    1
    19    85    88   am
    20    82    81   ar
    21    75    74   ar
    22    21    22    1
    23    21    20    1
    24    22    23    2
    25    20    14   am
    26    16    13    1
    27    99   100    2
    28    76    74   ar
    29    76    79   ar
    30    74    73    1
    31    88    89    1
    32    90    91    2
    33    90    89    1
    34    81    79   ar
    35    70    73    1
    36    70    71    1
    37    14    13    1
    38    14    15    2
    39    13    12    1
    40    89    92    1
    41    95    94    2
    42    71    72    2
    43    92    93    1
    44   101   102    1
    45    11    10    2
    46    12    10   am
    47    94    93    1
    48    94    96   am
    49    30    29    2
    50    10     9    1
    51    33    31    1
    52    31    32    1
    53    31    28    1
    54    27    28    1
    55   102   103    1
    56   102   105    1
    57    29    28    1
    58    52    51   ar
    59    52    50   ar
    60   103   104    2
    61   107   105    1
    62   105   106    1
    63     9     8    1
    64    51    49   ar
    65   123   122    2
    66    68    66    1
    67    50    48   ar
    68    64    63    2
    69     8     3   am
    70    65    66    1
    71    65    62    1
    72    66    67    1
    73   122   121    1
    74     5     2    1
    75     5     6    1
    76   121   120    1
    77   121   124    1
    78    49    47   ar
    79     3     4    2
    80     3     2    1
    81    61    62    1
    82    56    55    2
    83    63    62    1
    84    48    47   ar
    85     2     1    1
    86   126   124    1
    87    47    46    1
    88    41    39    1
    89     6     7    1
    90   124   125    1
    91    55    54    1
    92     1     7    1
    93    53    54    1
    94    53    44   am
    95    46    43    1
    96    39    38    1
    97    54    57    1
    98    58    59    1
    99    58    57    1
   100    43    44    1
   101    43    42    1
   102    44    45    2
   103    40    38    1
   104   115   117   ar
   105   115   113   ar
   106   117   118   ar
   107    59    60    1
   108    38    35    1
   109   111   110    2
   110   112   113    1
   111   112   109    1
   112   113   114   ar
   113   118   119    1
   114   118   116   ar
   115    35    36    1
   116    35    34    1
   117   110   109    1
   118   108   109    1
   119    36    37    2
   120   114   116   ar
