@<TRIPOS>MOLECULE
tmp/4mm1A00.pdb
 106 101 0 0 0
SMALL
GASTEIGER

@<TRIPOS>ATOM
      1  N         32.7610   22.9130   46.5250 N.3    22  LEU22      -0.1245
      2  CA        32.7240   23.0120   45.0680 C.3    22  LEU22       0.1561
      3  C         33.6750   22.0310   44.3870 C.2    22  LEU22       0.2260
      4  O         34.8940   22.1680   44.4890 O.2    22  LEU22      -0.2867
      5  CB        33.0760   24.4390   44.6460 C.3    22  LEU22       0.0270
      6  CG        33.2630   24.7200   43.1540 C.3    22  LEU22       0.0019
      7  CD1       32.0290   24.3690   42.3430 C.3    22  LEU22       0.0001
      8  CD2       33.6410   26.1670   42.9610 C.3    22  LEU22       0.0001
      9  N         26.4840   24.2930   39.6990 N.3    78  PHE78      -0.1241
     10  CA        27.0910   25.6200   39.6910 C.3    78  PHE78       0.1605
     11  C         27.5630   25.9160   38.2650 C.2    78  PHE78       0.2264
     12  O         28.7630   25.9220   37.9900 O.2    78  PHE78      -0.2867
     13  CB        28.2600   25.6880   40.6760 C.3    78  PHE78       0.0534
     14  CG        28.8770   27.0510   40.7910 C.ar   78  PHE78      -0.0203
     15  CD1       28.0980   28.1510   41.0980 C.ar   78  PHE78      -0.0042
     16  CD2       30.2340   27.2350   40.5850 C.ar   78  PHE78      -0.0042
     17  CE1       28.6590   29.4040   41.2090 C.ar   78  PHE78      -0.0003
     18  CE2       30.8000   28.4900   40.6920 C.ar   78  PHE78      -0.0003
     19  CZ        30.0090   29.5760   41.0030 C.ar   78  PHE78      -0.0000
     20  N         25.5970   35.9620   45.0840 N.3   171  TYR171     -0.1241
     21  CA        26.9090   35.3310   45.1570 C.3   171  TYR171      0.1605
     22  C         28.0040   36.3650   44.8840 C.2   171  TYR171      0.2264
     23  O         28.1110   36.8870   43.7750 O.2   171  TYR171     -0.2867
     24  CB        26.9950   34.1830   44.1480 C.3   171  TYR171      0.0534
     25  CG        28.1260   33.2030   44.3840 C.ar  171  TYR171     -0.0201
     26  CD1       29.4480   33.6210   44.4090 C.ar  171  TYR171     -0.0009
     27  CD2       27.8670   31.8500   44.5620 C.ar  171  TYR171     -0.0009
     28  CE1       30.4770   32.7260   44.6180 C.ar  171  TYR171      0.0417
     29  CE2       28.8890   30.9470   44.7700 C.ar  171  TYR171      0.0417
     30  CZ        30.1930   31.3900   44.7980 C.ar  171  TYR171      0.1957
     31  OH        31.2200   30.4970   45.0060 O.3   171  TYR171     -0.2866
     32  N         31.6130   36.8150   44.1250 N.3   173  GLU173     -0.1245
     33  CA        32.6270   35.9350   43.5530 C.3   173  GLU173      0.1567
     34  C         33.9870   36.6210   43.4410 C.2   173  GLU173      0.2260
     35  O         34.1440   37.5820   42.6920 O.2   173  GLU173     -0.2867
     36  CB        32.1630   35.4660   42.1670 C.3   173  GLU173      0.0388
     37  CG        33.1960   34.6970   41.3520 C.3   173  GLU173      0.1160
     38  CD        33.4690   33.3170   41.9070 C.2   173  GLU173      0.3649
     39  OE1       32.8910   32.3410   41.3820 O.co2 173  GLU173     -0.2457
     40  OE2       34.2660   33.2000   42.8620 O.co2 173  GLU173     -0.2457
     41  N         38.0250   31.6020   41.5810 N.3   176  SER176     -0.1202
     42  CA        38.7810   30.4460   42.0450 C.3   176  SER176      0.2020
     43  C         40.2570   30.7800   42.2450 C.2   176  SER176      0.2619
     44  O         40.8940   31.3730   41.3750 O.2   176  SER176     -0.2717
     45  CB        38.6380   29.2930   41.0500 C.3   176  SER176      0.2103
     46  OG        39.2190   28.1060   41.5540 O.3   176  SER176     -0.2182
     47  N         40.7850   30.4190   43.4100 N.am  177  GLY177     -0.1956
     48  CA        42.2030   30.5630   43.6920 C.3   177  GLY177      0.1869
     49  C         42.6190   31.9850   44.0040 C.2   177  GLY177      0.2309
     50  O         43.8100   32.2970   44.0330 O.2   177  GLY177     -0.2863
     51  N         32.1830   33.0770   47.9020 N.3   201  GLY201     -0.1210
     52  CA        33.2380   32.1200   47.6330 C.3   201  GLY201      0.1956
     53  C         34.5080   32.8080   47.1810 C.2   201  GLY201      0.2612
     54  O         34.5660   34.0360   47.0730 O.2   201  GLY201     -0.2717
     55  N         35.5270   32.0020   46.9130 N.am  202  GLY202     -0.1942
     56  CA        36.8090   32.4900   46.4430 C.3   202  GLY202      0.2014
     57  C         37.7790   32.7560   47.5800 C.2   202  GLY202      0.2639
     58  O         37.4190   33.3530   48.5960 O.2   202  GLY202     -0.2714
     59  N         39.0230   32.3360   47.3860 N.am  203  GLY203     -0.1939
     60  CA        40.1000   32.5920   48.3250 C.3   203  GLY203      0.2014
     61  C         39.9070   32.1510   49.7690 C.2   203  GLY203      0.2639
     62  O         40.7260   32.4930   50.6230 O.2   203  GLY203     -0.2714
     63  N         38.8510   31.3950   50.0590 N.am  204  ILE204     -0.1963
     64  CA        38.6110   30.9230   51.4230 C.3   204  ILE204      0.1727
     65  C         39.3010   29.5820   51.6490 C.2   204  ILE204      0.2616
     66  O         38.8090   28.5370   51.2260 O.2   204  ILE204     -0.2715
     67  CB        37.1060   30.8160   51.7100 C.3   204  ILE204      0.0290
     68  CG1       36.4900   32.2150   51.7020 C.3   204  ILE204      0.0022
     69  CG2       36.8530   30.1730   53.0790 C.3   204  ILE204      0.0023
     70  CD1       35.1010   32.2780   51.1130 C.3   204  ILE204      0.0001
     71  N         40.4490   29.6340   52.3180 N.am  205  ARG205     -0.1977
     72  CA        41.2840   28.4610   52.5590 C.3   205  ARG205      0.1597
     73  C         41.3200   28.0690   54.0330 C.2   205  ARG205      0.2287
     74  O         41.0720   26.9160   54.3900 O.2   205  ARG205     -0.2864
     75  CB        42.7060   28.7210   52.0570 C.3   205  ARG205      0.0334
     76  CG        42.8050   29.0270   50.5680 C.3   205  ARG205      0.0492
     77  CD        44.2390   29.3430   50.1670 C.3   205  ARG205      0.2205
     78  NE        44.3410   29.9230   48.8280 N.pl3 205  ARG205     -0.0865
     79  CZ        44.1310   31.1980   48.5150 C.cat 205  ARG205      0.5346
     80  NH1       43.7800   32.0810   49.4390 N.pl3 205  ARG205      0.1354
     81  NH2       44.2650   31.5850   47.2530 N.pl3 205  ARG205      0.1354
     82  N         31.3410   29.0910   50.1720 N.3   222  VAL222     -0.1231
     83  CA        31.7380   28.1440   49.1380 C.3   222  VAL222      0.1692
     84  C         33.2520   27.9850   49.1230 C.2   222  VAL222      0.2593
     85  O         33.9850   28.9690   49.1960 O.2   222  VAL222     -0.2718
     86  CB        31.2680   28.6020   47.7440 C.3   222  VAL222      0.0266
     87  CG1       31.5580   27.5300   46.6990 C.3   222  VAL222      0.0020
     88  CG2       29.7870   28.9380   47.7650 C.3   222  VAL222      0.0020
     89  N         33.7150   26.7430   49.0320 N.am  223  THR223     -0.1939
     90  CA        35.1430   26.4640   48.9240 C.3   223  THR223      0.2028
     91  C         35.3740   25.2680   48.0070 C.2   223  THR223      0.2643
     92  O         34.7080   24.2400   48.1310 O.2   223  THR223     -0.2714
     93  CB        35.7770   26.1780   50.3010 C.3   223  THR223      0.1808
     94  OG1       35.1980   24.9940   50.8660 O.3   223  THR223     -0.2208
     95  CG2       35.5570   27.3490   51.2470 C.3   223  THR223      0.0379
     96  N         36.3340   25.4030   47.0990 N.am  224  GLY224     -0.1939
     97  CA        36.6740   24.3290   46.1860 C.3   224  GLY224      0.2014
     98  C         38.1460   23.9760   46.2220 C.2   224  GLY224      0.2639
     99  O         38.5180   22.8990   46.6940 O.2   224  GLY224     -0.2714
    100  N         38.9820   24.8840   45.7230 N.am  225  THR225     -0.1950
    101  CA        40.4260   24.6710   45.6910 C.3   225  THR225      0.1897
    102  C         40.9930   24.4510   47.0900 C.2   225  THR225      0.2313
    103  O         41.2480   25.4070   47.8170 O.2   225  THR225     -0.2863
    104  CB        41.1660   25.8560   45.0360 C.3   225  THR225      0.1794
    105  OG1       40.8700   27.0640   45.7490 O.3   225  THR225     -0.2208
    106  CG2       40.7510   26.0140   43.5810 C.3   225  THR225      0.0378
@<TRIPOS>BOND
     1    12    11    2
     2    11    10    1
     3    10     9    1
     4    10    13    1
     5    16    18   ar
     6    16    14   ar
     7    13    14    1
     8    18    19   ar
     9    14    15   ar
    10    19    17   ar
    11    45    46    1
    12    45    42    1
    13    15    17   ar
    14    37    38    1
    15    37    36    1
    16    44    43    2
    17    39    38   ar
    18    41    42    1
    19    38    40   ar
    20    42    43    1
    21    36    33    1
    22    43    47   am
    23     7     6    1
    24    35    34    2
    25     8     6    1
    26     6     5    1
    27    47    48    1
    28    34    33    1
    29    33    32    1
    30   106   104    1
    31    48    49    1
    32    23    22    2
    33    49    50    2
    34    24    25    1
    35    24    21    1
    36    25    26   ar
    37    25    27   ar
    38     3     4    2
    39     3     2    1
    40    26    28   ar
    41    27    29   ar
    42    28    30   ar
    43     5     2    1
    44    29    30   ar
    45    30    31    1
    46    22    21    1
    47   104   101    1
    48   104   105    1
    49     2     1    1
    50    20    21    1
    51   101   100    1
    52   101   102    1
    53   100    98   am
    54    97    98    1
    55    97    96    1
    56    98    99    2
    57    56    55    1
    58    56    57    1
    59    87    86    1
    60    55    53   am
    61    54    53    2
    62   102   103    2
    63    96    91   am
    64    53    52    1
    65    81    79    1
    66    59    57   am
    67    59    60    1
    68    57    58    2
    69    52    51    1
    70    86    88    1
    71    86    83    1
    72    91    92    2
    73    91    90    1
    74    60    61    1
    75    79    78    2
    76    79    80    1
    77    78    77    1
    78    90    89    1
    79    90    93    1
    80    89    84   am
    81    84    83    1
    82    84    85    2
    83    83    82    1
    84    61    63   am
    85    61    62    2
    86    63    64    1
    87    77    76    1
    88    93    94    1
    89    93    95    1
    90    76    75    1
    91    70    68    1
    92    66    65    2
    93    64    65    1
    94    64    67    1
    95    65    71   am
    96    68    67    1
    97    67    69    1
    98    75    72    1
    99    71    72    1
   100    72    73    1
   101    73    74    2
