@<TRIPOS>MOLECULE
tmp/4mm2A00.pdb
 87 83 0 0 0
SMALL
GASTEIGER

@<TRIPOS>ATOM
      1  N        -18.1030  -55.8120   -3.4000 N.3    72  ARG72      -0.1245
      2  CA       -17.3130  -55.9700   -2.1730 C.3    72  ARG72       0.1563
      3  C        -16.0120  -55.2270   -2.3380 C.2    72  ARG72       0.2260
      4  O        -15.5940  -54.9290   -3.4450 O.2    72  ARG72      -0.2867
      5  CB       -17.0250  -57.4360   -1.8680 C.3    72  ARG72       0.0307
      6  CG       -16.0710  -58.1290   -2.8280 C.3    72  ARG72       0.0489
      7  CD       -15.5170  -59.4300   -2.2360 C.3    72  ARG72       0.2205
      8  NE       -14.4100  -59.9190   -3.0420 N.pl3  72  ARG72      -0.0865
      9  CZ       -14.5200  -60.5340   -4.2200 C.cat  72  ARG72       0.5346
     10  NH1      -15.7170  -60.7890   -4.7630 N.pl3  72  ARG72       0.1354
     11  NH2      -13.4140  -60.9100   -4.8640 N.pl3  72  ARG72       0.1354
     12  N        -12.5500  -71.1750    6.3940 N.3   106  ASP106     -0.1239
     13  CA       -13.5720  -71.4810    5.4300 C.3   106  ASP106      0.1674
     14  C        -14.1850  -72.8270    5.7360 C.2   106  ASP106      0.2266
     15  O        -13.4720  -73.8390    5.7940 O.2   106  ASP106     -0.2867
     16  CB       -12.9340  -71.5610    4.0420 C.3   106  ASP106      0.1410
     17  CG       -12.3830  -70.2650    3.6130 C.2   106  ASP106      0.3668
     18  OD1      -13.0800  -69.3160    3.9560 O.co2 106  ASP106     -0.2456
     19  OD2      -11.3370  -70.2120    2.9120 O.co2 106  ASP106     -0.2456
     20  N        -17.5920  -63.7870    7.3180 N.3   155  SER155     -0.1217
     21  CA       -17.2530  -63.5890    5.9090 C.3   155  SER155      0.1889
     22  C        -18.4320  -63.3480    4.9980 C.2   155  SER155      0.2288
     23  O        -18.2150  -63.1120    3.8080 O.2   155  SER155     -0.2866
     24  CB       -16.4710  -64.7930    5.3890 C.3   155  SER155      0.2089
     25  OG       -17.3280  -65.9260    5.2410 O.3   155  SER155     -0.2183
     26  N        -20.5910  -65.5960    4.1060 N.3   157  ARG157     -0.1231
     27  CA       -21.0580  -66.8840    3.5840 C.3   157  ARG157      0.1694
     28  C        -20.3970  -68.1310    4.2690 C.2   157  ARG157      0.2592
     29  O        -21.0920  -68.9120    4.9510 O.2   157  ARG157     -0.2718
     30  CB       -20.9230  -66.9090    2.0270 C.3   157  ARG157      0.0321
     31  CG       -21.3710  -68.2300    1.4190 C.3   157  ARG157      0.0489
     32  CD       -21.5080  -68.1780   -0.0940 C.3   157  ARG157      0.2205
     33  NE       -20.2010  -68.1140   -0.7320 N.pl3 157  ARG157     -0.0865
     34  CZ       -19.9390  -68.4620   -1.9970 C.cat 157  ARG157      0.5346
     35  NH1      -20.8910  -68.9180   -2.7990 N.pl3 157  ARG157      0.1354
     36  NH2      -18.7100  -68.3530   -2.4580 N.pl3 157  ARG157      0.1354
     37  N        -19.0890  -68.3140    4.0930 N.am  158  ARG158     -0.1966
     38  CA       -18.4600  -69.6040    4.3670 C.3   158  ARG158      0.1729
     39  C        -17.7700  -69.7070    5.7050 C.2   158  ARG158      0.2616
     40  O        -17.3320  -70.7850    6.0720 O.2   158  ARG158     -0.2715
     41  CB       -17.4040  -69.9490    3.3290 C.3   158  ARG158      0.0348
     42  CG       -17.9160  -70.2750    1.9520 C.3   158  ARG158      0.0492
     43  CD       -16.7950  -70.8790    1.1230 C.3   158  ARG158      0.2205
     44  NE       -15.9290  -69.8730    0.5300 N.pl3 158  ARG158     -0.0865
     45  CZ       -14.6570  -70.0440    0.1750 C.cat 158  ARG158      0.5346
     46  NH1      -14.0000  -69.0240   -0.3680 N.pl3 158  ARG158      0.1354
     47  NH2      -14.0160  -71.1920    0.3850 N.pl3 158  ARG158      0.1354
     48  N        -17.5490  -68.5980    6.3990 N.am  159  GLY159     -0.1955
     49  CA       -16.8010  -68.7040    7.6560 C.3   159  GLY159      0.1869
     50  C        -16.4840  -67.3680    8.3020 C.2   159  GLY159      0.2309
     51  O        -17.2930  -66.4450    8.2560 O.2   159  GLY159     -0.2863
     52  N        -13.2060  -64.4680    9.6160 N.3   161  HIS161     -0.1241
     53  CA       -11.9090  -63.8190    9.4540 C.3   161  HIS161      0.1621
     54  C        -11.4950  -63.1300   10.7450 C.2   161  HIS161      0.2264
     55  O        -12.2930  -62.4260   11.3510 O.2   161  HIS161     -0.2867
     56  CB       -11.9640  -62.7650    8.3460 C.3   161  HIS161      0.0745
     57  CG       -12.2860  -63.3170    6.9890 C.ar  161  HIS161      0.0817
     58  ND1      -12.6940  -62.5160    5.9500 N.ar  161  HIS161     -0.2268
     59  CD2      -12.2960  -64.5840    6.5100 C.ar  161  HIS161      0.1154
     60  CE1      -12.9120  -63.2550    4.8770 C.ar  161  HIS161      0.1986
     61  NE2      -12.6770  -64.5100    5.1830 N.ar  161  HIS161     -0.2212
     62  N        -11.5100  -59.4380    2.3010 N.3   319  LYS319     -0.1245
     63  CA       -12.7750  -58.6300    2.3230 C.3   319  LYS319      0.1561
     64  C        -12.8920  -57.7290    3.5390 C.2   319  LYS319      0.2260
     65  O        -12.5720  -58.1290    4.6720 O.2   319  LYS319     -0.2867
     66  CB       -14.0690  -59.4870    2.2160 C.3   319  LYS319      0.0271
     67  CG       -14.5040  -60.2190    3.4900 C.3   319  LYS319      0.0035
     68  CD       -15.6910  -59.5210    4.1710 C.3   319  LYS319      0.0206
     69  CE       -15.5940  -59.3790    5.6950 C.3   319  LYS319      0.1093
     70  NZ       -15.7010  -60.6300    6.4820 N.3   319  LYS319     -0.1314
     71  N        -22.4230  -59.4990    1.3300 N.3   325  HIS325     -0.1227
     72  CA       -22.1470  -60.6530    0.4640 C.3   325  HIS325      0.1737
     73  C        -23.2500  -60.7330   -0.5680 C.2   325  HIS325      0.2438
     74  O        -24.4140  -60.8910   -0.2060 O.2   325  HIS325     -0.2733
     75  CB       -22.0640  -61.9460    1.2610 C.3   325  HIS325      0.0758
     76  CG       -21.3020  -63.0160    0.5560 C.ar  325  HIS325      0.0818
     77  ND1      -21.6920  -63.5310   -0.6600 N.ar  325  HIS325     -0.2268
     78  CD2      -20.1510  -63.6440    0.8770 C.ar  325  HIS325      0.1154
     79  CE1      -20.8160  -64.4390   -1.0520 C.ar  325  HIS325      0.1986
     80  NE2      -19.8680  -64.5190   -0.1380 N.ar  325  HIS325     -0.2212
     81  N        -22.8960  -60.6190   -1.8610 N.am  326  PRO326     -0.2729
     82  CA       -23.9750  -60.5730   -2.8540 C.3   326  PRO326      0.1401
     83  C        -24.7610  -61.8780   -3.0350 C.2   326  PRO326      0.2269
     84  O        -25.9270  -61.8480   -3.4300 O.2   326  PRO326     -0.2865
     85  CB       -23.2400  -60.1990   -4.1420 C.3   326  PRO326      0.0296
     86  CG       -21.8380  -60.6770   -3.9590 C.3   326  PRO326      0.0237
     87  CD       -21.5510  -60.5820   -2.4760 C.3   326  PRO326      0.0939
@<TRIPOS>BOND
     1    11     9    1
     2    10     9    1
     3     9     8    2
     4    85    86    1
     5    85    82    1
     6    86    87    1
     7     4     3    2
     8    84    83    2
     9     1     2    1
    10     8     7    1
    11    83    82    1
    12    82    81    1
    13     6     7    1
    14     6     5    1
    15    35    34    1
    16    87    81    1
    17    36    34    1
    18     3     2    1
    19     2     5    1
    20    34    33    2
    21    81    73   am
    22    79    77   ar
    23    79    80   ar
    24    33    32    1
    25    77    76   ar
    26    73    74    2
    27    73    72    1
    28    46    45    1
    29    80    78   ar
    30    32    31    1
    31    45    47    1
    32    45    44    2
    33    72    75    1
    34    72    71    1
    35    44    43    1
    36    76    78   ar
    37    76    75    1
    38    43    42    1
    39    31    30    1
    40    42    41    1
    41    30    27    1
    42    66    63    1
    43    66    67    1
    44    62    63    1
    45    63    64    1
    46    19    17   ar
    47    41    38    1
    48    67    68    1
    49    64    65    2
    50    27    26    1
    51    27    28    1
    52    17    18   ar
    53    17    16    1
    54    23    22    2
    55    16    13    1
    56    37    28   am
    57    37    38    1
    58    68    69    1
    59    28    29    2
    60    38    39    1
    61    60    61   ar
    62    60    58   ar
    63    22    21    1
    64    61    59   ar
    65    25    24    1
    66    24    21    1
    67    13    14    1
    68    13    12    1
    69    69    70    1
    70    39    40    2
    71    39    48   am
    72    14    15    2
    73    21    20    1
    74    58    57   ar
    75    48    49    1
    76    59    57   ar
    77    57    56    1
    78    49    50    1
    79    51    50    2
    80    56    53    1
    81    53    52    1
    82    53    54    1
    83    54    55    2
