@<TRIPOS>MOLECULE
tmp/4mm4B00.pdb
 157 149 0 0 0
SMALL
GASTEIGER

@<TRIPOS>ATOM
      1  N         91.6520  -10.0320   59.4070 N.3    17  TYR17      -0.1227
      2  CA        91.4680  -10.5890   60.7410 C.3    17  TYR17       0.1736
      3  C         90.4290  -11.7060   60.7190 C.2    17  TYR17       0.2595
      4  O         90.6930  -12.8080   61.1870 O.2    17  TYR17      -0.2718
      5  CB        91.0620   -9.4950   61.7370 C.3    17  TYR17       0.0548
      6  CG        90.4520  -10.0320   63.0140 C.ar   17  TYR17      -0.0200
      7  CD1       91.1990  -10.8030   63.8970 C.ar   17  TYR17      -0.0009
      8  CD2       89.1240   -9.7710   63.3360 C.ar   17  TYR17      -0.0009
      9  CE1       90.6390  -11.3040   65.0610 C.ar   17  TYR17       0.0417
     10  CE2       88.5550  -10.2630   64.4990 C.ar   17  TYR17       0.0417
     11  CZ        89.3170  -11.0290   65.3590 C.ar   17  TYR17       0.1957
     12  OH        88.7550  -11.5230   66.5170 O.3    17  TYR17      -0.2866
     13  N         89.2500  -11.4060   60.1820 N.am   18  ALA18      -0.1980
     14  CA        88.1490  -12.3640   60.1180 C.3    18  ALA18       0.1597
     15  C         88.5150  -13.6460   59.3670 C.2    18  ALA18       0.2287
     16  O         88.2430  -14.7470   59.8410 O.2    18  ALA18      -0.2864
     17  CB        86.9300  -11.7130   59.4750 C.3    18  ALA18       0.0319
     18  N         90.5630  -16.6510   58.1950 N.3    20  ASP20      -0.1239
     19  CA        91.6780  -17.4780   58.6390 C.3    20  ASP20       0.1674
     20  C         91.4750  -18.9290   58.2140 C.2    20  ASP20       0.2266
     21  O         90.7810  -19.2060   57.2360 O.2    20  ASP20      -0.2867
     22  CB        91.8520  -17.3840   60.1580 C.3    20  ASP20       0.1410
     23  CG        90.6710  -17.9520   60.9260 C.2    20  ASP20       0.3668
     24  OD1       89.5160  -17.8050   60.4650 O.co2  20  ASP20      -0.2456
     25  OD2       90.9020  -18.5500   61.9990 O.co2  20  ASP20      -0.2456
     26  N         89.7160  -21.1290   59.6030 N.3    22  GLY22      -0.1225
     27  CA        88.3270  -21.5130   59.7750 C.3    22  GLY22       0.1811
     28  C         87.5030  -21.3980   58.5070 C.2    22  GLY22       0.2280
     29  O         86.6170  -22.2150   58.2560 O.2    22  GLY22      -0.2866
     30  N         92.4750  -12.3280   73.8740 N.3    97  PRO97      -0.2116
     31  CA        93.3100  -12.4850   72.6770 C.3    97  PRO97       0.1372
     32  C         94.7410  -12.9020   73.0080 C.2    97  PRO97       0.2244
     33  O         95.4310  -13.5110   72.1860 O.2    97  PRO97      -0.2868
     34  CB        93.2860  -11.0890   72.0510 C.3    97  PRO97       0.0268
     35  CG        93.0730  -10.1790   73.1950 C.3    97  PRO97       0.0207
     36  CD        92.1440  -10.9110   74.1180 C.3    97  PRO97       0.0892
     37  N         94.7070  -16.6160   73.4410 N.3   100  VAL100     -0.1231
     38  CA        94.6500  -17.1900   72.0970 C.3   100  VAL100      0.1692
     39  C         96.0280  -17.1220   71.4330 C.2   100  VAL100      0.2591
     40  O         96.4670  -18.0750   70.7830 O.2   100  VAL100     -0.2718
     41  CB        93.6100  -16.4820   71.2060 C.3   100  VAL100      0.0266
     42  CG1       93.5940  -17.1010   69.8230 C.3   100  VAL100      0.0020
     43  CG2       92.2310  -16.5620   71.8350 C.3   100  VAL100      0.0020
     44  N         96.7020  -15.9890   71.6110 N.am  101  ALA101     -0.1980
     45  CA        98.0340  -15.7720   71.0600 C.3   101  ALA101      0.1597
     46  C         99.0140  -16.8890   71.4250 C.2   101  ALA101      0.2287
     47  O         99.9000  -17.2240   70.6400 O.2   101  ALA101     -0.2864
     48  CB        98.5750  -14.4280   71.5310 C.3   101  ALA101      0.0319
     49  N         98.5930  -20.1120   71.6760 N.3   103  TYR103     -0.1227
     50  CA        98.5340  -21.2710   70.7890 C.3   103  TYR103      0.1736
     51  C         98.2880  -20.9460   69.3070 C.2   103  TYR103      0.2595
     52  O         98.6650  -21.7320   68.4360 O.2   103  TYR103     -0.2718
     53  CB        97.4740  -22.2580   71.2880 C.3   103  TYR103      0.0548
     54  CG        96.0570  -21.7370   71.3180 C.ar  103  TYR103     -0.0200
     55  CD1       95.1890  -21.9470   70.2510 C.ar  103  TYR103     -0.0009
     56  CD2       95.5740  -21.0670   72.4350 C.ar  103  TYR103     -0.0009
     57  CE1       93.8840  -21.4780   70.2910 C.ar  103  TYR103      0.0417
     58  CE2       94.2800  -20.6020   72.4870 C.ar  103  TYR103      0.0417
     59  CZ        93.4380  -20.8060   71.4170 C.ar  103  TYR103      0.1957
     60  OH        92.1460  -20.3330   71.4850 O.3   103  TYR103     -0.2866
     61  N         97.6730  -19.8020   69.0130 N.am  104  TYR104     -0.1962
     62  CA        97.3300  -19.4840   67.6300 C.3   104  TYR104      0.1771
     63  C         98.5590  -19.2890   66.7470 C.2   104  TYR104      0.2619
     64  O         98.6990  -19.9420   65.7110 O.2   104  TYR104     -0.2715
     65  CB        96.4590  -18.2320   67.5450 C.3   104  TYR104      0.0574
     66  CG        95.8000  -18.0860   66.1920 C.ar  104  TYR104     -0.0198
     67  CD1       94.6300  -18.7740   65.8960 C.ar  104  TYR104     -0.0009
     68  CD2       96.3660  -17.2950   65.2000 C.ar  104  TYR104     -0.0009
     69  CE1       94.0270  -18.6630   64.6590 C.ar  104  TYR104      0.0417
     70  CE2       95.7680  -17.1760   63.9550 C.ar  104  TYR104      0.0417
     71  CZ        94.5980  -17.8640   63.6930 C.ar  104  TYR104      0.1957
     72  OH        93.9950  -17.7560   62.4640 O.3   104  TYR104     -0.2866
     73  N         99.4390  -18.3810   67.1600 N.am  105  VAL105     -0.1977
     74  CA       100.6450  -18.0680   66.3980 C.3   105  VAL105      0.1596
     75  C        101.4980  -19.3160   66.1700 C.2   105  VAL105      0.2287
     76  O        102.1750  -19.4370   65.1510 O.2   105  VAL105     -0.2864
     77  CB       101.4850  -16.9920   67.1090 C.3   105  VAL105      0.0276
     78  CG1      102.6760  -16.5880   66.2480 C.3   105  VAL105      0.0022
     79  CG2      100.6250  -15.7760   67.4150 C.3   105  VAL105      0.0022
     80  N         82.4810  -17.2240   65.7990 N.3   246  PHE246     -0.1227
     81  CA        83.8460  -17.6110   65.4580 C.3   246  PHE246      0.1736
     82  C         84.3320  -16.9390   64.1710 C.2   246  PHE246      0.2596
     83  O         85.4430  -16.4120   64.1210 O.2   246  PHE246     -0.2718
     84  CB        83.9380  -19.1310   65.3080 C.3   246  PHE246      0.0547
     85  CG        84.6920  -19.8090   66.4110 C.ar  246  PHE246     -0.0202
     86  CD1       84.1230  -19.9690   67.6650 C.ar  246  PHE246     -0.0042
     87  CD2       85.9670  -20.3030   66.1910 C.ar  246  PHE246     -0.0042
     88  CE1       84.8170  -20.6000   68.6840 C.ar  246  PHE246     -0.0003
     89  CE2       86.6660  -20.9370   67.2020 C.ar  246  PHE246     -0.0003
     90  CZ        86.0920  -21.0850   68.4510 C.ar  246  PHE246     -0.0000
     91  N         83.4890  -16.9670   63.1390 N.am  247  SER247     -0.1952
     92  CA        83.8640  -16.5200   61.7960 C.3   247  SER247      0.1924
     93  C         84.3130  -15.0660   61.7320 C.2   247  SER247      0.2314
     94  O         85.2940  -14.7420   61.0570 O.2   247  SER247     -0.2863
     95  CB        82.6960  -16.7190   60.8260 C.3   247  SER247      0.2116
     96  OG        82.7490  -17.9940   60.2080 O.3   247  SER247     -0.2180
     97  N         85.1160  -13.2050   64.3900 N.3   249  GLY249     -0.1225
     98  CA        86.0740  -12.9080   65.4380 C.3   249  GLY249      0.1811
     99  C         85.5160  -11.9640   66.4810 C.2   249  GLY249      0.2280
    100  O         86.1840  -11.0180   66.9030 O.2   249  GLY249     -0.2866
    101  N         86.6950  -10.8440   70.9760 N.3   252  PHE252     -0.1241
    102  CA        88.1330  -10.9270   71.1910 C.3   252  PHE252      0.1605
    103  C         88.7050   -9.5710   71.5550 C.2   252  PHE252      0.2264
    104  O         89.8310   -9.4670   72.0490 O.2   252  PHE252     -0.2867
    105  CB        88.8340  -11.4550   69.9470 C.3   252  PHE252      0.0534
    106  CG        88.6410  -12.9170   69.7200 C.ar  252  PHE252     -0.0203
    107  CD1       89.5810  -13.8220   70.1770 C.ar  252  PHE252     -0.0042
    108  CD2       87.5180  -13.3900   69.0580 C.ar  252  PHE252     -0.0042
    109  CE1       89.4140  -15.1700   69.9730 C.ar  252  PHE252     -0.0003
    110  CE2       87.3450  -14.7410   68.8460 C.ar  252  PHE252     -0.0003
    111  CZ        88.2940  -15.6300   69.3080 C.ar  252  PHE252     -0.0000
    112  N         89.4820   -7.5430   69.4010 N.3   254  VAL254     -0.1245
    113  CA        90.2770   -7.1630   68.2350 C.3   254  VAL254      0.1561
    114  C         89.6000   -6.0890   67.3930 C.2   254  VAL254      0.2260
    115  O         90.2480   -5.1260   66.9770 O.2   254  VAL254     -0.2867
    116  CB        90.5880   -8.3800   67.3390 C.3   254  VAL254      0.0252
    117  CG1       91.4670   -7.9690   66.1620 C.3   254  VAL254      0.0019
    118  CG2       91.2480   -9.4840   68.1560 C.3   254  VAL254      0.0019
    119  N         95.3480  -12.6950   60.6850 N.3   348  SER348     -0.1202
    120  CA        94.6170  -12.7040   61.9520 C.3   348  SER348      0.2020
    121  C         95.5230  -12.5010   63.1770 C.2   348  SER348      0.2619
    122  O         95.1500  -11.7960   64.1170 O.2   348  SER348     -0.2717
    123  CB        93.8420  -14.0080   62.1120 C.3   348  SER348      0.2103
    124  OG        92.7310  -14.0320   61.2400 O.3   348  SER348     -0.2182
    125  N         96.7080  -13.1070   63.1760 N.am  349  SER349     -0.1951
    126  CA        97.5640  -13.0560   64.3590 C.3   349  SER349      0.1924
    127  C         98.1290  -11.6590   64.6270 C.2   349  SER349      0.2314
    128  O         98.2850  -11.2640   65.7860 O.2   349  SER349     -0.2863
    129  CB        98.7060  -14.0620   64.2450 C.3   349  SER349      0.2116
    130  OG        99.6180  -13.6830   63.2380 O.3   349  SER349     -0.2180
    131  N         95.4000   -9.7860   66.4380 N.3   352  GLY352     -0.1210
    132  CA        95.1280  -10.2050   67.7990 C.3   352  GLY352      0.1956
    133  C         96.1690   -9.7660   68.8120 C.2   352  GLY352      0.2611
    134  O         95.8940   -9.7380   70.0120 O.2   352  GLY352     -0.2717
    135  N         97.3620   -9.4200   68.3390 N.am  353  MET353     -0.1979
    136  CA        98.4300   -8.9820   69.2340 C.3   353  MET353      0.1605
    137  C         98.4820   -7.4610   69.3020 C.2   353  MET353      0.2287
    138  O         99.1810   -6.8940   70.1410 O.2   353  MET353     -0.2864
    139  CB        99.7830   -9.5430   68.7880 C.3   353  MET353      0.0413
    140  CG        99.9760  -11.0140   69.1360 C.3   353  MET353      0.0598
    141  SD       101.6200  -11.6580   68.7630 S.3   353  MET353     -0.1393
    142  CE       101.6760  -11.4560   66.9840 C.3   353  MET353      0.0692
    143  N         92.2460  -22.8420   74.8790 N.3   397  ASP397     -0.1239
    144  CA        91.2310  -22.6060   73.8660 C.3   397  ASP397      0.1674
    145  C         89.8190  -22.7090   74.4370 C.2   397  ASP397      0.2266
    146  O         88.9080  -22.0180   73.9830 O.2   397  ASP397     -0.2867
    147  CB        91.4110  -23.5940   72.7140 C.3   397  ASP397      0.1410
    148  CG        90.2870  -23.5290   71.7140 C.2   397  ASP397      0.3668
    149  OD1       90.3630  -22.7010   70.7820 O.co2 397  ASP397     -0.2456
    150  OD2       89.3240  -24.3100   71.8700 O.co2 397  ASP397     -0.2456
    151  N         88.0360  -19.1850   74.1700 N.3   401  THR401     -0.1218
    152  CA        87.0780  -19.0850   73.0740 C.3   401  THR401      0.1862
    153  C         85.8230  -19.9290   73.2860 C.2   401  THR401      0.2287
    154  O         84.7900  -19.6690   72.6730 O.2   401  THR401     -0.2866
    155  CB        87.7340  -19.4780   71.7310 C.3   401  THR401      0.1770
    156  OG1       87.7680  -20.9050   71.6060 O.3   401  THR401     -0.2211
    157  CG2       89.1490  -18.9220   71.6470 C.3   401  THR401      0.0375
@<TRIPOS>BOND
     1    21    20    2
     2    18    19    1
     3    20    19    1
     4    29    28    2
     5    28    27    1
     6    19    22    1
     7    15    16    2
     8    15    14    1
     9     1     2    1
    10    17    14    1
    11    26    27    1
    12    14    13    1
    13    22    23    1
    14    13     3   am
    15    96    95    1
    16    24    23   ar
    17   119   120    1
    18     3     2    1
    19     3     4    2
    20     2     5    1
    21    95    92    1
    22    23    25   ar
    23    94    93    2
    24   124   123    1
    25    93    92    1
    26     5     6    1
    27    92    91    1
    28   120   123    1
    29   120   121    1
    30    72    71    1
    31     6     8   ar
    32     6     7   ar
    33    91    82   am
    34   125   121   am
    35   125   126    1
    36   121   122    2
    37   130   129    1
    38     8    10   ar
    39    71    70   ar
    40    71    69   ar
    41     7     9   ar
    42    70    68   ar
    43    83    82    2
    44    82    81    1
    45   129   126    1
    46   126   127    1
    47    97    98    1
    48    10    11   ar
    49   127   128    2
    50    69    67   ar
    51     9    11   ar
    52    76    75    2
    53    68    66   ar
    54    84    81    1
    55    84    85    1
    56    11    12    1
    57    98    99    1
    58    81    80    1
    59    64    63    2
    60    67    66   ar
    61   117   116    1
    62    75    74    1
    63    87    85   ar
    64    87    89   ar
    65    66    65    1
    66    78    77    1
    67    74    77    1
    68    74    73    1
    69    85    86   ar
    70   131   132    1
    71    99   100    2
    72    63    73   am
    73    63    62    1
    74   115   114    2
    75   142   141    1
    76    77    79    1
    77    89    90   ar
    78   116   118    1
    79   116   113    1
    80   114   113    1
    81    65    62    1
    82    62    61    1
    83    86    88   ar
    84   132   133    1
    85   113   112    1
    86   135   133   am
    87   135   136    1
    88    52    51    2
    89    90    88   ar
    90   141   140    1
    91   139   140    1
    92   139   136    1
    93   133   134    2
    94   110   108   ar
    95   110   111   ar
    96    61    51   am
    97   108   106   ar
    98   136   137    1
    99   137   138    2
   100    51    50    1
   101   111   109   ar
   102   106   105    1
   103   106   107   ar
   104    42    41    1
   105   105   102    1
   106   109   107   ar
   107    55    57   ar
   108    55    54   ar
   109    57    59   ar
   110    47    46    2
   111   149   148   ar
   112    40    39    2
   113    50    53    1
   114    50    49    1
   115   101   102    1
   116    45    46    1
   117    45    48    1
   118    45    44    1
   119   102   103    1
   120    41    43    1
   121    41    38    1
   122    53    54    1
   123    54    56   ar
   124    59    60    1
   125    59    58   ar
   126    39    44   am
   127    39    38    1
   128   103   104    2
   129   156   155    1
   130   157   155    1
   131   148   150   ar
   132   148   147    1
   133   155   152    1
   134    34    31    1
   135    34    35    1
   136    38    37    1
   137    33    32    2
   138    56    58   ar
   139   154   153    2
   140    31    32    1
   141    31    30    1
   142   147   144    1
   143   152   153    1
   144   152   151    1
   145    35    36    1
   146   144   145    1
   147   144   143    1
   148    30    36    1
   149   146   145    2
