@<TRIPOS>MOLECULE
tmp/4mm7A00.pdb
 132 125 0 0 0
SMALL
GASTEIGER

@<TRIPOS>ATOM
      1  N        181.5330  -12.0570  106.3510 N.3    17  TYR17      -0.1227
      2  CA       181.6360  -12.6170  105.0110 C.3    17  TYR17       0.1736
      3  C        182.5820  -13.8160  104.9840 C.2    17  TYR17       0.2595
      4  O        182.1810  -14.9090  104.6000 O.2    17  TYR17      -0.2718
      5  CB       182.0890  -11.5470  104.0050 C.3    17  TYR17       0.0548
      6  CG       182.5570  -12.1030  102.6760 C.ar   17  TYR17      -0.0200
      7  CD1      181.6640  -12.6990  101.7930 C.ar   17  TYR17      -0.0009
      8  CD2      183.8930  -12.0260  102.3020 C.ar   17  TYR17      -0.0009
      9  CE1      182.0910  -13.2110  100.5770 C.ar   17  TYR17       0.0417
     10  CE2      184.3280  -12.5300  101.0870 C.ar   17  TYR17       0.0417
     11  CZ       183.4230  -13.1210  100.2300 C.ar   17  TYR17       0.1957
     12  OH       183.8530  -13.6240   99.0250 O.3    17  TYR17      -0.2866
     13  N        183.8230  -13.6110  105.4170 N.am   18  ALA18      -0.1980
     14  CA       184.8610  -14.6440  105.3440 C.3    18  ALA18       0.1597
     15  C        184.6070  -15.8700  106.2340 C.2    18  ALA18       0.2287
     16  O        184.9200  -16.9970  105.8550 O.2    18  ALA18      -0.2864
     17  CB       186.2310  -14.0400  105.6440 C.3    18  ALA18       0.0319
     18  N        182.6610  -18.7350  107.4150 N.3    20  ASP20      -0.1239
     19  CA       181.5990  -19.4960  106.7740 C.3    20  ASP20       0.1674
     20  C        181.6460  -20.9500  107.2130 C.2    20  ASP20       0.2266
     21  O        182.3300  -21.2980  108.1770 O.2    20  ASP20      -0.2867
     22  CB       181.7700  -19.4330  105.2590 C.3    20  ASP20       0.1410
     23  CG       183.1150  -19.9780  104.8040 C.2    20  ASP20       0.3668
     24  OD1      184.0120  -20.1460  105.6590 O.co2  20  ASP20      -0.2456
     25  OD2      183.2840  -20.2270  103.5930 O.co2  20  ASP20      -0.2456
     26  N        179.6620  -14.2500   92.0540 N.3    97  PRO97      -0.2116
     27  CA       178.9270  -14.4120   93.3140 C.3    97  PRO97       0.1372
     28  C        177.4440  -14.7000   93.0870 C.2    97  PRO97       0.2244
     29  O        176.7800  -15.2620   93.9610 O.2    97  PRO97      -0.2868
     30  CB       179.1090  -13.0520   93.9960 C.3    97  PRO97       0.0268
     31  CG       179.2230  -12.0990   92.8740 C.3    97  PRO97       0.0207
     32  CD       179.9650  -12.8290   91.7880 C.3    97  PRO97       0.0892
     33  N        177.1990  -18.4590   92.6640 N.3   100  VAL100     -0.1231
     34  CA       177.3100  -19.0530   93.9920 C.3   100  VAL100      0.1692
     35  C        176.0140  -18.8910   94.7800 C.2   100  VAL100      0.2591
     36  O        175.5240  -19.8390   95.3890 O.2   100  VAL100     -0.2718
     37  CB       178.4870  -18.4700   94.7830 C.3   100  VAL100      0.0266
     38  CG1      178.6090  -19.1670   96.1110 C.3   100  VAL100      0.0020
     39  CG2      179.7770  -18.6220   93.9940 C.3   100  VAL100      0.0020
     40  N        175.4500  -17.6890   94.7350 N.am  101  ALA101     -0.1980
     41  CA       174.1860  -17.3940   95.4040 C.3   101  ALA101      0.1597
     42  C        173.0740  -18.3350   94.9810 C.2   101  ALA101      0.2287
     43  O        172.0990  -18.5330   95.6990 O.2   101  ALA101     -0.2864
     44  CB       173.7680  -15.9670   95.1170 C.3   101  ALA101      0.0319
     45  N        173.2260  -21.4530   94.5550 N.3   103  TYR103     -0.1227
     46  CA       173.2690  -22.6810   95.3350 C.3   103  TYR103      0.1736
     47  C        173.6110  -22.4830   96.8200 C.2   103  TYR103      0.2595
     48  O        173.2440  -23.3090   97.6570 O.2   103  TYR103     -0.2718
     49  CB       174.1910  -23.7110   94.6820 C.3   103  TYR103      0.0548
     50  CG       175.6590  -23.3600   94.6320 C.ar  103  TYR103     -0.0200
     51  CD1      176.5230  -23.7760   95.6370 C.ar  103  TYR103     -0.0009
     52  CD2      176.1940  -22.6590   93.5590 C.ar  103  TYR103     -0.0009
     53  CE1      177.8720  -23.4830   95.5910 C.ar  103  TYR103      0.0417
     54  CE2      177.5520  -22.3640   93.5030 C.ar  103  TYR103      0.0417
     55  CZ       178.3820  -22.7760   94.5260 C.ar  103  TYR103      0.1957
     56  OH       179.7280  -22.4900   94.4850 O.3   103  TYR103     -0.2866
     57  N        174.3000  -21.3920   97.1470 N.am  104  TYR104     -0.1976
     58  CA       174.7330  -21.1750   98.5240 C.3   104  TYR104      0.1639
     59  C        173.5640  -20.9050   99.4580 C.2   104  TYR104      0.2290
     60  O        173.4030  -21.5870  100.4680 O.2   104  TYR104     -0.2864
     61  CB       175.7550  -20.0430   98.6310 C.3   104  TYR104      0.0560
     62  CG       176.4810  -20.0460   99.9600 C.ar  104  TYR104     -0.0198
     63  CD1      177.5130  -20.9450  100.2010 C.ar  104  TYR104     -0.0009
     64  CD2      176.1260  -19.1660  100.9780 C.ar  104  TYR104     -0.0009
     65  CE1      178.1740  -20.9660  101.4110 C.ar  104  TYR104      0.0417
     66  CE2      176.7880  -19.1790  102.1970 C.ar  104  TYR104      0.0417
     67  CZ       177.8130  -20.0820  102.4060 C.ar  104  TYR104      0.1957
     68  OH       178.4810  -20.1030  103.6090 O.3   104  TYR104     -0.2866
     69  N        189.4970  -19.5750   99.2420 N.3   246  PHE246     -0.1241
     70  CA       188.2150  -19.9370   99.8210 C.3   246  PHE246      0.1605
     71  C        187.9900  -19.3480  101.2020 C.2   246  PHE246      0.2264
     72  O        186.9090  -18.8510  101.4910 O.2   246  PHE246     -0.2867
     73  CB       188.0500  -21.4530   99.8810 C.3   246  PHE246      0.0534
     74  CG       187.1920  -22.0040   98.7860 C.ar  246  PHE246     -0.0203
     75  CD1      185.8440  -21.6970   98.7290 C.ar  246  PHE246     -0.0042
     76  CD2      187.7300  -22.8310   97.8160 C.ar  246  PHE246     -0.0042
     77  CE1      185.0480  -22.2000   97.7250 C.ar  246  PHE246     -0.0003
     78  CE2      186.9440  -23.3410   96.8070 C.ar  246  PHE246     -0.0003
     79  CZ       185.5990  -23.0280   96.7580 C.ar  246  PHE246     -0.0000
     80  N        187.7550  -15.4350  100.9200 N.3   249  GLY249     -0.1225
     81  CA       186.7110  -15.0030  100.0080 C.3   249  GLY249      0.1811
     82  C        187.2470  -14.1040   98.9100 C.2   249  GLY249      0.2280
     83  O        186.6260  -13.1060   98.5440 O.2   249  GLY249     -0.2866
     84  N        185.8190  -13.1210   94.3740 N.3   252  PHE252     -0.1241
     85  CA       184.3610  -13.1670   94.3010 C.3   252  PHE252      0.1605
     86  C        183.7520  -11.7840   94.0610 C.2   252  PHE252      0.2264
     87  O        182.5430  -11.6640   93.8360 O.2   252  PHE252     -0.2867
     88  CB       183.7730  -13.7400   95.5930 C.3   252  PHE252      0.0534
     89  CG       184.0190  -15.2110   95.7910 C.ar  252  PHE252     -0.0203
     90  CD1      183.1070  -16.1470   95.3320 C.ar  252  PHE252     -0.0042
     91  CD2      185.1430  -15.6560   96.4680 C.ar  252  PHE252     -0.0042
     92  CE1      183.3260  -17.5020   95.5240 C.ar  252  PHE252     -0.0003
     93  CE2      185.3620  -17.0100   96.6730 C.ar  252  PHE252     -0.0003
     94  CZ       184.4520  -17.9340   96.2020 C.ar  252  PHE252     -0.0000
     95  N        183.2470   -9.5930   96.1880 N.3   254  VAL254     -0.1245
     96  CA       182.4530   -9.2070   97.3450 C.3   254  VAL254      0.1561
     97  C        183.1990   -8.1840   98.1920 C.2   254  VAL254      0.2260
     98  O        182.6330   -7.1650   98.5840 O.2   254  VAL254     -0.2867
     99  CB       182.0750  -10.4260   98.2010 C.3   254  VAL254      0.0252
    100  CG1      181.4040   -9.9850   99.4890 C.3   254  VAL254      0.0019
    101  CG2      181.1650  -11.3600   97.4180 C.3   254  VAL254      0.0019
    102  N        177.4240  -14.4880  105.1930 N.3   348  SER348     -0.1202
    103  CA       178.1580  -14.5830  103.9390 C.3   348  SER348      0.2020
    104  C        177.2480  -14.3630  102.7350 C.2   348  SER348      0.2619
    105  O        177.6520  -13.7480  101.7510 O.2   348  SER348     -0.2717
    106  CB       178.8580  -15.9360  103.8270 C.3   348  SER348      0.2103
    107  OG       179.9270  -16.0390  104.7500 O.3   348  SER348     -0.2182
    108  N        176.0180  -14.8570  102.8170 N.am  349  SER349     -0.1951
    109  CA       175.1170  -14.7900  101.6720 C.3   349  SER349      0.1924
    110  C        174.5700  -13.3850  101.4270 C.2   349  SER349      0.2314
    111  O        174.3490  -12.9940  100.2820 O.2   349  SER349     -0.2863
    112  CB       173.9840  -15.8150  101.7920 C.3   349  SER349      0.2116
    113  OG       173.1390  -15.5300  102.8880 O.3   349  SER349     -0.2180
    114  N        177.3800  -11.6380   99.5550 N.3   352  GLY352     -0.1225
    115  CA       177.5230  -11.9960   98.1590 C.3   352  GLY352      0.1811
    116  C        176.4210  -11.4380   97.2870 C.2   352  GLY352      0.2280
    117  O        176.6340  -11.1740   96.1020 O.2   352  GLY352     -0.2866
    118  N        179.4930  -24.8130   91.1350 N.3   397  ASP397     -0.1239
    119  CA       180.5770  -24.6210   92.0880 C.3   397  ASP397      0.1674
    120  C        181.9350  -24.8190   91.4340 C.2   397  ASP397      0.2266
    121  O        182.9100  -24.1600   91.7920 O.2   397  ASP397     -0.2867
    122  CB       180.4260  -25.5720   93.2760 C.3   397  ASP397      0.1410
    123  CG       181.5770  -25.4610   94.2590 C.2   397  ASP397      0.3668
    124  OD1      181.4960  -24.6270   95.1890 O.co2 397  ASP397     -0.2456
    125  OD2      182.5660  -26.2100   94.0970 O.co2 397  ASP397     -0.2456
    126  N        183.6840  -21.1790   91.3690 N.3   401  THR401     -0.1218
    127  CA       184.6860  -21.1310   92.4340 C.3   401  THR401      0.1862
    128  C        185.8860  -22.0290   92.1670 C.2   401  THR401      0.2287
    129  O        186.6450  -22.3540   93.0680 O.2   401  THR401     -0.2866
    130  CB       184.0810  -21.5190   93.7900 C.3   401  THR401      0.1770
    131  OG1      184.0670  -22.9440   93.9290 O.3   401  THR401     -0.2211
    132  CG2      182.6630  -20.9850   93.9070 C.3   401  THR401      0.0375
@<TRIPOS>BOND
     1   118   119    1
     2   126   127    1
     3   120   121    2
     4   120   119    1
     5    32    26    1
     6    32    31    1
     7    26    27    1
     8   119   122    1
     9   128   127    1
    10   128   129    2
    11   127   130    1
    12    33    34    1
    13    31    30    1
    14    28    27    1
    15    28    29    2
    16   122   123    1
    17    27    30    1
    18    54    52   ar
    19    54    55   ar
    20    52    50   ar
    21   130   132    1
    22   130   131    1
    23    87    86    2
    24    34    35    1
    25    34    37    1
    26    39    37    1
    27    86    85    1
    28   125   123   ar
    29   123   124   ar
    30    85    84    1
    31    85    88    1
    32    56    55    1
    33    55    53   ar
    34    45    46    1
    35    50    49    1
    36    50    51   ar
    37    49    46    1
    38    40    35   am
    39    40    41    1
    40    35    36    2
    41    37    38    1
    42    42    41    1
    43    42    43    2
    44    44    41    1
    45    90    92   ar
    46    90    89   ar
    47    46    47    1
    48    92    94   ar
    49    53    51   ar
    50    88    89    1
    51    89    91   ar
    52   117   116    2
    53    95    96    1
    54    94    93   ar
    55    91    93   ar
    56    79    78   ar
    57    79    77   ar
    58    78    76   ar
    59    47    57   am
    60    47    48    2
    61    57    58    1
    62   116   115    1
    63    96    97    1
    64    96    99    1
    65   101    99    1
    66    77    75   ar
    67    76    74   ar
    68   115   114    1
    69    97    98    2
    70    99   100    1
    71    58    61    1
    72    58    59    1
    73    83    82    2
    74    61    62    1
    75    75    74   ar
    76    74    73    1
    77    82    81    1
    78    12    11    1
    79    69    70    1
    80    59    60    2
    81    70    73    1
    82    70    71    1
    83    62    63   ar
    84    62    64   ar
    85    81    80    1
    86    63    65   ar
    87    11     9   ar
    88    11    10   ar
    89   111   110    2
    90     9     7   ar
    91    64    66   ar
    92    10     8   ar
    93    71    72    2
    94    65    67   ar
    95   110   109    1
    96   109   112    1
    97   109   108    1
    98   105   104    2
    99   112   113    1
   100     7     6   ar
   101    66    67   ar
   102     8     6   ar
   103    67    68    1
   104     6     5    1
   105   104   108   am
   106   104   103    1
   107    25    23   ar
   108   106   103    1
   109   106   107    1
   110   103   102    1
   111     5     2    1
   112     4     3    2
   113    23    22    1
   114    23    24   ar
   115     3     2    1
   116     3    13   am
   117     2     1    1
   118    22    19    1
   119    14    13    1
   120    14    17    1
   121    14    15    1
   122    16    15    2
   123    19    20    1
   124    19    18    1
   125    20    21    2
