@<TRIPOS>MOLECULE
tmp/4mm8A00.pdb
 157 149 0 0 0
SMALL
GASTEIGER

@<TRIPOS>ATOM
      1  N        -28.9640   16.9690   25.0570 N.3    17  TYR17      -0.1227
      2  CA       -28.8850   16.4140   23.7190 C.3    17  TYR17       0.1736
      3  C        -27.8750   15.2670   23.6670 C.2    17  TYR17       0.2595
      4  O        -28.2150   14.1630   23.2560 O.2    17  TYR17      -0.2718
      5  CB       -28.5530   17.4930   22.6850 C.3    17  TYR17       0.0548
      6  CG       -28.0520   16.9530   21.3650 C.ar   17  TYR17      -0.0200
      7  CD1      -28.8960   16.2650   20.5020 C.ar   17  TYR17      -0.0009
      8  CD2      -26.7330   17.1430   20.9790 C.ar   17  TYR17      -0.0009
      9  CE1      -28.4360   15.7710   19.2970 C.ar   17  TYR17       0.0417
     10  CE2      -26.2620   16.6560   19.7750 C.ar   17  TYR17       0.0417
     11  CZ       -27.1150   15.9720   18.9400 C.ar   17  TYR17       0.1957
     12  OH       -26.6440   15.4870   17.7450 O.3    17  TYR17      -0.2866
     13  N        -26.6450   15.5250   24.1050 N.am   18  ALA18      -0.1980
     14  CA       -25.5780   14.5220   24.0410 C.3    18  ALA18       0.1597
     15  C        -25.8640   13.2330   24.8520 C.2    18  ALA18       0.2287
     16  O        -25.5580   12.1180   24.4080 O.2    18  ALA18      -0.2864
     17  CB       -24.2400   15.1330   24.4610 C.3    18  ALA18       0.0319
     18  N        -28.0180   10.4580   25.6560 N.3    20  ASP20      -0.1239
     19  CA       -29.2080    9.7150   25.2720 C.3    20  ASP20       0.1674
     20  C        -29.1130    8.2950   25.8310 C.2    20  ASP20       0.2266
     21  O        -28.5510    8.0840   26.9080 O.2    20  ASP20      -0.2867
     22  CB       -29.3760    9.7110   23.7440 C.3    20  ASP20       0.1410
     23  CG       -28.2150    9.0160   23.0140 C.2    20  ASP20       0.3668
     24  OD1      -27.0760    9.0460   23.5210 O.co2  20  ASP20      -0.2456
     25  OD2      -28.4410    8.4250   21.9340 O.co2  20  ASP20      -0.2456
     26  N        -27.4720    6.0080   24.3010 N.3    22  GLY22      -0.1225
     27  CA       -26.1630    5.5580   23.8570 C.3    22  GLY22       0.1811
     28  C        -25.1550    5.5440   24.9920 C.2    22  GLY22       0.2280
     29  O        -24.2640    4.6840   25.0440 O.2    22  GLY22      -0.2866
     30  N        -31.0960   14.8660   10.8150 N.3    97  PRO97      -0.2116
     31  CA       -31.9190   14.8140   12.0310 C.3    97  PRO97       0.1372
     32  C        -33.3910   14.5150   11.7510 C.2    97  PRO97       0.2244
     33  O        -34.1160   14.0780   12.6480 O.2    97  PRO97      -0.2868
     34  CB       -31.7800   16.2270   12.6090 C.3    97  PRO97       0.0268
     35  CG       -31.4300   17.0690   11.4650 C.3    97  PRO97       0.0207
     36  CD       -30.5480   16.2180   10.6050 C.3    97  PRO97       0.0892
     37  N        -33.5530   10.5960   11.3310 N.3   100  VAL100     -0.1231
     38  CA       -33.3850    9.9690   12.6380 C.3   100  VAL100      0.1692
     39  C        -34.6480   10.1020   13.4840 C.2   100  VAL100      0.2591
     40  O        -35.0620    9.1520   14.1500 O.2   100  VAL100     -0.2718
     41  CB       -32.1750   10.5430   13.3970 C.3   100  VAL100      0.0266
     42  CG1      -32.0100    9.8420   14.7330 C.3   100  VAL100      0.0020
     43  CG2      -30.9110   10.3820   12.5710 C.3   100  VAL100      0.0020
     44  N        -35.2670   11.2780   13.4320 N.am  101  ALA101     -0.1980
     45  CA       -36.5060   11.5340   14.1610 C.3   101  ALA101      0.1597
     46  C        -37.6260   10.5910   13.7340 C.2   101  ALA101      0.2287
     47  O        -38.5800   10.3670   14.4780 O.2   101  ALA101     -0.2864
     48  CB       -36.9390   12.9760   13.9700 C.3   101  ALA101      0.0319
     49  N        -37.5250    7.5150   13.4260 N.3   103  TYR103     -0.1227
     50  CA       -37.5020    6.2710   14.1840 C.3   103  TYR103      0.1736
     51  C        -37.0650    6.4610   15.6360 C.2   103  TYR103      0.2595
     52  O        -37.4470    5.6780   16.5080 O.2   103  TYR103     -0.2718
     53  CB       -36.6310    5.2220   13.4850 C.3   103  TYR103      0.0548
     54  CG       -35.1670    5.5880   13.3630 C.ar  103  TYR103     -0.0200
     55  CD1      -34.2510    5.1870   14.3270 C.ar  103  TYR103     -0.0009
     56  CD2      -34.7000    6.3190   12.2790 C.ar  103  TYR103     -0.0009
     57  CE1      -32.9160    5.5090   14.2180 C.ar  103  TYR103      0.0417
     58  CE2      -33.3610    6.6420   12.1610 C.ar  103  TYR103      0.0417
     59  CZ       -32.4760    6.2380   13.1350 C.ar  103  TYR103      0.1957
     60  OH       -31.1420    6.5580   13.0290 O.3   103  TYR103     -0.2866
     61  N        -36.2730    7.5010   15.8930 N.am  104  TYR104     -0.1962
     62  CA       -35.7690    7.7410   17.2430 C.3   104  TYR104      0.1771
     63  C        -36.9050    7.9960   18.2200 C.2   104  TYR104      0.2619
     64  O        -37.0210    7.3100   19.2320 O.2   104  TYR104     -0.2715
     65  CB       -34.7790    8.9060   17.2810 C.3   104  TYR104      0.0574
     66  CG       -34.1080    9.0590   18.6290 C.ar  104  TYR104     -0.0198
     67  CD1      -33.0050    8.2830   18.9660 C.ar  104  TYR104     -0.0009
     68  CD2      -34.5850    9.9660   19.5710 C.ar  104  TYR104     -0.0009
     69  CE1      -32.3890    8.4090   20.1970 C.ar  104  TYR104      0.0417
     70  CE2      -33.9730   10.1000   20.8100 C.ar  104  TYR104      0.0417
     71  CZ       -32.8740    9.3170   21.1170 C.ar  104  TYR104      0.1957
     72  OH       -32.2510    9.4350   22.3410 O.3   104  TYR104     -0.2866
     73  N        -37.7350    8.9860   17.9090 N.am  105  VAL105     -0.1977
     74  CA       -38.9140    9.2950   18.7090 C.3   105  VAL105      0.1596
     75  C        -39.7660    8.0460   18.9500 C.2   105  VAL105      0.2287
     76  O        -40.3010    7.8530   20.0430 O.2   105  VAL105     -0.2864
     77  CB       -39.7600   10.4070   18.0460 C.3   105  VAL105      0.0276
     78  CG1      -41.1280   10.5400   18.7150 C.3   105  VAL105      0.0022
     79  CG2      -39.0050   11.7300   18.0760 C.3   105  VAL105      0.0022
     80  N        -20.8200    9.3180   17.6160 N.3   246  PHE246     -0.1227
     81  CA       -22.1320    8.9100   18.1000 C.3   246  PHE246      0.1736
     82  C        -22.4800    9.5280   19.4550 C.2   246  PHE246      0.2596
     83  O        -23.5880   10.0000   19.6390 O.2   246  PHE246     -0.2718
     84  CB       -22.2250    7.3850   18.2180 C.3   246  PHE246      0.0547
     85  CG       -22.7470    6.6950   16.9840 C.ar  246  PHE246     -0.0202
     86  CD1      -21.8710    6.1810   16.0380 C.ar  246  PHE246     -0.0042
     87  CD2      -24.1110    6.5280   16.7870 C.ar  246  PHE246     -0.0042
     88  CE1      -22.3440    5.5280   14.9070 C.ar  246  PHE246     -0.0003
     89  CE2      -24.5930    5.8740   15.6550 C.ar  246  PHE246     -0.0003
     90  CZ       -23.7060    5.3740   14.7160 C.ar  246  PHE246     -0.0000
     91  N        -21.5500    9.5160   20.4070 N.am  247  SER247     -0.1952
     92  CA       -21.8700    9.9480   21.7710 C.3   247  SER247      0.1924
     93  C        -21.9380   11.4680   21.9500 C.2   247  SER247      0.2314
     94  O        -22.6850   11.9660   22.7940 O.2   247  SER247     -0.2863
     95  CB       -20.8940    9.3400   22.7850 C.3   247  SER247      0.2116
     96  OG       -21.3880    9.4740   24.1100 O.3   247  SER247     -0.2180
     97  N        -22.8320   13.3730   19.4270 N.3   249  GLY249     -0.1225
     98  CA       -23.8940   13.7830   18.5290 C.3   249  GLY249      0.1811
     99  C        -23.3880   14.7350   17.4620 C.2   249  GLY249      0.2280
    100  O        -24.0490   15.7140   17.1110 O.2   249  GLY249     -0.2866
    101  N        -24.9620   15.9680   13.1030 N.3   252  PHE252     -0.1241
    102  CA       -26.4140   15.8830   12.9890 C.3   252  PHE252      0.1605
    103  C        -27.0070   17.2650   12.7320 C.2   252  PHE252      0.2264
    104  O        -28.2170   17.4110   12.5540 O.2   252  PHE252     -0.2867
    105  CB       -27.0250   15.2670   14.2520 C.3   252  PHE252      0.0534
    106  CG       -26.7280   13.8020   14.4250 C.ar  252  PHE252     -0.0203
    107  CD1      -27.6470   12.8480   14.0280 C.ar  252  PHE252     -0.0042
    108  CD2      -25.5340   13.3780   14.9910 C.ar  252  PHE252     -0.0042
    109  CE1      -27.3820   11.5000   14.1890 C.ar  252  PHE252     -0.0003
    110  CE2      -25.2610   12.0300   15.1540 C.ar  252  PHE252     -0.0003
    111  CZ       -26.1860   11.0910   14.7550 C.ar  252  PHE252     -0.0000
    112  N        -27.3150   19.5250   14.8120 N.3   254  VAL254     -0.1245
    113  CA       -28.1130   19.8830   15.9770 C.3   254  VAL254      0.1561
    114  C        -27.3150   20.7870   16.9150 C.2   254  VAL254      0.2260
    115  O        -27.8680   21.6720   17.5680 O.2   254  VAL254     -0.2867
    116  CB       -28.6260   18.6310   16.7210 C.3   254  VAL254      0.0252
    117  CG1      -29.4720   19.0290   17.9110 C.3   254  VAL254      0.0019
    118  CG2      -29.4340   17.7550   15.7770 C.3   254  VAL254      0.0019
    119  N        -33.0340   14.4800   23.7740 N.3   348  SER348     -0.1202
    120  CA       -32.3430   14.3890   22.4900 C.3   348  SER348      0.2020
    121  C        -33.3020   14.6240   21.3260 C.2   348  SER348      0.2619
    122  O        -32.9440   15.2590   20.3340 O.2   348  SER348     -0.2717
    123  CB       -31.6550   13.0280   22.3300 C.3   348  SER348      0.2103
    124  OG       -30.5440   12.9040   23.2010 O.3   348  SER348     -0.2182
    125  N        -34.5200   14.1090   21.4520 N.am  349  SER349     -0.1951
    126  CA       -35.4930   14.2170   20.3740 C.3   349  SER349      0.1924
    127  C        -35.9420   15.6550   20.1470 C.2   349  SER349      0.2314
    128  O        -36.0030   16.1180   19.0060 O.2   349  SER349     -0.2863
    129  CB       -36.6920   13.3010   20.6230 C.3   349  SER349      0.2116
    130  OG       -37.2220   13.4780   21.9230 O.3   349  SER349     -0.2180
    131  N        -33.1500   17.7010   18.1320 N.3   352  GLY352     -0.1210
    132  CA       -32.9530   17.4820   16.7160 C.3   352  GLY352      0.1956
    133  C        -34.1200   17.8300   15.8130 C.2   352  GLY352      0.2611
    134  O        -33.9210   18.0820   14.6160 O.2   352  GLY352     -0.2717
    135  N        -35.3250   17.8690   16.3750 N.am  353  MET353     -0.1979
    136  CA       -36.4790   18.3380   15.6290 C.3   353  MET353      0.1605
    137  C        -36.4930   19.8740   15.6210 C.2   353  MET353      0.2287
    138  O        -37.3510   20.4920   14.9910 O.2   353  MET353     -0.2864
    139  CB       -37.7740   17.7840   16.2230 C.3   353  MET353      0.0413
    140  CG       -37.8640   16.2600   16.2780 C.3   353  MET353      0.0598
    141  SD       -39.5550   15.6140   16.2700 S.3   353  MET353     -0.1393
    142  CE       -40.3570   16.6590   17.4750 C.3   353  MET353      0.0692
    143  N        -31.3400    4.2680    9.6730 N.3   397  ASP397     -0.1239
    144  CA       -30.2570    4.4970   10.6170 C.3   397  ASP397      0.1674
    145  C        -28.8960    4.2890    9.9710 C.2   397  ASP397      0.2266
    146  O        -27.9160    4.9290   10.3530 O.2   397  ASP397     -0.2867
    147  CB       -30.3920    3.5800   11.8300 C.3   397  ASP397      0.1410
    148  CG       -29.2390    3.7360   12.8000 C.2   397  ASP397      0.3668
    149  OD1      -29.2850    4.6700   13.6280 O.co2 397  ASP397     -0.2456
    150  OD2      -28.2820    2.9330   12.7280 O.co2 397  ASP397     -0.2456
    151  N        -27.1440    7.9150    9.9990 N.3   401  THR401     -0.1218
    152  CA       -26.1970    7.9350   11.1120 C.3   401  THR401      0.1862
    153  C        -24.8860    7.2100   10.8130 C.2   401  THR401      0.2287
    154  O        -23.8520    7.5400   11.3820 O.2   401  THR401     -0.2866
    155  CB       -26.8130    7.3200   12.3790 C.3   401  THR401      0.1770
    156  OG1      -26.8240    5.8910   12.2640 O.3   401  THR401     -0.2211
    157  CG2      -28.2330    7.8300   12.5780 C.3   401  THR401      0.0375
@<TRIPOS>BOND
     1   143   144    1
     2   145   146    2
     3   145   144    1
     4   151   152    1
     5    36    30    1
     6    36    35    1
     7   144   147    1
     8   153   152    1
     9   153   154    2
    10    30    31    1
    11   152   155    1
    12    37    38    1
    13    35    34    1
    14    32    31    1
    15    32    33    2
    16   147   148    1
    17    31    34    1
    18    58    56   ar
    19    58    59   ar
    20   156   155    1
    21    56    54   ar
    22   155   157    1
    23   104   103    2
    24    43    41    1
    25    38    41    1
    26    38    39    1
    27   150   148   ar
    28   103   102    1
    29   148   149   ar
    30   102   101    1
    31   102   105    1
    32    60    59    1
    33    59    57   ar
    34    54    53    1
    35    54    55   ar
    36    41    42    1
    37    49    50    1
    38    44    39   am
    39    44    45    1
    40    39    40    2
    41    53    50    1
    42    46    45    1
    43    46    47    2
    44    48    45    1
    45   107   109   ar
    46   107   106   ar
    47    50    51    1
    48   109   111   ar
    49    57    55   ar
    50   105   106    1
    51   106   108   ar
    52   134   133    2
    53    90    88   ar
    54    90    89   ar
    55   111   110   ar
    56   112   113    1
    57    88    86   ar
    58   108   110   ar
    59   138   137    2
    60   137   136    1
    61   136   139    1
    62   136   135    1
    63    51    61   am
    64    51    52    2
    65    89    87   ar
    66   118   116    1
    67   133   135   am
    68   133   132    1
    69    61    62    1
    70   113   116    1
    71   113   114    1
    72    86    85   ar
    73   139   140    1
    74   141   140    1
    75   141   142    1
    76   132   131    1
    77   116   117    1
    78    87    85   ar
    79   114   115    2
    80    85    84    1
    81   100    99    2
    82    62    65    1
    83    62    63    1
    84    65    66    1
    85    99    98    1
    86    80    81    1
    87    12    11    1
    88    73    63   am
    89    73    74    1
    90    77    79    1
    91    77    74    1
    92    77    78    1
    93    81    84    1
    94    81    82    1
    95    63    64    2
    96    98    97    1
    97    66    67   ar
    98    66    68   ar
    99    74    75    1
   100    11     9   ar
   101    11    10   ar
   102    75    76    2
   103    67    69   ar
   104   128   127    2
   105     9     7   ar
   106    82    83    2
   107    82    91   am
   108    68    70   ar
   109    10     8   ar
   110   127   126    1
   111    69    71   ar
   112   122   121    2
   113   126   129    1
   114   126   125    1
   115    91    92    1
   116     7     6   ar
   117   129   130    1
   118    70    71   ar
   119     8     6   ar
   120    71    72    1
   121   121   125   am
   122   121   120    1
   123     6     5    1
   124    92    93    1
   125    92    95    1
   126    25    23   ar
   127    93    94    2
   128   123   120    1
   129   123   124    1
   130   120   119    1
   131     5     2    1
   132    95    96    1
   133    23    24   ar
   134    23    22    1
   135     4     3    2
   136     3     2    1
   137     3    13   am
   138     2     1    1
   139    22    19    1
   140    27    26    1
   141    27    28    1
   142    14    13    1
   143    14    17    1
   144    14    15    1
   145    16    15    2
   146    28    29    2
   147    19    18    1
   148    19    20    1
   149    20    21    2
