@<TRIPOS>MOLECULE
tmp/4mm9A00.pdb
 176 167 0 0 0
SMALL
GASTEIGER

@<TRIPOS>ATOM
      1  N        188.3630  -10.4900  106.4070 N.3    17  TYR17      -0.1227
      2  CA       188.4670  -11.1080  105.0960 C.3    17  TYR17       0.1736
      3  C        189.4600  -12.2680  105.1180 C.2    17  TYR17       0.2595
      4  O        189.1020  -13.4010  104.7990 O.2    17  TYR17      -0.2718
      5  CB       188.8780  -10.0680  104.0480 C.3    17  TYR17       0.0548
      6  CG       189.3810  -10.6660  102.7520 C.ar   17  TYR17      -0.0200
      7  CD1      188.5350  -11.3990  101.9290 C.ar   17  TYR17      -0.0009
      8  CD2      190.7000  -10.4950  102.3520 C.ar   17  TYR17      -0.0009
      9  CE1      188.9920  -11.9510  100.7450 C.ar   17  TYR17       0.0417
     10  CE2      191.1640  -11.0400  101.1690 C.ar   17  TYR17       0.0417
     11  CZ       190.3050  -11.7660  100.3710 C.ar   17  TYR17       0.1957
     12  OH       190.7590  -12.3110   99.1940 O.3    17  TYR17      -0.2866
     13  N        190.6960  -11.9760  105.5160 N.am   18  ALA18      -0.1980
     14  CA       191.7880  -12.9540  105.5100 C.3    18  ALA18       0.1597
     15  C        191.4950  -14.2260  106.3120 C.2    18  ALA18       0.2287
     16  O        191.7300  -15.3360  105.8290 O.2    18  ALA18      -0.2864
     17  CB       193.0830  -12.3030  105.9860 C.3    18  ALA18       0.0319
     18  N        189.4290  -17.1410  107.4410 N.3    20  ASP20      -0.1239
     19  CA       188.2400  -17.9650  107.2150 C.3    20  ASP20       0.1674
     20  C        188.5510  -19.4570  107.3660 C.2    20  ASP20       0.2266
     21  O        189.5590  -19.8240  107.9770 O.2    20  ASP20      -0.2867
     22  CB       187.5950  -17.6780  105.8530 C.3    20  ASP20       0.1410
     23  CG       188.4120  -18.2130  104.6890 C.2    20  ASP20       0.3668
     24  OD1      189.6470  -18.3510  104.8360 O.co2  20  ASP20      -0.2456
     25  OD2      187.8200  -18.4900  103.6200 O.co2  20  ASP20      -0.2456
     26  N        189.9390  -21.6900  105.7620 N.3    22  GLY22      -0.1210
     27  CA       191.2800  -22.1370  105.4260 C.3    22  GLY22       0.1956
     28  C        192.2420  -22.1130  106.6000 C.2    22  GLY22       0.2611
     29  O        193.0890  -22.9960  106.7350 O.2    22  GLY22      -0.2717
     30  N        192.1150  -21.0980  107.4490 N.am   23  ASN23      -0.1974
     31  CA       192.9690  -20.9700  108.6250 C.3    23  ASN23       0.1688
     32  C        192.8350  -22.1610  109.5650 C.2    23  ASN23       0.2292
     33  O        193.8230  -22.6460  110.1160 O.2    23  ASN23      -0.2864
     34  CB       192.6410  -19.6860  109.3890 C.3    23  ASN23       0.1181
     35  CG       192.9360  -18.4390  108.5870 C.2    23  ASN23       0.2629
     36  OD1      192.3330  -18.2040  107.5410 O.2    23  ASN23      -0.2716
     37  ND2      193.8600  -17.6220  109.0810 N.am   23  ASN23      -0.0877
     38  N        192.4440  -25.7770  106.0410 N.3    26  ARG26      -0.1245
     39  CA       193.3970  -25.9700  104.9490 C.3    26  ARG26       0.1563
     40  C        194.8430  -25.9230  105.4350 C.2    26  ARG26       0.2260
     41  O        195.6190  -26.8470  105.1890 O.2    26  ARG26      -0.2867
     42  CB       193.1760  -24.9390  103.8380 C.3    26  ARG26       0.0307
     43  CG       193.8710  -25.2950  102.5280 C.3    26  ARG26       0.0489
     44  CD       193.6050  -24.2640  101.4390 C.3    26  ARG26       0.2205
     45  NE       193.9170  -24.7840  100.1090 N.pl3  26  ARG26      -0.0865
     46  CZ       195.1220  -24.7370   99.5490 C.cat  26  ARG26       0.5346
     47  NH1      196.1390  -24.1910  100.2000 N.pl3  26  ARG26       0.1354
     48  NH2      195.3100  -25.2370   98.3350 N.pl3  26  ARG26       0.1354
     49  N        186.6420  -12.7670   92.0800 N.3    97  PRO97      -0.2116
     50  CA       185.8620  -12.9200   93.3140 C.3    97  PRO97       0.1372
     51  C        184.3930  -13.2320   93.0390 C.2    97  PRO97       0.2244
     52  O        183.7380  -13.8700   93.8600 O.2    97  PRO97      -0.2868
     53  CB       185.9980  -11.5500   93.9850 C.3    97  PRO97       0.0268
     54  CG       186.2110  -10.6090   92.8620 C.3    97  PRO97       0.0207
     55  CD       187.0290  -11.3610   91.8500 C.3    97  PRO97       0.0892
     56  N        184.2460  -16.9890   92.6790 N.3   100  VAL100     -0.1231
     57  CA       184.4160  -17.6040   93.9930 C.3   100  VAL100      0.1692
     58  C        183.1320  -17.4930   94.8070 C.2   100  VAL100      0.2591
     59  O        182.6660  -18.4730   95.3830 O.2   100  VAL100     -0.2718
     60  CB       185.5750  -16.9560   94.7790 C.3   100  VAL100      0.0266
     61  CG1      185.6570  -17.5360   96.1780 C.3   100  VAL100      0.0020
     62  CG2      186.8870  -17.1490   94.0460 C.3   100  VAL100      0.0020
     63  N        182.5590  -16.2940   94.8260 N.am  101  ALA101     -0.1980
     64  CA       181.3110  -16.0370   95.5330 C.3   101  ALA101      0.1597
     65  C        180.1710  -16.9680   95.1080 C.2   101  ALA101      0.2287
     66  O        179.3050  -17.2840   95.9200 O.2   101  ALA101     -0.2864
     67  CB       180.9040  -14.5930   95.3520 C.3   101  ALA101      0.0319
     68  N        180.3300  -20.0830   94.5820 N.3   103  TYR103     -0.1227
     69  CA       180.4170  -21.3070   95.3810 C.3   103  TYR103      0.1736
     70  C        180.7080  -21.0480   96.8650 C.2   103  TYR103      0.2595
     71  O        180.2480  -21.7990   97.7360 O.2   103  TYR103     -0.2718
     72  CB       181.4050  -22.3230   94.7790 C.3   103  TYR103      0.0548
     73  CG       182.8830  -21.9520   94.7960 C.ar  103  TYR103     -0.0200
     74  CD1      183.6990  -22.3050   95.8600 C.ar  103  TYR103     -0.0009
     75  CD2      183.4710  -21.3140   93.7160 C.ar  103  TYR103     -0.0009
     76  CE1      185.0400  -22.0010   95.8590 C.ar  103  TYR103      0.0417
     77  CE2      184.8100  -21.0100   93.7120 C.ar  103  TYR103      0.0417
     78  CZ       185.5870  -21.3520   94.7840 C.ar  103  TYR103      0.1957
     79  OH       186.9250  -21.0470   94.7820 O.3   103  TYR103     -0.2866
     80  N        181.4320  -19.9670   97.1470 N.am  104  TYR104     -0.1962
     81  CA       181.8520  -19.6550   98.5090 C.3   104  TYR104      0.1771
     82  C        180.6770  -19.3900   99.4550 C.2   104  TYR104      0.2619
     83  O        180.6240  -19.9540  100.5450 O.2   104  TYR104     -0.2715
     84  CB       182.8300  -18.4750   98.5160 C.3   104  TYR104      0.0574
     85  CG       183.5450  -18.3180   99.8300 C.ar  104  TYR104     -0.0198
     86  CD1      184.7300  -18.9950  100.0820 C.ar  104  TYR104     -0.0009
     87  CD2      183.0200  -17.5160  100.8330 C.ar  104  TYR104     -0.0009
     88  CE1      185.3790  -18.8680  101.2890 C.ar  104  TYR104      0.0417
     89  CE2      183.6620  -17.3830  102.0460 C.ar  104  TYR104      0.0417
     90  CZ       184.8430  -18.0620  102.2670 C.ar  104  TYR104      0.1957
     91  OH       185.4980  -17.9410  103.4660 O.3   104  TYR104     -0.2866
     92  N        179.7390  -18.5430   99.0370 N.am  105  VAL105     -0.1977
     93  CA       178.5810  -18.2120   99.8710 C.3   105  VAL105      0.1596
     94  C        177.7190  -19.4410  100.1750 C.2   105  VAL105      0.2287
     95  O        177.1890  -19.5840  101.2790 O.2   105  VAL105     -0.2864
     96  CB       177.7200  -17.0880   99.2370 C.3   105  VAL105      0.0276
     97  CG1      176.4120  -16.8970   99.9990 C.3   105  VAL105      0.0022
     98  CG2      178.5030  -15.7880   99.1920 C.3   105  VAL105      0.0022
     99  N        196.6940  -17.9750   99.3220 N.3   246  PHE246     -0.1227
    100  CA       195.4060  -18.4070   99.8470 C.3   246  PHE246      0.1736
    101  C        195.1320  -17.8530  101.2530 C.2   246  PHE246      0.2596
    102  O        194.0480  -17.3390  101.5240 O.2   246  PHE246     -0.2718
    103  CB       195.3270  -19.9400   99.8420 C.3   246  PHE246      0.0547
    104  CG       194.6930  -20.5140   98.5990 C.ar  246  PHE246     -0.0202
    105  CD1      193.4190  -20.1170   98.2140 C.ar  246  PHE246     -0.0042
    106  CD2      195.3580  -21.4570   97.8220 C.ar  246  PHE246     -0.0042
    107  CE1      192.8260  -20.6410   97.0760 C.ar  246  PHE246     -0.0003
    108  CE2      194.7650  -21.9830   96.6810 C.ar  246  PHE246     -0.0003
    109  CZ       193.5020  -21.5740   96.3100 C.ar  246  PHE246     -0.0000
    110  N        196.1180  -17.9570  102.1410 N.am  247  SER247     -0.1952
    111  CA       195.9690  -17.4640  103.5070 C.3   247  SER247      0.1924
    112  C        195.6210  -15.9780  103.5590 C.2   247  SER247      0.2314
    113  O        194.6840  -15.5890  104.2550 O.2   247  SER247     -0.2863
    114  CB       197.2310  -17.7310  104.3280 C.3   247  SER247      0.2116
    115  OG       197.0590  -17.2690  105.6560 O.3   247  SER247     -0.2180
    116  N        194.5890  -14.0080  101.0600 N.3   249  GLY249     -0.1225
    117  CA       193.5390  -13.6100  100.1410 C.3   249  GLY249      0.1811
    118  C        194.0510  -12.7170   99.0270 C.2   249  GLY249      0.2280
    119  O        193.3540  -11.8100   98.5720 O.2   249  GLY249     -0.2866
    120  N        192.7060  -11.7950   94.3810 N.3   252  PHE252     -0.1241
    121  CA       191.2660  -11.8940   94.1820 C.3   252  PHE252      0.1605
    122  C        190.6350  -10.5140   94.0640 C.2   252  PHE252      0.2264
    123  O        189.4160  -10.3840   93.9680 O.2   252  PHE252     -0.2867
    124  CB       190.6260  -12.6950   95.3180 C.3   252  PHE252      0.0534
    125  CG       191.1380  -14.0990   95.4150 C.ar  252  PHE252     -0.0203
    126  CD1      190.4970  -15.1300   94.7520 C.ar  252  PHE252     -0.0042
    127  CD2      192.2740  -14.3870   96.1490 C.ar  252  PHE252     -0.0042
    128  CE1      190.9720  -16.4220   94.8240 C.ar  252  PHE252     -0.0003
    129  CE2      192.7540  -15.6780   96.2280 C.ar  252  PHE252     -0.0003
    130  CZ       192.1020  -16.6970   95.5630 C.ar  252  PHE252     -0.0000
    131  N        190.2040   -8.3420   96.2380 N.3   254  VAL254     -0.1245
    132  CA       189.3570   -8.0060   97.3810 C.3   254  VAL254      0.1561
    133  C        189.9760   -6.9070   98.2390 C.2   254  VAL254      0.2260
    134  O        189.2880   -5.9650   98.6390 O.2   254  VAL254     -0.2867
    135  CB       189.0550   -9.2440   98.2470 C.3   254  VAL254      0.0252
    136  CG1      188.2420   -8.8540   99.4640 C.3   254  VAL254      0.0019
    137  CG2      188.2990  -10.2720   97.4350 C.3   254  VAL254      0.0019
    138  N        184.3590  -12.9930  105.2340 N.3   348  SER348     -0.1202
    139  CA       185.0720  -13.0540  103.9660 C.3   348  SER348      0.2020
    140  C        184.1350  -12.8130  102.7830 C.2   348  SER348      0.2619
    141  O        184.4970  -12.1290  101.8280 O.2   348  SER348     -0.2717
    142  CB       185.7850  -14.4000  103.8150 C.3   348  SER348      0.2103
    143  OG       186.8590  -14.5170  104.7340 O.3   348  SER348     -0.2182
    144  N        182.9290  -13.3680  102.8560 N.am  349  SER349     -0.1951
    145  CA       181.9800  -13.2760  101.7500 C.3   349  SER349      0.1924
    146  C        181.4350  -11.8650  101.5590 C.2   349  SER349      0.2314
    147  O        181.1200  -11.4650  100.4410 O.2   349  SER349     -0.2863
    148  CB       180.8270  -14.2670  101.9270 C.3   349  SER349      0.2116
    149  OG       179.9490  -13.8570  102.9590 O.3   349  SER349     -0.2180
    150  N        184.4010  -10.0600   99.7480 N.3   352  GLY352     -0.1210
    151  CA       184.5750  -10.3990   98.3500 C.3   352  GLY352      0.1956
    152  C        183.5020   -9.8250   97.4490 C.2   352  GLY352      0.2611
    153  O        183.7990   -9.3320   96.3610 O.2   352  GLY352     -0.2717
    154  N        182.2510   -9.8800   97.8970 N.am  353  MET353     -0.1979
    155  CA       181.1400   -9.3770   97.0940 C.3   353  MET353      0.1605
    156  C        181.1320   -7.8530   96.9790 C.2   353  MET353      0.2287
    157  O        180.3660   -7.2860   96.2010 O.2   353  MET353     -0.2864
    158  CB       179.8020   -9.8710   97.6470 C.3   353  MET353      0.0413
    159  CG       179.4800  -11.3110   97.2930 C.3   353  MET353      0.0598
    160  SD       177.7890  -11.7530   97.7280 S.3   353  MET353     -0.1393
    161  CE       177.8620  -11.5920   99.5030 C.3   353  MET353      0.0692
    162  N        186.3910  -23.3850   91.2460 N.3   397  ASP397     -0.1239
    163  CA       187.5060  -23.1970   92.1660 C.3   397  ASP397      0.1674
    164  C        188.8370  -23.2990   91.4390 C.2   397  ASP397      0.2266
    165  O        189.7600  -22.5290   91.7040 O.2   397  ASP397     -0.2867
    166  CB       187.4540  -24.2260   93.2970 C.3   397  ASP397      0.1410
    167  CG       188.7050  -24.2080   94.1590 C.2   397  ASP397      0.3668
    168  OD1      188.7240  -23.4830   95.1790 O.co2 397  ASP397     -0.2456
    169  OD2      189.6720  -24.9230   93.8170 O.co2 397  ASP397     -0.2456
    170  N        190.5210  -19.6340   91.4850 N.3   401  THR401     -0.1218
    171  CA       191.6800  -19.5930   92.3700 C.3   401  THR401      0.1862
    172  C        192.9710  -19.8510   91.6010 C.2   401  THR401      0.2287
    173  O        194.0080  -19.2570   91.8950 O.2   401  THR401     -0.2866
    174  CB       191.5560  -20.6070   93.5250 C.3   401  THR401      0.1770
    175  OG1      191.6630  -21.9410   93.0150 O.3   401  THR401     -0.2211
    176  CG2      190.2210  -20.4450   94.2220 C.3   401  THR401      0.0375
@<TRIPOS>BOND
     1   162   163    1
     2   164   165    2
     3   164   163    1
     4   170   171    1
     5   172   173    2
     6   172   171    1
     7    55    49    1
     8    55    54    1
     9    49    50    1
    10   163   166    1
    11   171   174    1
    12    56    57    1
    13    54    53    1
    14   175   174    1
    15    51    50    1
    16    51    52    2
    17   166   167    1
    18    50    53    1
    19   174   176    1
    20    77    75   ar
    21    77    78   ar
    22    75    73   ar
    23   169   167   ar
    24   123   122    2
    25    57    60    1
    26    57    58    1
    27    62    60    1
    28   122   121    1
    29   167   168   ar
    30   121   120    1
    31   121   124    1
    32    68    69    1
    33   126   128   ar
    34   126   125   ar
    35    60    61    1
    36    72    73    1
    37    72    69    1
    38    79    78    1
    39    78    76   ar
    40    73    74   ar
    41    58    63   am
    42    58    59    2
    43   128   130   ar
    44    63    64    1
    45    65    64    1
    46    65    66    2
    47   124   125    1
    48    67    64    1
    49    69    70    1
    50   125   127   ar
    51   130   129   ar
    52    76    74   ar
    53   127   129   ar
    54   157   156    2
    55   131   132    1
    56   109   108   ar
    57   109   107   ar
    58   153   152    2
    59   108   106   ar
    60    70    80   am
    61    70    71    2
    62   156   155    1
    63   107   105   ar
    64   155   158    1
    65   155   154    1
    66    80    81    1
    67   159   158    1
    68   159   160    1
    69   132   133    1
    70   132   135    1
    71   137   135    1
    72   152   154   am
    73   152   151    1
    74   160   161    1
    75   106   104   ar
    76   105   104   ar
    77   133   134    2
    78   135   136    1
    79    48    46    1
    80   151   150    1
    81    81    84    1
    82    81    82    1
    83    84    85    1
    84   119   118    2
    85   104   103    1
    86   118   117    1
    87    92    82   am
    88    92    93    1
    89    98    96    1
    90    12    11    1
    91    96    93    1
    92    96    97    1
    93    99   100    1
    94    82    83    2
    95    46    45    2
    96    46    47    1
    97    85    86   ar
    98    85    87   ar
    99   103   100    1
   100   100   101    1
   101    93    94    1
   102    86    88   ar
   103    45    44    1
   104   117   116    1
   105    94    95    2
   106    11     9   ar
   107    11    10   ar
   108   147   146    2
   109     9     7   ar
   110    87    89   ar
   111    10     8   ar
   112   101   102    2
   113   101   110   am
   114    88    90   ar
   115    44    43    1
   116   146   145    1
   117   145   148    1
   118   145   144    1
   119   141   140    2
   120   148   149    1
   121     7     6   ar
   122    89    90   ar
   123   110   111    1
   124    90    91    1
   125     8     6   ar
   126    43    42    1
   127     6     5    1
   128   140   144   am
   129   140   139    1
   130   111   112    1
   131   111   114    1
   132   112   113    2
   133    25    23   ar
   134   142   139    1
   135   142   143    1
   136    42    39    1
   137   139   138    1
   138     5     2    1
   139   114   115    1
   140    23    24   ar
   141    23    22    1
   142     4     3    2
   143    39    40    1
   144    39    38    1
   145     2     3    1
   146     2     1    1
   147     3    13   am
   148    41    40    2
   149    27    26    1
   150    27    28    1
   151    14    13    1
   152    14    17    1
   153    14    15    1
   154    16    15    2
   155    22    19    1
   156    28    29    2
   157    28    30   am
   158    19    20    1
   159    19    18    1
   160    20    21    2
   161    30    31    1
   162    36    35    2
   163    35    37   am
   164    35    34    1
   165    31    34    1
   166    31    32    1
   167    32    33    2
