@<TRIPOS>MOLECULE
tmp/4mmaA00.pdb
 154 148 0 0 0
SMALL
GASTEIGER

@<TRIPOS>ATOM
      1  N        165.6210    1.1940  349.1820 N.3    17  TYR17      -0.1227
      2  CA       165.7890    0.6050  347.8540 C.3    17  TYR17       0.1736
      3  C        166.8220   -0.5110  347.8690 C.2    17  TYR17       0.2595
      4  O        166.5110   -1.6540  347.5530 O.2    17  TYR17      -0.2718
      5  CB       166.2140    1.6920  346.8600 C.3    17  TYR17       0.0548
      6  CG       166.8710    1.2020  345.5820 C.ar   17  TYR17      -0.0200
      7  CD1      166.1080    0.7970  344.4880 C.ar   17  TYR17      -0.0009
      8  CD2      168.2550    1.1710  345.4600 C.ar   17  TYR17      -0.0009
      9  CE1      166.7050    0.3630  343.3240 C.ar   17  TYR17       0.0417
     10  CE2      168.8550    0.7360  344.2940 C.ar   17  TYR17       0.0417
     11  CZ       168.0830    0.3270  343.2340 C.ar   17  TYR17       0.1957
     12  OH       168.7120   -0.1010  342.0840 O.3    17  TYR17      -0.2866
     13  N        168.0500   -0.1640  348.2420 N.am   18  ALA18      -0.1966
     14  CA       169.1790   -1.0850  348.1520 C.3    18  ALA18       0.1728
     15  C        168.9670   -2.3720  348.9500 C.2    18  ALA18       0.2616
     16  O        169.2550   -3.4620  348.4650 O.2    18  ALA18      -0.2715
     17  CB       170.4660   -0.3760  348.5660 C.3    18  ALA18       0.0334
     18  N        168.4710   -2.2270  350.1750 N.am   19  VAL19      -0.1963
     19  CA       168.1200   -3.3720  351.0130 C.3    19  VAL19       0.1727
     20  C        167.0960   -4.2760  350.3250 C.2    19  VAL19       0.2616
     21  O        165.9970   -3.8460  349.9770 O.2    19  VAL19      -0.2715
     22  CB       167.5760   -2.9460  352.3800 C.3    19  VAL19       0.0290
     23  CG1      166.8840   -4.1030  353.0470 C.3    19  VAL19       0.0023
     24  CG2      168.7150   -2.3920  353.2570 C.3    19  VAL19       0.0023
     25  N        167.4710   -5.5390  350.1180 N.am   20  ASP20      -0.1971
     26  CA       166.6130   -6.5180  349.3880 C.3    20  ASP20       0.1709
     27  C        166.3120   -7.7690  350.2170 C.2    20  ASP20       0.2293
     28  O        166.8890   -7.9740  351.2780 O.2    20  ASP20      -0.2864
     29  CB       167.1990   -6.8960  347.9950 C.3    20  ASP20       0.1436
     30  CG       168.7060   -6.6580  347.9290 C.2    20  ASP20       0.3671
     31  OD1      169.2670   -6.0880  348.9260 O.co2  20  ASP20      -0.2456
     32  OD2      169.3040   -6.9920  346.8910 O.co2  20  ASP20      -0.2456
     33  N        164.0240   -1.0090  334.4990 N.3    97  PRO97      -0.2116
     34  CA       163.2720   -1.1810  335.7490 C.3    97  PRO97       0.1372
     35  C        161.8020   -1.5310  335.5140 C.2    97  PRO97       0.2244
     36  O        161.2070   -2.2250  336.3390 O.2    97  PRO97      -0.2868
     37  CB       163.3830    0.1930  336.4120 C.3    97  PRO97       0.0268
     38  CG       163.5110    1.1350  335.2700 C.3    97  PRO97       0.0207
     39  CD       164.3570    0.4080  334.2590 C.3    97  PRO97       0.0892
     40  N        161.5610   -5.2430  335.1150 N.3   100  VAL100     -0.1231
     41  CA       161.7500   -5.9320  336.3750 C.3   100  VAL100      0.1692
     42  C        160.5090   -5.8100  337.2360 C.2   100  VAL100      0.2591
     43  O        159.9910   -6.8230  337.7140 O.2   100  VAL100     -0.2718
     44  CB       162.9910   -5.4710  337.1440 C.3   100  VAL100      0.0266
     45  CG1      163.1190   -6.2870  338.4100 C.3   100  VAL100      0.0020
     46  CG2      164.2410   -5.6300  336.2740 C.3   100  VAL100      0.0020
     47  N        160.0240   -4.5780  337.3950 N.am  101  ALA101     -0.1980
     48  CA       158.8040   -4.3150  338.1510 C.3   101  ALA101      0.1597
     49  C        157.6390   -5.1750  337.6630 C.2   101  ALA101      0.2287
     50  O        156.7390   -5.4960  338.4400 O.2   101  ALA101     -0.2864
     51  CB       158.4320   -2.8350  338.1050 C.3   101  ALA101      0.0319
     52  N        157.5420   -8.1220  337.3260 N.3   103  TYR103     -0.1227
     53  CA       157.5250   -9.3680  338.0780 C.3   103  TYR103      0.1736
     54  C        157.8800   -9.1900  339.5620 C.2   103  TYR103      0.2595
     55  O        157.4750  -10.0000  340.4030 O.2   103  TYR103     -0.2718
     56  CB       158.4200  -10.4180  337.4110 C.3   103  TYR103      0.0548
     57  CG       159.8730  -10.0250  337.2810 C.ar  103  TYR103     -0.0200
     58  CD1      160.7400  -10.1430  338.3580 C.ar  103  TYR103     -0.0009
     59  CD2      160.3830   -9.5570  336.0770 C.ar  103  TYR103     -0.0009
     60  CE1      162.0650   -9.7940  338.2520 C.ar  103  TYR103      0.0417
     61  CE2      161.7160   -9.2150  335.9560 C.ar  103  TYR103      0.0417
     62  CZ       162.5520   -9.3330  337.0490 C.ar  103  TYR103      0.1957
     63  OH       163.8790   -8.9860  336.9400 O.3   103  TYR103     -0.2866
     64  N        158.6320   -8.1420  339.8860 N.am  104  TYR104     -0.1962
     65  CA       159.0660   -7.9360  341.2690 C.3   104  TYR104      0.1771
     66  C        157.8940   -7.6680  342.2060 C.2   104  TYR104      0.2619
     67  O        157.7780   -8.3020  343.2550 O.2   104  TYR104     -0.2715
     68  CB       160.0950   -6.8100  341.3780 C.3   104  TYR104      0.0574
     69  CG       160.9080   -6.8700  342.6480 C.ar  104  TYR104     -0.0198
     70  CD1      161.9760   -7.7500  342.7670 C.ar  104  TYR104     -0.0009
     71  CD2      160.6080   -6.0540  343.7300 C.ar  104  TYR104     -0.0009
     72  CE1      162.7260   -7.8110  343.9260 C.ar  104  TYR104      0.0417
     73  CE2      161.3540   -6.1140  344.8970 C.ar  104  TYR104      0.0417
     74  CZ       162.4110   -6.9930  344.9830 C.ar  104  TYR104      0.1957
     75  OH       163.1580   -7.0570  346.1280 O.3   104  TYR104     -0.2866
     76  N        157.0320   -6.7310  341.8170 N.am  105  VAL105     -0.1977
     77  CA       155.8170   -6.4260  342.5660 C.3   105  VAL105      0.1596
     78  C        155.0040   -7.6940  342.8120 C.2   105  VAL105      0.2287
     79  O        154.4000   -7.8710  343.8760 O.2   105  VAL105     -0.2864
     80  CB       154.9400   -5.4190  341.8090 C.3   105  VAL105      0.0276
     81  CG1      153.6460   -5.1620  342.5610 C.3   105  VAL105      0.0022
     82  CG2      155.6980   -4.1280  341.6040 C.3   105  VAL105      0.0022
     83  N        174.1520   -6.2060  342.1270 N.3   246  PHE246     -0.1241
     84  CA       172.8100   -6.6050  342.5430 C.3   246  PHE246      0.1605
     85  C        172.4090   -6.0560  343.9170 C.2   246  PHE246      0.2264
     86  O        171.3010   -5.5490  344.0780 O.2   246  PHE246     -0.2867
     87  CB       172.6670   -8.1340  342.5300 C.3   246  PHE246      0.0534
     88  CG       171.7570   -8.6600  341.4420 C.ar  246  PHE246     -0.0203
     89  CD1      171.1110   -9.8790  341.5970 C.ar  246  PHE246     -0.0042
     90  CD2      171.5580   -7.9520  340.2670 C.ar  246  PHE246     -0.0042
     91  CE1      170.2780  -10.3810  340.6100 C.ar  246  PHE246     -0.0003
     92  CE2      170.7230   -8.4500  339.2720 C.ar  246  PHE246     -0.0003
     93  CZ       170.0850   -9.6640  339.4440 C.ar  246  PHE246     -0.0000
     94  N        172.2140   -2.4270  343.7740 N.3   249  GLY249     -0.1225
     95  CA       171.2060   -2.1740  342.7660 C.3   249  GLY249      0.1811
     96  C        171.5870   -1.0920  341.7740 C.2   249  GLY249      0.2280
     97  O        170.7930   -0.2030  341.4800 O.2   249  GLY249     -0.2866
     98  N        170.1340    0.4460  336.8610 N.3   252  PHE252     -0.1241
     99  CA       168.7110    0.2990  336.5910 C.3   252  PHE252      0.1605
    100  C        168.1060    1.6850  336.4290 C.2   252  PHE252      0.2264
    101  O        166.9050    1.8380  336.1960 O.2   252  PHE252     -0.2867
    102  CB       168.0120   -0.4440  337.7310 C.3   252  PHE252      0.0534
    103  CG       168.5080   -1.8490  337.9450 C.ar  252  PHE252     -0.0203
    104  CD1      168.2750   -2.8280  337.0000 C.ar  252  PHE252     -0.0042
    105  CD2      169.1810   -2.1950  339.1030 C.ar  252  PHE252     -0.0042
    106  CE1      168.7160   -4.1190  337.1940 C.ar  252  PHE252     -0.0003
    107  CE2      169.6260   -3.4850  339.3030 C.ar  252  PHE252     -0.0003
    108  CZ       169.3900   -4.4470  338.3480 C.ar  252  PHE252     -0.0000
    109  N        167.6600    3.7430  338.7290 N.3   254  VAL254     -0.1245
    110  CA       166.8880    4.1180  339.9150 C.3   254  VAL254      0.1561
    111  C        167.6470    5.1110  340.7850 C.2   254  VAL254      0.2260
    112  O        167.0840    6.1160  341.2270 O.2   254  VAL254     -0.2867
    113  CB       166.4920    2.9040  340.7720 C.3   254  VAL254      0.0252
    114  CG1      165.4510    3.3140  341.8010 C.3   254  VAL254      0.0019
    115  CG2      165.9490    1.7940  339.8950 C.3   254  VAL254      0.0019
    116  N        161.5310   -1.0030  347.9340 N.3   348  SER348     -0.1202
    117  CA       162.3200   -1.0640  346.7130 C.3   348  SER348      0.2020
    118  C        161.3960   -0.9280  345.5140 C.2   348  SER348      0.2619
    119  O        161.7280   -0.2780  344.5190 O.2   348  SER348     -0.2717
    120  CB       163.0500   -2.4090  346.6160 C.3   348  SER348      0.2103
    121  OG       163.4950   -2.9090  347.8700 O.3   348  SER348     -0.2182
    122  N        160.2380   -1.5730  345.6030 N.am  349  SER349     -0.1951
    123  CA       159.2830   -1.5660  344.5030 C.3   349  SER349      0.1924
    124  C        158.6870   -0.1860  344.2900 C.2   349  SER349      0.2314
    125  O        158.3590    0.1860  343.1650 O.2   349  SER349     -0.2863
    126  CB       158.1770   -2.6090  344.7130 C.3   349  SER349      0.2116
    127  OG       157.6380   -2.5350  346.0310 O.3   349  SER349     -0.2180
    128  N        161.7100    1.7200  342.4100 N.3   352  GLY352     -0.1210
    129  CA       161.8940    1.3960  341.0110 C.3   352  GLY352      0.1956
    130  C        160.7750    1.9020  340.1230 C.2   352  GLY352      0.2611
    131  O        161.0120    2.3000  338.9850 O.2   352  GLY352     -0.2717
    132  N        159.5540    1.9000  340.6470 N.am  353  MET353     -0.1979
    133  CA       158.4010    2.3660  339.8850 C.3   353  MET353      0.1605
    134  C        158.3220    3.8900  339.7870 C.2   353  MET353      0.2287
    135  O        157.4340    4.4250  339.1240 O.2   353  MET353     -0.2864
    136  CB       157.0970    1.8200  340.4710 C.3   353  MET353      0.0413
    137  CG       156.8680    0.3480  340.1890 C.3   353  MET353      0.0598
    138  SD       155.1250   -0.0950  340.3270 S.3   353  MET353     -0.1393
    139  CE       154.9010   -0.0550  342.0980 C.3   353  MET353      0.0692
    140  N        163.7030  -11.4580  333.8220 N.3   397  ASP397     -0.1239
    141  CA       164.8190  -11.2230  334.7300 C.3   397  ASP397      0.1674
    142  C        166.1440  -11.3700  334.0020 C.2   397  ASP397      0.2266
    143  O        167.0660  -10.5980  334.2310 O.2   397  ASP397     -0.2867
    144  CB       164.7850  -12.1890  335.9160 C.3   397  ASP397      0.1410
    145  CG       165.8420  -11.8630  336.9680 C.2   397  ASP397      0.3668
    146  OD1      165.5190  -11.1350  337.9310 O.co2 397  ASP397     -0.2456
    147  OD2      166.9940  -12.3330  336.8330 O.co2 397  ASP397     -0.2456
    148  N        167.8750   -7.7420  333.8190 N.3   401  THR401     -0.1218
    149  CA       168.9790   -7.7030  334.7800 C.3   401  THR401      0.1862
    150  C        170.3120   -8.0560  334.1180 C.2   401  THR401      0.2287
    151  O        171.1530   -7.1840  333.9220 O.2   401  THR401     -0.2866
    152  CB       168.7490   -8.6450  335.9680 C.3   401  THR401      0.1770
    153  OG1      168.8340  -10.0050  335.5270 O.3   401  THR401     -0.2211
    154  CG2      167.3860   -8.3970  336.6020 C.3   401  THR401      0.0375
@<TRIPOS>BOND
     1   148   149    1
     2   140   141    1
     3   151   150    2
     4   142   143    2
     5   142   141    1
     6   150   149    1
     7    39    33    1
     8    39    38    1
     9    33    34    1
    10   141   144    1
    11   149   152    1
    12    40    41    1
    13    38    37    1
    14    35    34    1
    15    35    36    2
    16   153   152    1
    17    34    37    1
    18   144   145    1
    19    61    59   ar
    20    61    62   ar
    21   152   154    1
    22    59    57   ar
    23   101   100    2
    24    46    44    1
    25    41    44    1
    26    41    42    1
    27   100    99    1
    28    99    98    1
    29    99   102    1
    30   147   145   ar
    31    63    62    1
    32   145   146   ar
    33   104   106   ar
    34   104   103   ar
    35    62    60   ar
    36    44    45    1
    37   106   108   ar
    38    42    47   am
    39    42    43    2
    40    57    56    1
    41    57    58   ar
    42    52    53    1
    43    47    48    1
    44    56    53    1
    45    49    48    1
    46    49    50    2
    47   102   103    1
    48   103   105   ar
    49    53    54    1
    50    51    48    1
    51    60    58   ar
    52   108   107   ar
    53   109   110    1
    54   131   130    2
    55   105   107   ar
    56   135   134    2
    57    92    93   ar
    58    92    90   ar
    59    93    91   ar
    60    54    64   am
    61    54    55    2
    62   134   133    1
    63   133   136    1
    64   133   132    1
    65    64    65    1
    66   115   113    1
    67   110   113    1
    68   110   111    1
    69   130   132   am
    70   130   129    1
    71   137   138    1
    72   137   136    1
    73    90    88   ar
    74   138   139    1
    75    91    89   ar
    76   113   114    1
    77   111   112    2
    78   129   128    1
    79    65    68    1
    80    65    66    1
    81    68    69    1
    82    88    89   ar
    83    88    87    1
    84    97    96    2
    85    82    80    1
    86    96    95    1
    87    80    81    1
    88    80    77    1
    89    76    66   am
    90    76    77    1
    91    12    11    1
    92    83    84    1
    93    66    67    2
    94    87    84    1
    95    84    85    1
    96    77    78    1
    97    69    70   ar
    98    69    71   ar
    99    95    94    1
   100    70    72   ar
   101    78    79    2
   102   125   124    2
   103    11     9   ar
   104    11    10   ar
   105     9     7   ar
   106    71    73   ar
   107    85    86    2
   108    72    74   ar
   109   124   123    1
   110    10     8   ar
   111     7     6   ar
   112   123   126    1
   113   123   122    1
   114   119   118    2
   115   126   127    1
   116    73    74   ar
   117    74    75    1
   118     8     6   ar
   119   118   122   am
   120   118   117    1
   121     6     5    1
   122   120   117    1
   123   120   121    1
   124   117   116    1
   125     5     2    1
   126    32    30   ar
   127     4     3    2
   128     2     3    1
   129     2     1    1
   130     3    13   am
   131    30    29    1
   132    30    31   ar
   133    29    26    1
   134    14    13    1
   135    14    17    1
   136    14    15    1
   137    16    15    2
   138    15    18   am
   139    26    25    1
   140    26    27    1
   141    21    20    2
   142    25    20   am
   143    18    19    1
   144    27    28    2
   145    20    19    1
   146    19    22    1
   147    22    23    1
   148    22    24    1
