@<TRIPOS>MOLECULE
tmp/4mmbA00.pdb
 144 136 0 0 0
SMALL
GASTEIGER

@<TRIPOS>ATOM
      1  N         87.3400  -14.0660  186.5650 N.3    17  TYR17      -0.1227
      2  CA        87.3430  -14.5900  185.2070 C.3    17  TYR17       0.1736
      3  C         88.3380  -15.7370  185.0700 C.2    17  TYR17       0.2595
      4  O         88.0300  -16.7650  184.4710 O.2    17  TYR17      -0.2718
      5  CB        87.6720  -13.5060  184.1720 C.3    17  TYR17       0.0548
      6  CG        88.1480  -14.1150  182.8720 C.ar   17  TYR17      -0.0200
      7  CD1       87.2690  -14.8130  182.0510 C.ar   17  TYR17      -0.0009
      8  CD2       89.4800  -14.0300  182.4860 C.ar   17  TYR17      -0.0009
      9  CE1       87.6990  -15.3970  180.8760 C.ar   17  TYR17       0.0417
     10  CE2       89.9180  -14.6090  181.3080 C.ar   17  TYR17       0.0417
     11  CZ        89.0220  -15.2910  180.5090 C.ar   17  TYR17       0.1957
     12  OH        89.4510  -15.8700  179.3390 O.3    17  TYR17      -0.2866
     13  N         89.5330  -15.5510  185.6230 N.am   18  ALA18      -0.1980
     14  CA        90.6030  -16.5390  185.4910 C.3    18  ALA18       0.1597
     15  C         90.3170  -17.8160  186.2810 C.2    18  ALA18       0.2287
     16  O         90.5500  -18.9260  185.7990 O.2    18  ALA18      -0.2864
     17  CB        91.9410  -15.9330  185.9140 C.3    18  ALA18       0.0319
     18  N         88.2860  -20.6970  187.4680 N.3    20  ASP20      -0.1239
     19  CA        87.0890  -21.4760  187.1690 C.3    20  ASP20       0.1674
     20  C         87.2650  -22.9380  187.5770 C.2    20  ASP20       0.2266
     21  O         88.1220  -23.2600  188.4020 O.2    20  ASP20      -0.2867
     22  CB        86.6950  -21.3480  185.6910 C.3    20  ASP20       0.1410
     23  CG        87.4730  -22.2880  184.7830 C.2    20  ASP20       0.3668
     24  OD1       88.7070  -22.4010  184.9460 O.co2  20  ASP20      -0.2456
     25  OD2       86.8370  -22.9290  183.9150 O.co2  20  ASP20      -0.2456
     26  N         88.6080  -25.2540  186.0690 N.3    22  GLY22      -0.1225
     27  CA        89.9370  -25.7200  185.7180 C.3    22  GLY22       0.1811
     28  C         90.9110  -25.6750  186.8780 C.2    22  GLY22       0.2280
     29  O         91.7630  -26.5540  187.0140 O.2    22  GLY22      -0.2866
     30  N         85.2090  -15.6790  172.0700 N.3    97  PRO97      -0.2116
     31  CA        84.3890  -15.7000  173.2870 C.3    97  PRO97       0.1372
     32  C         82.9150  -15.9530  172.9880 C.2    97  PRO97       0.2244
     33  O         82.2060  -16.4940  173.8340 O.2    97  PRO97      -0.2868
     34  CB        84.5880  -14.2990  173.8750 C.3    97  PRO97       0.0268
     35  CG        84.9640  -13.4510  172.7190 C.3    97  PRO97       0.0207
     36  CD        85.7590  -14.3350  171.8050 C.3    97  PRO97       0.0892
     37  N         82.7580  -19.7840  172.5740 N.3   100  VAL100     -0.1231
     38  CA        83.0240  -20.4180  173.8620 C.3   100  VAL100      0.1692
     39  C         81.8380  -20.2950  174.8220 C.2   100  VAL100      0.2591
     40  O         81.4730  -21.2620  175.4940 O.2   100  VAL100     -0.2718
     41  CB        84.3140  -19.8740  174.5190 C.3   100  VAL100      0.0266
     42  CG1       84.4300  -20.3680  175.9510 C.3   100  VAL100      0.0020
     43  CG2       85.5390  -20.3020  173.7170 C.3   100  VAL100      0.0020
     44  N         81.2310  -19.1110  174.8690 N.am  101  ALA101     -0.1980
     45  CA        80.0610  -18.8740  175.7080 C.3   101  ALA101      0.1597
     46  C         78.9170  -19.8130  175.3380 C.2   101  ALA101      0.2287
     47  O         78.1530  -20.2570  176.1960 O.2   101  ALA101     -0.2864
     48  CB        79.6100  -17.4300  175.5870 C.3   101  ALA101      0.0319
     49  N         78.9680  -22.8580  174.5570 N.3   103  TYR103     -0.1227
     50  CA        79.0260  -24.1280  175.2800 C.3   103  TYR103      0.1736
     51  C         79.3500  -23.9840  176.7690 C.2   103  TYR103      0.2595
     52  O         78.9580  -24.8300  177.5730 O.2   103  TYR103     -0.2718
     53  CB        79.9670  -25.1330  174.6030 C.3   103  TYR103      0.0548
     54  CG        81.4440  -24.7950  174.6320 C.ar  103  TYR103     -0.0200
     55  CD1       82.2340  -25.1230  175.7300 C.ar  103  TYR103     -0.0009
     56  CD2       82.0580  -24.1940  173.5430 C.ar  103  TYR103     -0.0009
     57  CE1       83.5890  -24.8340  175.7490 C.ar  103  TYR103      0.0417
     58  CE2       83.4120  -23.9060  173.5510 C.ar  103  TYR103      0.0417
     59  CZ        84.1710  -24.2250  174.6540 C.ar  103  TYR103      0.1957
     60  OH        85.5170  -23.9340  174.6580 O.3   103  TYR103     -0.2866
     61  N         80.0470  -22.9120  177.1370 N.am  104  TYR104     -0.1962
     62  CA        80.4900  -22.7510  178.5150 C.3   104  TYR104      0.1771
     63  C         79.3350  -22.5610  179.4950 C.2   104  TYR104      0.2619
     64  O         79.3180  -23.1730  180.5620 O.2   104  TYR104     -0.2715
     65  CB        81.4920  -21.6010  178.6540 C.3   104  TYR104      0.0574
     66  CG        82.1590  -21.5710  180.0120 C.ar  104  TYR104     -0.0198
     67  CD1       83.2530  -22.3820  180.2830 C.ar  104  TYR104     -0.0009
     68  CD2       81.6840  -20.7490  181.0260 C.ar  104  TYR104     -0.0009
     69  CE1       83.8610  -22.3710  181.5180 C.ar  104  TYR104      0.0417
     70  CE2       82.2890  -20.7290  182.2690 C.ar  104  TYR104      0.0417
     71  CZ        83.3770  -21.5460  182.5080 C.ar  104  TYR104      0.1957
     72  OH        83.9880  -21.5380  183.7410 O.3   104  TYR104     -0.2866
     73  N         78.3750  -21.7140  179.1390 N.am  105  VAL105     -0.1977
     74  CA        77.2510  -21.4480  180.0290 C.3   105  VAL105      0.1596
     75  C         76.4390  -22.7200  180.2920 C.2   105  VAL105      0.2287
     76  O         75.9000  -22.9100  181.3840 O.2   105  VAL105     -0.2864
     77  CB        76.3390  -20.3280  179.4940 C.3   105  VAL105      0.0276
     78  CG1       75.2800  -19.9770  180.5280 C.3   105  VAL105      0.0022
     79  CG2       77.1640  -19.0930  179.1530 C.3   105  VAL105      0.0022
     80  N         95.9680  -21.3640  179.5420 N.3   246  PHE246     -0.1227
     81  CA        94.5290  -21.5340  179.6960 C.3   246  PHE246      0.1736
     82  C         94.0110  -21.1430  181.0740 C.2   246  PHE246      0.2596
     83  O         92.9480  -20.5440  181.1810 O.2   246  PHE246     -0.2718
     84  CB        94.1110  -22.9630  179.3420 C.3   246  PHE246      0.0547
     85  CG        94.1380  -23.2420  177.8700 C.ar  246  PHE246     -0.0202
     86  CD1       92.9970  -23.0930  177.1050 C.ar  246  PHE246     -0.0042
     87  CD2       95.3080  -23.6310  177.2470 C.ar  246  PHE246     -0.0042
     88  CE1       93.0220  -23.3390  175.7470 C.ar  246  PHE246     -0.0003
     89  CE2       95.3400  -23.8750  175.8910 C.ar  246  PHE246     -0.0003
     90  CZ        94.1960  -23.7300  175.1390 C.ar  246  PHE246     -0.0000
     91  N         94.7540  -21.4680  182.1270 N.am  247  SER247     -0.1952
     92  CA        94.2930  -21.1370  183.4730 C.3   247  SER247      0.1924
     93  C         94.1930  -19.6270  183.6870 C.2   247  SER247      0.2314
     94  O         93.3230  -19.1520  184.4160 O.2   247  SER247     -0.2863
     95  CB        95.1840  -21.7680  184.5420 C.3   247  SER247      0.2116
     96  OG        94.6520  -21.5100  185.8300 O.3   247  SER247     -0.2180
     97  N         93.4040  -17.7070  181.2880 N.3   249  GLY249     -0.1225
     98  CA        92.3540  -17.2960  180.3730 C.3   249  GLY249      0.1811
     99  C         92.8230  -16.3500  179.2830 C.2   249  GLY249      0.2280
    100  O         92.0560  -15.5180  178.7960 O.2   249  GLY249     -0.2866
    101  N         91.3040  -15.3790  175.0260 N.3   252  PHE252     -0.1241
    102  CA        89.8510  -15.5300  174.9190 C.3   252  PHE252      0.1605
    103  C         89.1230  -14.2120  174.6590 C.2   252  PHE252      0.2264
    104  O         87.9740  -14.2110  174.2120 O.2   252  PHE252     -0.2867
    105  CB        89.2760  -16.1870  176.1750 C.3   252  PHE252      0.0534
    106  CG        89.5040  -17.6710  176.2490 C.ar  252  PHE252     -0.0203
    107  CD1       88.5800  -18.5560  175.7140 C.ar  252  PHE252     -0.0042
    108  CD2       90.6370  -18.1810  176.8640 C.ar  252  PHE252     -0.0042
    109  CE1       88.7830  -19.9210  175.7900 C.ar  252  PHE252     -0.0003
    110  CE2       90.8470  -19.5430  176.9380 C.ar  252  PHE252     -0.0003
    111  CZ        89.9190  -20.4150  176.4020 C.ar  252  PHE252     -0.0000
    112  N         88.2730  -11.8620  176.9070 N.3   254  ALA254     -0.1245
    113  CA        87.6090  -11.3140  178.0840 C.3   254  ALA254      0.1562
    114  C         88.4890  -10.3060  178.8140 C.2   254  ALA254      0.2260
    115  O         88.0120   -9.2560  179.2460 O.2   254  ALA254     -0.2867
    116  CB        87.1880  -12.4320  179.0300 C.3   254  ALA254      0.0290
    117  N         83.2850  -16.4660  185.4860 N.3   348  SER348     -0.1202
    118  CA        83.9700  -16.5140  184.2010 C.3   348  SER348      0.2020
    119  C         83.0260  -16.2030  183.0420 C.2   348  SER348      0.2619
    120  O         83.4050  -15.5130  182.0980 O.2   348  SER348     -0.2717
    121  CB        84.6340  -17.8760  183.9900 C.3   348  SER348      0.2103
    122  OG        85.6510  -18.1070  184.9500 O.3   348  SER348     -0.2182
    123  N         81.7980  -16.7060  183.1130 N.am  349  SER349     -0.1951
    124  CA        80.8640  -16.5520  182.0010 C.3   349  SER349      0.1924
    125  C         80.3540  -15.1190  181.8380 C.2   349  SER349      0.2314
    126  O         80.1270  -14.6670  180.7180 O.2   349  SER349     -0.2863
    127  CB        79.7010  -17.5440  182.1090 C.3   349  SER349      0.2116
    128  OG        78.9560  -17.3480  183.2950 O.3   349  SER349     -0.2180
    129  N         82.9520  -13.6030  180.0160 N.3   352  GLY352     -0.1225
    130  CA        83.0670  -14.1320  178.6690 C.3   352  GLY352      0.1811
    131  C         82.0280  -13.6330  177.6840 C.2   352  GLY352      0.2280
    132  O         82.2280  -13.7030  176.4710 O.2   352  GLY352     -0.2866
    133  N         84.9410  -26.4180  171.3860 N.3   397  ASP397     -0.1239
    134  CA        86.0060  -26.2220  172.3640 C.3   397  ASP397      0.1674
    135  C         87.3850  -26.3440  171.7290 C.2   397  ASP397      0.2266
    136  O         88.3420  -25.7270  172.1890 O.2   397  ASP397     -0.2867
    137  CB        85.8740  -27.2110  173.5260 C.3   397  ASP397      0.1410
    138  CG        86.9770  -27.0460  174.5580 C.2   397  ASP397      0.3668
    139  OD1       86.8610  -26.1500  175.4230 O.co2 397  ASP397     -0.2456
    140  OD2       87.9640  -27.8080  174.4980 O.co2 397  ASP397     -0.2456
    141  N         88.0860  -22.6680  171.5010 N.3   401  GLY401     -0.1225
    142  CA        88.6010  -22.6400  172.8570 C.3   401  GLY401      0.1811
    143  C         89.9120  -23.3700  173.0810 C.2   401  GLY401      0.2280
    144  O         90.3380  -23.5350  174.2200 O.2   401  GLY401     -0.2866
@<TRIPOS>BOND
     1   133   134    1
     2   141   142    1
     3   135   136    2
     4   135   134    1
     5    36    30    1
     6    36    35    1
     7    30    31    1
     8   134   137    1
     9    37    38    1
    10    35    34    1
    11   142   143    1
    12    32    31    1
    13    32    33    2
    14   143   144    2
    15    31    34    1
    16   137   138    1
    17    56    58   ar
    18    56    54   ar
    19    58    59   ar
    20    43    41    1
    21    38    41    1
    22    38    39    1
    23   104   103    2
    24   140   138   ar
    25    41    42    1
    26    49    50    1
    27   138   139   ar
    28    53    54    1
    29    53    50    1
    30    54    55   ar
    31    59    60    1
    32    59    57   ar
    33   103   102    1
    34    39    44   am
    35    39    40    2
    36    44    45    1
    37   102   101    1
    38   102   105    1
    39    90    88   ar
    40    90    89   ar
    41    50    51    1
    42    46    45    1
    43    46    47    2
    44    48    45    1
    45   107   109   ar
    46   107   106   ar
    47    55    57   ar
    48    88    86   ar
    49   109   111   ar
    50    89    87   ar
    51   105   106    1
    52   106   108   ar
    53   111   110   ar
    54   132   131    2
    55    51    61   am
    56    51    52    2
    57   108   110   ar
    58   112   113    1
    59    86    85   ar
    60    61    62    1
    61    87    85   ar
    62   131   130    1
    63    85    84    1
    64   113   114    1
    65   113   116    1
    66    62    65    1
    67    62    63    1
    68    65    66    1
    69   130   129    1
    70   100    99    2
    71   114   115    2
    72    73    63   am
    73    73    74    1
    74    79    77    1
    75    99    98    1
    76    12    11    1
    77    84    81    1
    78    77    74    1
    79    77    78    1
    80    63    64    2
    81    80    81    1
    82    81    82    1
    83    66    67   ar
    84    66    68   ar
    85    74    75    1
    86    67    69   ar
    87    75    76    2
    88    98    97    1
    89    11     9   ar
    90    11    10   ar
    91   126   125    2
    92     9     7   ar
    93    68    70   ar
    94    82    83    2
    95    82    91   am
    96    10     8   ar
    97    69    71   ar
    98   125   124    1
    99   124   127    1
   100   124   123    1
   101     7     6   ar
   102   120   119    2
   103   127   128    1
   104    91    92    1
   105    70    71   ar
   106     8     6   ar
   107    71    72    1
   108     6     5    1
   109   119   123   am
   110   119   118    1
   111    92    93    1
   112    92    95    1
   113    93    94    2
   114    25    23   ar
   115   121   118    1
   116   121   122    1
   117     5     2    1
   118   118   117    1
   119     4     3    2
   120    95    96    1
   121    23    24   ar
   122    23    22    1
   123     3     2    1
   124     3    13   am
   125     2     1    1
   126    14    13    1
   127    14    17    1
   128    14    15    1
   129    22    19    1
   130    27    26    1
   131    27    28    1
   132    16    15    2
   133    28    29    2
   134    19    18    1
   135    19    20    1
   136    20    21    2
