@<TRIPOS>MOLECULE
tmp/4mmcA01.pdb
 133 128 0 0 0
SMALL
GASTEIGER

@<TRIPOS>ATOM
      1  N         88.7390  -21.7450  188.2110 N.3    20  ASP20      -0.1225
      2  CA        87.5370  -22.5120  187.8750 C.3    20  ASP20       0.1805
      3  C         87.7020  -24.0130  188.1610 C.2    20  ASP20       0.2598
      4  O         88.5740  -24.4040  188.9480 O.2    20  ASP20      -0.2718
      5  CB        87.1140  -22.2680  186.4190 C.3    20  ASP20       0.1424
      6  CG        87.8810  -23.1320  185.4270 C.2    20  ASP20       0.3668
      7  OD1       89.1200  -23.2400  185.5490 O.co2  20  ASP20      -0.2456
      8  OD2       87.2460  -23.7210  184.5250 O.co2  20  ASP20      -0.2456
      9  N         86.8670  -24.8360  187.5220 N.am   21  LEU21      -0.1966
     10  CA        86.9090  -26.2910  187.6730 C.3    21  LEU21       0.1728
     11  C         88.2960  -26.8850  187.4060 C.2    21  LEU21       0.2616
     12  O         88.6920  -27.8570  188.0630 O.2    21  LEU21      -0.2715
     13  CB        85.8710  -26.9680  186.7670 C.3    21  LEU21       0.0311
     14  CG        84.3940  -26.9710  187.1700 C.3    21  LEU21       0.0022
     15  CD1       83.7750  -25.5780  187.0760 C.3    21  LEU21       0.0001
     16  CD2       83.5970  -27.9660  186.3310 C.3    21  LEU21       0.0001
     17  N         89.0260  -26.3030  186.4530 N.am   22  GLY22      -0.1955
     18  CA        90.3420  -26.8000  186.0900 C.3    22  GLY22       0.1869
     19  C         91.3420  -26.7660  187.2270 C.2    22  GLY22       0.2309
     20  O         92.2240  -27.6210  187.3080 O.2    22  GLY22      -0.2863
     21  N         90.4160  -29.8020  189.3640 N.3    25  LEU25      -0.1231
     22  CA        90.2640  -31.0670  188.6510 C.3    25  LEU25       0.1693
     23  C         91.3620  -31.3530  187.6270 C.2    25  LEU25       0.2591
     24  O         91.9070  -32.4550  187.5940 O.2    25  LEU25      -0.2718
     25  CB        88.8840  -31.1500  187.9920 C.3    25  LEU25       0.0284
     26  CG        87.7160  -31.2670  188.9730 C.3    25  LEU25       0.0019
     27  CD1       86.3890  -31.3670  188.2380 C.3    25  LEU25       0.0001
     28  CD2       87.9210  -32.4640  189.8930 C.3    25  LEU25       0.0001
     29  N         91.6860  -30.3710  186.7910 N.am   26  ARG26      -0.1980
     30  CA        92.6710  -30.5930  185.7350 C.3    26  ARG26       0.1597
     31  C         94.1090  -30.6060  186.2490 C.2    26  ARG26       0.2287
     32  O         94.8710  -31.5240  185.9450 O.2    26  ARG26      -0.2864
     33  CB        92.5200  -29.5730  184.6040 C.3    26  ARG26       0.0334
     34  CG        93.4800  -29.8280  183.4560 C.3    26  ARG26       0.0492
     35  CD        92.9810  -29.2450  182.1470 C.3    26  ARG26       0.2205
     36  NE        93.2350  -30.1570  181.0350 N.pl3  26  ARG26      -0.0865
     37  CZ        94.4020  -30.2680  180.4090 C.cat  26  ARG26       0.5346
     38  NH1       95.4330  -29.5220  180.7810 N.pl3  26  ARG26       0.1354
     39  NH2       94.5390  -31.1280  179.4090 N.pl3  26  ARG26       0.1354
     40  N         79.5800  -23.9680  175.4280 N.3   103  TYR103     -0.1227
     41  CA        79.6090  -25.2630  176.1020 C.3   103  TYR103      0.1736
     42  C         79.9180  -25.1780  177.5990 C.2   103  TYR103      0.2595
     43  O         79.5500  -26.0720  178.3610 O.2   103  TYR103     -0.2718
     44  CB        80.5390  -26.2630  175.3920 C.3   103  TYR103      0.0548
     45  CG        82.0260  -25.9690  175.4650 C.ar  103  TYR103     -0.0200
     46  CD1       82.7740  -26.3250  176.5820 C.ar  103  TYR103     -0.0009
     47  CD2       82.6890  -25.3780  174.3980 C.ar  103  TYR103     -0.0009
     48  CE1       84.1340  -26.0730  176.6440 C.ar  103  TYR103      0.0417
     49  CE2       84.0480  -25.1280  174.4490 C.ar  103  TYR103      0.0417
     50  CZ        84.7650  -25.4730  175.5730 C.ar  103  TYR103      0.1957
     51  OH        86.1170  -25.2210  175.6240 O.3   103  TYR103     -0.2866
     52  N         80.5770  -24.1030  178.0230 N.am  104  TYR104     -0.1976
     53  CA        80.9900  -23.9810  179.4200 C.3   104  TYR104      0.1639
     54  C         79.8340  -23.6950  180.3760 C.2   104  TYR104      0.2290
     55  O         79.8120  -24.2050  181.4960 O.2   104  TYR104     -0.2864
     56  CB        82.0860  -22.9260  179.5890 C.3   104  TYR104      0.0560
     57  CG        82.7190  -22.9460  180.9630 C.ar  104  TYR104     -0.0198
     58  CD1       83.5440  -23.9940  181.3490 C.ar  104  TYR104     -0.0009
     59  CD2       82.4880  -21.9230  181.8750 C.ar  104  TYR104     -0.0009
     60  CE1       84.1230  -24.0250  182.6020 C.ar  104  TYR104      0.0417
     61  CE2       83.0650  -21.9450  183.1320 C.ar  104  TYR104      0.0417
     62  CZ        83.8820  -22.9980  183.4890 C.ar  104  TYR104      0.1957
     63  OH        84.4590  -23.0290  184.7360 O.3   104  TYR104     -0.2866
     64  N         78.1470  -26.9490  181.1450 N.3   107  ILE107     -0.1245
     65  CA        78.9550  -27.6600  182.1330 C.3   107  ILE107      0.1561
     66  C         78.7560  -27.0460  183.5130 C.2   107  ILE107      0.2260
     67  O         78.6390  -27.7530  184.5150 O.2   107  ILE107     -0.2867
     68  CB        80.4550  -27.6040  181.7780 C.3   107  ILE107      0.0252
     69  CG1       80.7270  -28.3420  180.4660 C.3   107  ILE107      0.0019
     70  CG2       81.2990  -28.1920  182.9000 C.3   107  ILE107      0.0019
     71  CD1       82.1820  -28.3130  180.0450 C.3   107  ILE107      0.0001
     72  N         96.4420  -22.5890  180.1890 N.3   246  PHE246     -0.1241
     73  CA        95.0140  -22.8560  180.3560 C.3   246  PHE246      0.1605
     74  C         94.4550  -22.2680  181.6490 C.2   246  PHE246      0.2264
     75  O         93.4150  -21.5970  181.6350 O.2   246  PHE246     -0.2867
     76  CB        94.7400  -24.3620  180.3000 C.3   246  PHE246      0.0534
     77  CG        94.8510  -24.9490  178.9230 C.ar  246  PHE246     -0.0203
     78  CD1       94.4330  -24.2370  177.8080 C.ar  246  PHE246     -0.0042
     79  CD2       95.3740  -26.2180  178.7460 C.ar  246  PHE246     -0.0042
     80  CE1       94.5360  -24.7810  176.5420 C.ar  246  PHE246     -0.0003
     81  CE2       95.4790  -26.7670  177.4860 C.ar  246  PHE246     -0.0003
     82  CZ        95.0580  -26.0490  176.3830 C.ar  246  PHE246     -0.0000
     83  N         89.8620  -35.7980  184.4520 N.3   312  ALA312     -0.1231
     84  CA        89.3830  -34.8130  185.4170 C.3   312  ALA312      0.1694
     85  C         87.8610  -34.8220  185.5440 C.2   312  ALA312      0.2592
     86  O         87.3200  -34.5660  186.6190 O.2   312  ALA312     -0.2718
     87  CB        89.8780  -33.4230  185.0440 C.3   312  ALA312      0.0304
     88  N         87.1770  -35.1140  184.4420 N.am  313  PHE313     -0.1976
     89  CA        85.7180  -35.1600  184.4370 C.3   313  PHE313      0.1639
     90  C         85.1880  -36.3490  185.2360 C.2   313  PHE313      0.2290
     91  O         84.1900  -36.2330  185.9480 O.2   313  PHE313     -0.2864
     92  CB        85.1820  -35.1950  183.0030 C.3   313  PHE313      0.0560
     93  CG        84.6030  -33.8870  182.5410 C.ar  313  PHE313     -0.0200
     94  CD1       84.9650  -33.3460  181.3190 C.ar  313  PHE313     -0.0042
     95  CD2       83.6860  -33.2050  183.3240 C.ar  313  PHE313     -0.0042
     96  CE1       84.4330  -32.1440  180.8910 C.ar  313  PHE313     -0.0003
     97  CE2       83.1480  -32.0040  182.9010 C.ar  313  PHE313     -0.0003
     98  CZ        83.5220  -31.4730  181.6830 C.ar  313  PHE313     -0.0000
     99  N         80.6780  -30.8510  172.3400 N.3   393  LEU393     -0.1231
    100  CA        81.4460  -30.1350  173.3490 C.3   393  LEU393      0.1693
    101  C         82.9450  -30.3360  173.1400 C.2   393  LEU393      0.2592
    102  O         83.7220  -29.3830  173.2030 O.2   393  LEU393     -0.2718
    103  CB        81.0280  -30.6160  174.7440 C.3   393  LEU393      0.0284
    104  CG        81.6740  -30.0240  175.9980 C.3   393  LEU393      0.0019
    105  CD1       80.6670  -30.0130  177.1350 C.3   393  LEU393      0.0001
    106  CD2       82.9020  -30.8170  176.4050 C.3   393  LEU393      0.0001
    107  N         83.3390  -31.5810  172.8890 N.am  394  ASP394     -0.1974
    108  CA        84.7440  -31.9290  172.6960 C.3   394  ASP394      0.1709
    109  C         85.3450  -31.2530  171.4670 C.2   394  ASP394      0.2293
    110  O         86.5200  -30.8860  171.4640 O.2   394  ASP394     -0.2864
    111  CB        84.9030  -33.4470  172.5820 C.3   394  ASP394      0.1436
    112  CG        84.6140  -34.1630  173.8870 C.2   394  ASP394      0.3671
    113  OD1       83.4520  -34.1230  174.3470 O.co2 394  ASP394     -0.2456
    114  OD2       85.5480  -34.7730  174.4490 O.co2 394  ASP394     -0.2456
    115  N         85.6940  -27.4740  172.1750 N.3   397  ASP397     -0.1239
    116  CA        86.7450  -27.3090  173.1710 C.3   397  ASP397      0.1674
    117  C         88.1370  -27.4780  172.5700 C.2   397  ASP397      0.2266
    118  O         89.1120  -26.9340  173.0860 O.2   397  ASP397     -0.2867
    119  CB        86.5390  -28.2890  174.3300 C.3   397  ASP397      0.1410
    120  CG        87.6390  -28.2060  175.3700 C.2   397  ASP397      0.3668
    121  OD1       87.6130  -27.2760  176.2060 O.co2 397  ASP397     -0.2456
    122  OD2       88.5300  -29.0780  175.3500 O.co2 397  ASP397     -0.2456
    123  N         88.8340  -23.8060  172.3940 N.3   401  GLY401     -0.1210
    124  CA        89.3840  -23.8340  173.7360 C.3   401  GLY401      0.1956
    125  C         90.7960  -24.3710  173.8730 C.2   401  GLY401      0.2612
    126  O         91.4060  -24.2310  174.9310 O.2   401  GLY401     -0.2717
    127  N         91.3250  -24.9900  172.8220 N.am  402  THR402     -0.1952
    128  CA        92.6570  -25.5830  172.9080 C.3   402  THR402      0.1897
    129  C         93.6160  -25.0310  171.8560 C.2   402  THR402      0.2313
    130  O         94.5720  -24.3280  172.1830 O.2   402  THR402     -0.2863
    131  CB        92.6090  -27.1210  172.7990 C.3   402  THR402      0.1794
    132  OG1       91.7300  -27.6480  173.8010 O.3   402  THR402     -0.2208
    133  CG2       93.9980  -27.7130  172.9870 C.3   402  THR402      0.0378
@<TRIPOS>BOND
     1   110   109    2
     2   109   108    1
     3   129   130    2
     4   129   128    1
     5   115   116    1
     6    99   100    1
     7   123   124    1
     8   117   118    2
     9   117   116    1
    10   111   108    1
    11   111   112    1
    12   108   107    1
    13   131   128    1
    14   131   133    1
    15   131   132    1
    16   127   128    1
    17   127   125   am
    18   107   101   am
    19   101   102    2
    20   101   100    1
    21   116   119    1
    22   100   103    1
    23   124   125    1
    24   125   126    2
    25   112   113   ar
    26   112   114   ar
    27   119   120    1
    28    47    49   ar
    29    47    45   ar
    30    49    50   ar
    31   103   104    1
    32   122   120   ar
    33   120   121   ar
    34    44    45    1
    35    44    41    1
    36    40    41    1
    37    45    46   ar
    38    50    51    1
    39    50    48   ar
    40   104   106    1
    41   104   105    1
    42    41    42    1
    43    82    80   ar
    44    82    81   ar
    45    80    78   ar
    46    46    48   ar
    47    81    79   ar
    48    42    52   am
    49    42    43    2
    50    78    77   ar
    51    52    53    1
    52    79    77   ar
    53    77    76    1
    54    39    37    1
    55    53    56    1
    56    53    54    1
    57    56    57    1
    58    71    69    1
    59    72    73    1
    60    76    73    1
    61    73    74    1
    62    54    55    2
    63    37    38    1
    64    37    36    2
    65    69    68    1
    66    96    94   ar
    67    96    98   ar
    68    57    58   ar
    69    57    59   ar
    70    36    35    1
    71    64    65    1
    72    94    93   ar
    73    58    60   ar
    74    75    74    2
    75    98    97   ar
    76    68    65    1
    77    68    70    1
    78    59    61   ar
    79    65    66    1
    80    35    34    1
    81    93    92    1
    82    93    95   ar
    83    60    62   ar
    84    97    95   ar
    85    92    89    1
    86    61    62   ar
    87    34    33    1
    88    62    63    1
    89    66    67    2
    90    89    88    1
    91    89    90    1
    92    88    85   am
    93    83    84    1
    94     8     6   ar
    95    33    30    1
    96    87    84    1
    97    90    91    2
    98    84    85    1
    99     6     7   ar
   100     6     5    1
   101    85    86    2
   102    30    31    1
   103    30    29    1
   104    32    31    2
   105    18    17    1
   106    18    19    1
   107    16    14    1
   108     5     2    1
   109    17    11   am
   110    13    14    1
   111    13    10    1
   112    29    23   am
   113    15    14    1
   114    19    20    2
   115    11    10    1
   116    11    12    2
   117     9    10    1
   118     9     3   am
   119    24    23    2
   120    23    22    1
   121     2     3    1
   122     2     1    1
   123    25    22    1
   124    25    26    1
   125     3     4    2
   126    27    26    1
   127    22    21    1
   128    26    28    1
