@<TRIPOS>MOLECULE
tmp/4mmdA00.pdb
 148 141 0 0 0
SMALL
GASTEIGER

@<TRIPOS>ATOM
      1  N        106.5560    9.6770   35.7460 N.3    17  TYR17      -0.1227
      2  CA       105.1990   10.2050   35.8130 C.3    17  TYR17       0.1736
      3  C        105.0970   11.3210   36.8500 C.2    17  TYR17       0.2595
      4  O        104.5660   12.3960   36.5690 O.2    17  TYR17      -0.2718
      5  CB       104.1960    9.0950   36.1430 C.3    17  TYR17       0.0548
      6  CG       102.8650    9.6230   36.6310 C.ar   17  TYR17      -0.0200
      7  CD1      101.9880   10.2730   35.7690 C.ar   17  TYR17      -0.0009
      8  CD2      102.4960    9.4960   37.9640 C.ar   17  TYR17      -0.0009
      9  CE1      100.7710   10.7670   36.2210 C.ar   17  TYR17       0.0417
     10  CE2      101.2890    9.9880   38.4260 C.ar   17  TYR17       0.0417
     11  CZ       100.4300   10.6210   37.5520 C.ar   17  TYR17       0.1957
     12  OH        99.2300   11.1090   38.0180 O.3    17  TYR17      -0.2866
     13  N        105.6150   11.0590   38.0450 N.am   18  ALA18      -0.1980
     14  CA       105.5160   12.0040   39.1520 C.3    18  ALA18       0.1597
     15  C        106.3440   13.2710   38.9430 C.2    18  ALA18       0.2287
     16  O        105.9000   14.3670   39.2800 O.2    18  ALA18      -0.2864
     17  CB       105.9160   11.3270   40.4500 C.3    18  ALA18       0.0319
     18  N        107.4570   16.2540   37.1970 N.3    20  ASP20      -0.1239
     19  CA       106.8870   17.0640   36.1270 C.3    20  ASP20       0.1674
     20  C        107.3090   18.5140   36.2650 C.2    20  ASP20       0.2266
     21  O        108.2350   18.8250   37.0120 O.2    20  ASP20      -0.2867
     22  CB       105.3550   16.9340   36.1100 C.3    20  ASP20       0.1410
     23  CG       104.6970   17.3980   37.4130 C.2    20  ASP20       0.3668
     24  OD1      103.5640   16.9580   37.6810 O.co2  20  ASP20      -0.2456
     25  OD2      105.2910   18.1870   38.1800 O.co2  20  ASP20      -0.2456
     26  N         92.1120   11.6930   33.5580 N.3    97  PRO97      -0.2116
     27  CA        93.3520   11.7880   32.7760 C.3    97  PRO97       0.1372
     28  C         93.1210   12.1770   31.3190 C.2    97  PRO97       0.2244
     29  O         94.0030   12.7750   30.6960 O.2    97  PRO97      -0.2868
     30  CB        93.9470   10.3750   32.8760 C.3    97  PRO97       0.0268
     31  CG        92.7930    9.4910   33.1590 C.3    97  PRO97       0.0207
     32  CD        91.8740   10.3110   34.0240 C.3    97  PRO97       0.0892
     33  N         92.8070   15.9970   31.3850 N.3   100  VAL100     -0.1231
     34  CA        94.1280   16.5660   31.6460 C.3   100  VAL100      0.1692
     35  C         94.9940   16.5210   30.3900 C.2   100  VAL100      0.2591
     36  O         95.6860   17.4870   30.0740 O.2   100  VAL100     -0.2718
     37  CB        94.8520   15.8390   32.8020 C.3   100  VAL100      0.0266
     38  CG1       96.3250   16.2610   32.8770 C.3   100  VAL100      0.0020
     39  CG2       94.1460   16.1080   34.1200 C.3   100  VAL100      0.0020
     40  N         94.9460   15.4020   29.6760 N.am  101  ALA101     -0.1980
     41  CA        95.6990   15.2510   28.4370 C.3   101  ALA101      0.1597
     42  C         95.3270   16.3180   27.4170 C.2   101  ALA101      0.2287
     43  O         96.1770   16.8230   26.6860 O.2   101  ALA101     -0.2864
     44  CB        95.4660   13.8660   27.8510 C.3   101  ALA101      0.0319
     45  N         94.5660   19.3830   27.7740 N.3   103  TYR103     -0.1227
     46  CA        95.3020   20.6490   27.9010 C.3   103  TYR103      0.1736
     47  C         96.8030   20.5060   28.1900 C.2   103  TYR103      0.2595
     48  O         97.5920   21.3660   27.7910 O.2   103  TYR103     -0.2718
     49  CB        94.6580   21.5460   28.9610 C.3   103  TYR103      0.0548
     50  CG        94.6860   21.0620   30.4030 C.ar  103  TYR103     -0.0200
     51  CD1       95.7650   21.3400   31.2440 C.ar  103  TYR103     -0.0009
     52  CD2       93.5980   20.3870   30.9420 C.ar  103  TYR103     -0.0009
     53  CE1       95.7670   20.9220   32.5730 C.ar  103  TYR103      0.0417
     54  CE2       93.5900   19.9670   32.2630 C.ar  103  TYR103      0.0417
     55  CZ        94.6710   20.2300   33.0720 C.ar  103  TYR103      0.1957
     56  OH        94.6360   19.8040   34.3840 O.3   103  TYR103     -0.2866
     57  N         97.2010   19.4340   28.8700 N.am  104  TYR104     -0.1962
     58  CA        98.5830   19.3060   29.3390 C.3   104  TYR104      0.1771
     59  C         99.5900   19.0320   28.2320 C.2   104  TYR104      0.2619
     60  O        100.7290   19.5020   28.2900 O.2   104  TYR104     -0.2715
     61  CB        98.6960   18.2140   30.4020 C.3   104  TYR104      0.0574
     62  CG       100.0260   18.2250   31.1240 C.ar  104  TYR104     -0.0198
     63  CD1      100.2500   19.0860   32.1850 C.ar  104  TYR104     -0.0009
     64  CD2      101.0510   17.3580   30.7570 C.ar  104  TYR104     -0.0009
     65  CE1      101.4560   19.0970   32.8590 C.ar  104  TYR104      0.0417
     66  CE2      102.2650   17.3590   31.4260 C.ar  104  TYR104      0.0417
     67  CZ       102.4590   18.2300   32.4760 C.ar  104  TYR104      0.1957
     68  OH       103.6600   18.2410   33.1460 O.3   104  TYR104     -0.2866
     69  N         99.1910   18.2360   27.2490 N.am  105  VAL105     -0.1977
     70  CA       100.0690   17.9650   26.1280 C.3   105  VAL105      0.1596
     71  C        100.3340   19.2630   25.3620 C.2   105  VAL105      0.2287
     72  O        101.4380   19.4860   24.8560 O.2   105  VAL105     -0.2864
     73  CB        99.4800   16.8970   25.2010 C.3   105  VAL105      0.0276
     74  CG1      100.3910   16.6640   24.0090 C.3   105  VAL105      0.0022
     75  CG2       99.2670   15.6020   25.9790 C.3   105  VAL105      0.0022
     76  N         99.3990   16.4020   44.6320 N.3   246  PHE246     -0.1227
     77  CA        99.6340   16.6870   43.2220 C.3   246  PHE246      0.1736
     78  C        101.0260   16.2860   42.7550 C.2   246  PHE246      0.2596
     79  O        101.1890   15.8320   41.6250 O.2   246  PHE246     -0.2718
     80  CB        99.3880   18.1680   42.9260 C.3   246  PHE246      0.0547
     81  CG        97.9420   18.5570   43.0090 C.ar  246  PHE246     -0.0202
     82  CD1       97.0280   18.0450   42.1030 C.ar  246  PHE246     -0.0042
     83  CD2       97.4930   19.4300   43.9820 C.ar  246  PHE246     -0.0042
     84  CE1       95.6920   18.3930   42.1710 C.ar  246  PHE246     -0.0003
     85  CE2       96.1590   19.7820   44.0520 C.ar  246  PHE246     -0.0003
     86  CZ        95.2570   19.2620   43.1450 C.ar  246  PHE246     -0.0000
     87  N        102.0240   16.4440   43.6210 N.am  247  SER247     -0.1952
     88  CA       103.3980   16.1140   43.2560 C.3   247  SER247      0.1924
     89  C        103.5760   14.6230   42.9700 C.2   247  SER247      0.2314
     90  O        104.3860   14.2390   42.1310 O.2   247  SER247     -0.2863
     91  CB       104.3660   16.5480   44.3550 C.3   247  SER247      0.2116
     92  OG       105.7040   16.4460   43.9060 O.3   247  SER247     -0.2180
     93  N        101.0590   12.8750   41.9010 N.3   249  GLY249     -0.1225
     94  CA       100.0980   12.6040   40.8500 C.3   249  GLY249      0.1811
     95  C         99.0570   11.5790   41.2520 C.2   249  GLY249      0.2280
     96  O         98.6150   10.7790   40.4320 O.2   249  GLY249     -0.2866
     97  N         94.8090   10.4120   39.6400 N.3   252  PHE252     -0.1241
     98  CA        94.7340   10.6350   38.1950 C.3   252  PHE252      0.1605
     99  C         94.5310    9.3690   37.3590 C.2   252  PHE252      0.2264
    100  O         94.3630    9.4530   36.1430 O.2   252  PHE252     -0.2867
    101  CB        95.9860   11.3570   37.7030 C.3   252  PHE252      0.0534
    102  CG        96.0390   12.8120   38.0770 C.ar  252  PHE252     -0.0203
    103  CD1       95.5460   13.7830   37.2170 C.ar  252  PHE252     -0.0042
    104  CD2       96.5970   13.2110   39.2790 C.ar  252  PHE252     -0.0042
    105  CE1       95.6070   15.1210   37.5510 C.ar  252  PHE252     -0.0003
    106  CE2       96.6610   14.5480   39.6210 C.ar  252  PHE252     -0.0003
    107  CZ        96.1630   15.5050   38.7550 C.ar  252  PHE252     -0.0000
    108  N         96.6510    7.2700   36.4260 N.3   254  ALA254     -0.1245
    109  CA        97.8920    6.8590   35.7760 C.3   254  ALA254      0.1562
    110  C         98.6540    5.7950   36.5740 C.2   254  ALA254      0.2260
    111  O         99.1690    4.8340   36.0030 O.2   254  ALA254     -0.2867
    112  CB        98.7810    8.0630   35.5350 C.3   254  ALA254      0.0290
    113  N        105.4900   12.4520   31.7890 N.3   348  SER348     -0.1202
    114  CA       104.2240   12.5000   32.5070 C.3   348  SER348      0.2020
    115  C        103.0500   12.2410   31.5730 C.2   348  SER348      0.2619
    116  O        102.1020   11.5640   31.9450 O.2   348  SER348     -0.2717
    117  CB       104.0500   13.8470   33.2080 C.3   348  SER348      0.2103
    118  OG       104.9510   13.9660   34.2890 O.3   348  SER348     -0.2182
    119  N        103.1370   12.7560   30.3490 N.am  349  SER349     -0.1951
    120  CA       102.0400   12.6360   29.3960 C.3   349  SER349      0.1924
    121  C        101.8870   11.2320   28.8060 C.2   349  SER349      0.2314
    122  O        100.7690   10.8100   28.5090 O.2   349  SER349     -0.2863
    123  CB       102.1840   13.6730   28.2760 C.3   349  SER349      0.2116
    124  OG       103.3820   13.5130   27.5510 O.3   349  SER349     -0.2180
    125  N        100.0100    9.5300   31.3780 N.3   352  GLY352     -0.1210
    126  CA        98.6690   10.0460   31.5480 C.3   352  GLY352      0.1956
    127  C         97.6960    9.6490   30.4560 C.2   352  GLY352      0.2611
    128  O         96.4850    9.6940   30.6580 O.2   352  GLY352     -0.2717
    129  N         98.2140    9.2400   29.3010 N.am  353  MET353     -0.1979
    130  CA        97.3410    8.8060   28.2130 C.3   353  MET353      0.1605
    131  C         97.1650    7.2910   28.1410 C.2   353  MET353      0.2287
    132  O         96.3100    6.7950   27.4130 O.2   353  MET353     -0.2864
    133  CB        97.8560    9.3410   26.8740 C.3   353  MET353      0.0413
    134  CG        97.6170   10.8400   26.7110 C.3   353  MET353      0.0598
    135  SD        97.9630   11.4550   25.0570 S.3   353  MET353     -0.1393
    136  CE        99.7530   11.5240   25.0700 C.3   353  MET353      0.0692
    137  N         91.4620   22.4280   34.0610 N.3   397  ASP397     -0.1239
    138  CA        92.4160   22.2140   35.1410 C.3   397  ASP397      0.1674
    139  C         91.7350   22.2070   36.5070 C.2   397  ASP397      0.2266
    140  O         92.1870   21.5460   37.4370 O.2   397  ASP397     -0.2867
    141  CB        93.4970   23.2980   35.1100 C.3   397  ASP397      0.1410
    142  CG        94.5390   23.1200   36.2040 C.2   397  ASP397      0.3668
    143  OD1       95.3730   22.1980   36.0960 O.co2 397  ASP397     -0.2456
    144  OD2       94.5090   23.8900   37.1860 O.co2 397  ASP397     -0.2456
    145  N         91.5220   18.5340   36.9650 N.3   401  GLY401     -0.1225
    146  CA        92.8610   18.5800   37.5090 C.3   401  GLY401      0.1811
    147  C         92.9810   18.9710   38.9660 C.2   401  GLY401      0.2280
    148  O         94.0580   18.8480   39.5520 O.2   401  GLY401     -0.2866
@<TRIPOS>BOND
     1    74    73    1
     2    72    71    2
     3   135   136    1
     4   135   134    1
     5    73    75    1
     6    73    70    1
     7    71    70    1
     8    70    69    1
     9    43    42    2
    10   134   133    1
    11   133   130    1
    12    69    59   am
    13   132   131    2
    14    42    41    1
    15   124   123    1
    16    45    46    1
    17    48    47    2
    18    44    41    1
    19    46    47    1
    20    46    49    1
    21   131   130    1
    22    47    57   am
    23   130   129    1
    24    59    60    2
    25    59    58    1
    26   123   120    1
    27    41    40    1
    28   122   121    2
    29   121   120    1
    30    57    58    1
    31    49    50    1
    32   129   127   am
    33    58    61    1
    34   120   119    1
    35    40    35   am
    36    36    35    2
    37   119   115   am
    38    35    34    1
    39    61    62    1
    40    50    52   ar
    41    50    51   ar
    42   127   128    2
    43   127   126    1
    44    29    28    2
    45    64    62   ar
    46    64    66   ar
    47    52    54   ar
    48    62    63   ar
    49    51    53   ar
    50    28    27    1
    51   125   126    1
    52    33    34    1
    53    66    67   ar
    54   115   116    2
    55   115   114    1
    56    34    37    1
    57   113   114    1
    58    63    65   ar
    59    54    55   ar
    60    67    65   ar
    61    67    68    1
    62   114   117    1
    63    53    55   ar
    64    27    30    1
    65    27    26    1
    66    37    38    1
    67    37    39    1
    68    30    31    1
    69    55    56    1
    70    31    32    1
    71   117   118    1
    72    26    32    1
    73   137   138    1
    74   141   138    1
    75   141   142    1
    76   138   139    1
    77   112   109    1
    78     1     2    1
    79     7     9   ar
    80     7     6   ar
    81   109   108    1
    82   109   110    1
    83     2     5    1
    84     2     3    1
    85   111   110    2
    86   143   142   ar
    87    22    19    1
    88    22    23    1
    89    19    20    1
    90    19    18    1
    91   100    99    2
    92     5     6    1
    93   142   144   ar
    94     9    11   ar
    95    20    21    2
    96   139   140    2
    97     4     3    2
    98     6     8   ar
    99     3    13   am
   100   145   146    1
   101   103   105   ar
   102   103   102   ar
   103    99    98    1
   104    23    24   ar
   105    23    25   ar
   106   146   147    1
   107   105   107   ar
   108    11    12    1
   109    11    10   ar
   110   101   102    1
   111   101    98    1
   112     8    10   ar
   113    13    14    1
   114   102   104   ar
   115    98    97    1
   116   107   106   ar
   117    15    14    1
   118    15    16    2
   119   147   148    2
   120    14    17    1
   121   104   106   ar
   122    96    95    2
   123    94    95    1
   124    94    93    1
   125    79    78    2
   126    82    84   ar
   127    82    81   ar
   128    90    89    2
   129    84    86   ar
   130    78    77    1
   131    78    87   am
   132    80    81    1
   133    80    77    1
   134    89    88    1
   135    81    83   ar
   136    86    85   ar
   137    77    76    1
   138    88    87    1
   139    88    91    1
   140    92    91    1
   141    83    85   ar
