@<TRIPOS>MOLECULE
tmp/4mmdA01.pdb
 97 99 0 0 0
SMALL
GASTEIGER

@<TRIPOS>ATOM
      1  N         81.8410   29.4870   39.6560 N.3   469  MET469     -0.1230
      2  CA        80.4700   29.4390   39.1610 C.3   469  MET469      0.1702
      3  C         79.8550   30.8250   38.9360 C.2   469  MET469      0.2592
      4  O         79.0060   30.9960   38.0640 O.2   469  MET469     -0.2718
      5  CB        79.5990   28.6320   40.1230 C.3   469  MET469      0.0401
      6  CG        79.9580   27.1540   40.1460 C.3   469  MET469      0.0596
      7  SD        79.7650   26.3390   38.5490 S.3   469  MET469     -0.1393
      8  CE        78.0510   26.7100   38.1760 C.3   469  MET469      0.0692
      9  N         80.2820   31.8100   39.7190 N.am  470  GLU470     -0.1966
     10  CA        79.6020   33.1040   39.7270 C.3   470  GLU470      0.1733
     11  C         80.3720   34.2520   39.0700 C.2   470  GLU470      0.2616
     12  O         79.7630   35.1810   38.5360 O.2   470  GLU470     -0.2715
     13  CB        79.2590   33.4910   41.1670 C.3   470  GLU470      0.0429
     14  CG        78.2830   32.5400   41.8530 C.3   470  GLU470      0.1163
     15  CD        76.9750   32.3940   41.0960 C.2   470  GLU470      0.3649
     16  OE1       76.0040   33.0940   41.4510 O.co2 470  GLU470     -0.2457
     17  OE2       76.9150   31.5900   40.1400 O.co2 470  GLU470     -0.2457
     18  N         81.7000   34.1840   39.0900 N.am  471  GLU471     -0.1963
     19  CA        82.5200   35.3180   38.6620 C.3   471  GLU471      0.1733
     20  C         83.2400   35.1180   37.3220 C.2   471  GLU471      0.2617
     21  O         83.9580   36.0060   36.8650 O.2   471  GLU471     -0.2715
     22  CB        83.5350   35.6630   39.7580 C.3   471  GLU471      0.0429
     23  CG        83.0200   35.3800   41.1670 C.3   471  GLU471      0.1163
     24  CD        83.8450   36.0440   42.2550 C.2   471  GLU471      0.3649
     25  OE1       84.9710   36.5000   41.9650 O.co2 471  GLU471     -0.2457
     26  OE2       83.3670   36.1040   43.4080 O.co2 471  GLU471     -0.2457
     27  N         83.0510   33.9600   36.6980 N.am  472  THR472     -0.1937
     28  CA        83.7010   33.6550   35.4210 C.3   472  THR472      0.2028
     29  C         82.9150   34.1370   34.1970 C.2   472  THR472      0.2642
     30  O         81.7140   34.3940   34.2750 O.2   472  THR472     -0.2714
     31  CB        83.9380   32.1480   35.2670 C.3   472  THR472      0.1808
     32  OG1       82.7080   31.4520   35.5040 O.3   472  THR472     -0.2208
     33  CG2       84.9970   31.6720   36.2490 C.3   472  THR472      0.0379
     34  N         83.6110   34.2640   33.0700 N.am  473  HIS473     -0.1959
     35  CA        82.9940   34.6640   31.8050 C.3   473  HIS473      0.1787
     36  C         82.0360   33.5700   31.3190 C.2   473  HIS473      0.2620
     37  O         82.2040   32.4010   31.6660 O.2   473  HIS473     -0.2715
     38  CB        84.0900   34.9410   30.7660 C.3   473  HIS473      0.0785
     39  CG        83.5980   35.6100   29.5190 C.ar  473  HIS473      0.0821
     40  ND1       83.4900   34.9510   28.3140 N.ar  473  HIS473     -0.2267
     41  CD2       83.1870   36.8790   29.2980 C.ar  473  HIS473      0.1154
     42  CE1       83.0350   35.7920   27.3980 C.ar  473  HIS473      0.1986
     43  NE2       82.8380   36.9640   27.9700 N.ar  473  HIS473     -0.2212
     44  N         81.0470   33.9340   30.5070 N.am  474  TRP474     -0.1974
     45  CA        80.0490   32.9620   30.0550 C.3   474  TRP474      0.1640
     46  C         80.6090   31.8530   29.1610 C.2   474  TRP474      0.2290
     47  O         80.0210   30.7780   29.0680 O.2   474  TRP474     -0.2864
     48  CB        78.8810   33.6660   29.3390 C.3   474  TRP474      0.0576
     49  CG        79.1890   34.2730   27.9980 C.ar  474  TRP474      0.0006
     50  CD1       79.4360   35.5920   27.7400 C.ar  474  TRP474      0.0946
     51  CD2       79.2630   33.5990   26.7290 C.ar  474  TRP474      0.0152
     52  NE1       79.6710   35.7780   26.3990 N.ar  474  TRP474     -0.2442
     53  CE2       79.5730   34.5720   25.7580 C.ar  474  TRP474      0.0810
     54  CE3       79.1120   32.2670   26.3290 C.ar  474  TRP474      0.0012
     55  CZ2       79.7230   34.2600   24.4070 C.ar  474  TRP474      0.0191
     56  CZ3       79.2660   31.9570   24.9850 C.ar  474  TRP474      0.0001
     57  CH2       79.5660   32.9490   24.0420 C.ar  474  TRP474      0.0015
     58  N         82.9010   29.9130   29.6970 N.3   476  VAL476     -0.1231
     59  CA        83.2910   28.7350   30.4650 C.3   476  VAL476      0.1692
     60  C         82.2840   27.5960   30.2960 C.2   476  VAL476      0.2592
     61  O         82.6480   26.4290   30.4390 O.2   476  VAL476     -0.2718
     62  CB        83.4550   29.0410   31.9780 C.3   476  VAL476      0.0266
     63  CG1       84.5110   30.1190   32.2070 C.3   476  VAL476      0.0020
     64  CG2       82.1140   29.3990   32.6160 C.3   476  VAL476      0.0020
     65  N         81.0310   27.9270   29.9800 N.am  477  TRP477     -0.1962
     66  CA        80.0100   26.8970   29.7720 C.3   477  TRP477      0.1771
     67  C         80.2990   26.0520   28.5390 C.2   477  TRP477      0.2619
     68  O         79.8760   24.9050   28.4640 O.2   477  TRP477     -0.2715
     69  CB        78.6080   27.5170   29.6800 C.3   477  TRP477      0.0590
     70  CG        78.0870   27.9130   31.0150 C.ar  477  TRP477      0.0006
     71  CD1       77.9340   29.1760   31.4900 C.ar  477  TRP477      0.0946
     72  CD2       77.6750   27.0340   32.0680 C.ar  477  TRP477      0.0152
     73  NE1       77.4510   29.1450   32.7740 N.ar  477  TRP477     -0.2442
     74  CE2       77.2750   27.8390   33.1520 C.ar  477  TRP477      0.0810
     75  CE3       77.5940   25.6410   32.1980 C.ar  477  TRP477      0.0012
     76  CZ2       76.8090   27.3040   34.3510 C.ar  477  TRP477      0.0191
     77  CZ3       77.1290   25.1100   33.3890 C.ar  477  TRP477      0.0001
     78  CH2       76.7440   25.9410   34.4500 C.ar  477  TRP477      0.0015
     79  N         81.0190   26.6210   27.5780 N.am  478  ILE478     -0.1977
     80  CA        81.4360   25.8770   26.3950 C.3   478  ILE478      0.1596
     81  C         82.3190   24.6900   26.7900 C.2   478  ILE478      0.2287
     82  O         82.1200   23.5690   26.3140 O.2   478  ILE478     -0.2864
     83  CB        82.2190   26.7700   25.4070 C.3   478  ILE478      0.0276
     84  CG1       81.3720   27.9660   24.9620 C.3   478  ILE478      0.0022
     85  CG2       82.6870   25.9640   24.1990 C.3   478  ILE478      0.0022
     86  CD1       82.1950   29.0340   24.2480 C.3   478  ILE478      0.0001
     87  N         82.6740   23.4430   29.9300 N.3   480  ARG480     -0.1245
     88  CA        81.8860   22.6090   30.8340 C.3   480  ARG480      0.1563
     89  C         80.9850   21.6640   30.0580 C.2   480  ARG480      0.2260
     90  O         80.9010   20.4730   30.3590 O.2   480  ARG480     -0.2867
     91  CB        81.0440   23.4850   31.7680 C.3   480  ARG480      0.0307
     92  CG        81.8690   24.3010   32.7310 C.3   480  ARG480      0.0489
     93  CD        81.0320   25.2810   33.5260 C.3   480  ARG480      0.2205
     94  NE        81.8890   26.0870   34.3940 N.pl3 480  ARG480     -0.0865
     95  CZ        81.4650   27.0660   35.1830 C.cat 480  ARG480      0.5346
     96  NH1       80.1770   27.3980   35.2130 N.pl3 480  ARG480      0.1354
     97  NH2       82.3380   27.7260   35.9300 N.pl3 480  ARG480      0.1354
@<TRIPOS>BOND
     1    57    55   ar
     2    57    56   ar
     3    85    83    1
     4    86    84    1
     5    55    53   ar
     6    84    83    1
     7    56    54   ar
     8    83    80    1
     9    53    52   ar
    10    53    51   ar
    11    82    81    2
    12    54    51   ar
    13    80    81    1
    14    80    79    1
    15    52    50   ar
    16    51    49   ar
    17    42    43   ar
    18    42    40   ar
    19    79    67   am
    20    50    49   ar
    21    43    41   ar
    22    49    48    1
    23    40    39   ar
    24    68    67    2
    25    67    66    1
    26    47    46    2
    27    46    45    1
    28    41    39   ar
    29    48    45    1
    30    39    38    1
    31    69    66    1
    32    69    70    1
    33    58    59    1
    34    66    65    1
    35    87    88    1
    36    65    60   am
    37    45    44    1
    38    89    90    2
    39    89    88    1
    40    60    61    2
    41    60    59    1
    42    59    62    1
    43    44    36   am
    44    38    35    1
    45    88    91    1
    46    70    71   ar
    47    70    72   ar
    48    36    37    2
    49    36    35    1
    50    71    73   ar
    51    91    92    1
    52    35    34    1
    53    62    63    1
    54    62    64    1
    55    72    75   ar
    56    72    74   ar
    57    75    77   ar
    58    92    93    1
    59    73    74   ar
    60    34    29   am
    61    74    76   ar
    62    77    78   ar
    63    93    94    1
    64    29    30    2
    65    29    28    1
    66    76    78   ar
    67    94    95    2
    68    95    96    1
    69    95    97    1
    70    31    28    1
    71    31    32    1
    72    31    33    1
    73    28    27    1
    74    27    20   am
    75    21    20    2
    76    20    19    1
    77     4     3    2
    78     8     7    1
    79    12    11    2
    80     7     6    1
    81    19    18    1
    82    19    22    1
    83     3     2    1
    84     3     9   am
    85    11    18   am
    86    11    10    1
    87     2     1    1
    88     2     5    1
    89     9    10    1
    90    10    13    1
    91    22    23    1
    92     5     6    1
    93    17    15   ar
    94    15    16   ar
    95    15    14    1
    96    13    14    1
    97    23    24    1
    98    25    24   ar
    99    24    26   ar
