@<TRIPOS>MOLECULE
tmp/4mmfA02.pdb
 176 169 0 0 0
SMALL
GASTEIGER

@<TRIPOS>ATOM
      1  N        -69.8020   21.2910    8.8800 N.3    21  LEU21      -0.1231
      2  CA       -70.0670   22.7250    9.0100 C.3    21  LEU21       0.1693
      3  C        -69.9160   23.4470    7.6750 C.2    21  LEU21       0.2592
      4  O        -70.5940   24.4440    7.4190 O.2    21  LEU21      -0.2718
      5  CB       -69.1590   23.3530   10.0660 C.3    21  LEU21       0.0284
      6  CG       -69.6800   23.1940   11.4980 C.3    21  LEU21       0.0019
      7  CD1      -69.3920   21.7900   12.0290 C.3    21  LEU21       0.0001
      8  CD2      -69.1110   24.2560   12.4290 C.3    21  LEU21       0.0001
      9  N        -69.0180   22.9450    6.8340 N.am   22  GLY22      -0.1957
     10  CA       -68.7940   23.5210    5.5220 C.3    22  GLY22       0.1869
     11  C        -70.0350   23.5400    4.6480 C.2    22  GLY22       0.2309
     12  O        -70.2990   24.5320    3.9670 O.2    22  GLY22      -0.2863
     13  N        -72.1450   26.5050    5.6880 N.3    25  LEU25      -0.1231
     14  CA       -71.5100   27.8130    5.8130 C.3    25  LEU25       0.1693
     15  C        -70.5260   28.1340    4.6950 C.2    25  LEU25       0.2591
     16  O        -70.6230   29.1860    4.0590 O.2    25  LEU25      -0.2718
     17  CB       -70.8060   27.9340    7.1680 C.3    25  LEU25       0.0284
     18  CG       -71.7400   27.9920    8.3710 C.3    25  LEU25       0.0019
     19  CD1      -70.9370   28.0440    9.6600 C.3    25  LEU25       0.0001
     20  CD2      -72.6530   29.1950    8.2370 C.3    25  LEU25       0.0001
     21  N        -69.5820   27.2290    4.4560 N.am   26  ARG26      -0.1980
     22  CA       -68.5180   27.4900    3.4990 C.3    26  ARG26       0.1597
     23  C        -69.0400   27.5000    2.0630 C.2    26  ARG26       0.2287
     24  O        -68.8520   28.4770    1.3380 O.2    26  ARG26      -0.2864
     25  CB       -67.3810   26.4810    3.6650 C.3    26  ARG26       0.0334
     26  CG       -66.1040   26.8650    2.9470 C.3    26  ARG26       0.0492
     27  CD       -64.9570   25.9470    3.3300 C.3    26  ARG26       0.2205
     28  NE       -63.6610   26.4690    2.8950 N.pl3  26  ARG26      -0.0865
     29  CZ       -63.1390   26.2760    1.6870 C.cat  26  ARG26       0.5346
     30  NH1      -63.7940   25.5610    0.7810 N.pl3  26  ARG26       0.1354
     31  NH2      -61.9570   26.7950    1.3860 N.pl3  26  ARG26       0.1354
     32  N        -60.5640   20.5570   15.4230 N.3   104  TYR104     -0.1241
     33  CA       -61.9430   20.5020   14.9430 C.3   104  TYR104      0.1605
     34  C        -62.9530   20.1340   16.0300 C.2   104  TYR104      0.2264
     35  O        -64.0720   20.6480   16.0390 O.2   104  TYR104     -0.2867
     36  CB       -62.0810   19.5420   13.7580 C.3   104  TYR104      0.0534
     37  CG       -63.3130   19.8050   12.9180 C.ar  104  TYR104     -0.0201
     38  CD1      -63.2830   20.7630   11.9070 C.ar  104  TYR104     -0.0009
     39  CD2      -64.5000   19.1150   13.1370 C.ar  104  TYR104     -0.0009
     40  CE1      -64.3880   21.0210   11.1350 C.ar  104  TYR104      0.0417
     41  CE2      -65.6230   19.3720   12.3670 C.ar  104  TYR104      0.0417
     42  CZ       -65.5600   20.3260   11.3660 C.ar  104  TYR104      0.1957
     43  OH       -66.6650   20.5920   10.5860 O.3   104  TYR104     -0.2866
     44  N        -63.7850   23.3150   17.8160 N.3   107  ILE107     -0.1245
     45  CA       -64.7380   24.1260   17.0760 C.3   107  ILE107      0.1561
     46  C        -66.1330   23.5280   17.2190 C.2   107  ILE107      0.2260
     47  O        -67.1130   24.2410   17.4310 O.2   107  ILE107     -0.2867
     48  CB       -64.3500   24.2290   15.5920 C.3   107  ILE107      0.0252
     49  CG1      -63.0910   25.0850   15.4470 C.3   107  ILE107      0.0019
     50  CG2      -65.4680   24.8670   14.7840 C.3   107  ILE107      0.0019
     51  CD1      -62.5070   25.0950   14.0490 C.3   107  ILE107      0.0001
     52  N        -67.8460   24.4740   20.3030 N.3   110  TRP110     -0.1241
     53  CA       -68.4070   25.8220   20.3120 C.3   110  TRP110      0.1605
     54  C        -69.8850   25.7830   19.9660 C.2   110  TRP110      0.2264
     55  O        -70.6810   26.5140   20.5560 O.2   110  TRP110     -0.2867
     56  CB       -67.6970   26.7470   19.3230 C.3   110  TRP110      0.0550
     57  CG       -66.2340   26.8710   19.5300 C.ar  110  TRP110      0.0003
     58  CD1      -65.5110   26.4440   20.6100 C.ar  110  TRP110      0.0946
     59  CD2      -65.3010   27.4860   18.6420 C.ar  110  TRP110      0.0152
     60  NE1      -64.1800   26.7390   20.4370 N.ar  110  TRP110     -0.2442
     61  CE2      -64.0220   27.3790   19.2360 C.ar  110  TRP110      0.0810
     62  CE3      -65.4180   28.1060   17.3970 C.ar  110  TRP110      0.0012
     63  CZ2      -62.8720   27.8760   18.6300 C.ar  110  TRP110      0.0191
     64  CZ3      -64.2710   28.5950   16.7930 C.ar  110  TRP110      0.0001
     65  CH2      -63.0130   28.4770   17.4120 C.ar  110  TRP110      0.0015
     66  N        -69.0600   35.9290   21.2720 N.3   141  LEU141     -0.1231
     67  CA       -68.1580   34.9390   20.7120 C.3   141  LEU141      0.1693
     68  C        -66.7390   35.1350   21.2370 C.2   141  LEU141      0.2592
     69  O        -66.0730   34.1710   21.6140 O.2   141  LEU141     -0.2718
     70  CB       -68.1670   35.0230   19.1840 C.3   141  LEU141      0.0284
     71  CG       -67.1450   34.1360   18.4720 C.3   141  LEU141      0.0019
     72  CD1      -67.4420   32.6640   18.7110 C.3   141  LEU141      0.0001
     73  CD2      -67.1260   34.4440   16.9940 C.3   141  LEU141      0.0001
     74  N        -66.2860   36.3870   21.2680 N.am  142  TYR142     -0.1976
     75  CA       -64.9210   36.6870   21.6840 C.3   142  TYR142      0.1639
     76  C        -64.6810   36.3320   23.1470 C.2   142  TYR142      0.2290
     77  O        -63.5760   35.9410   23.5230 O.2   142  TYR142     -0.2864
     78  CB       -64.5690   38.1640   21.4360 C.3   142  TYR142      0.0560
     79  CG       -64.3300   38.5220   19.9850 C.ar  142  TYR142     -0.0198
     80  CD1      -64.7250   37.6730   18.9570 C.ar  142  TYR142     -0.0009
     81  CD2      -63.6830   39.7000   19.6430 C.ar  142  TYR142     -0.0009
     82  CE1      -64.5010   38.0020   17.6280 C.ar  142  TYR142      0.0417
     83  CE2      -63.4450   40.0340   18.3180 C.ar  142  TYR142      0.0417
     84  CZ       -63.8570   39.1830   17.3170 C.ar  142  TYR142      0.1957
     85  OH       -63.6270   39.5160   16.0030 O.3   142  TYR142     -0.2866
     86  N        -64.3500   32.2120   23.2930 N.3   145  ILE145     -0.1245
     87  CA       -63.0720   31.6850   22.8260 C.3   145  ILE145      0.1561
     88  C        -61.9510   32.2540   23.6940 C.2   145  ILE145      0.2260
     89  O        -60.9320   31.6000   23.9490 O.2   145  ILE145     -0.2867
     90  CB       -62.8030   32.0890   21.3550 C.3   145  ILE145      0.0252
     91  CG1      -63.9300   31.6100   20.4560 C.3   145  ILE145      0.0019
     92  CG2      -61.4920   31.5210   20.8630 C.3   145  ILE145      0.0019
     93  CD1      -64.3540   30.2070   20.7560 C.3   145  ILE145      0.0001
     94  N        -60.7740   35.5110   22.8980 N.3   147  VAL147     -0.1245
     95  CA       -59.9940   36.2730   21.9320 C.3   147  VAL147      0.1561
     96  C        -59.1550   37.3050   22.6900 C.2   147  VAL147      0.2260
     97  O        -59.6590   37.9740   23.5890 O.2   147  VAL147     -0.2867
     98  CB       -60.9100   36.9540   20.8810 C.3   147  VAL147      0.0252
     99  CG1      -60.1390   37.9110   19.9980 C.3   147  VAL147      0.0019
    100  CG2      -61.6020   35.9090   20.0420 C.3   147  VAL147      0.0019
    101  N        -55.0720   33.0790   24.2770 N.3   155  LEU155     -0.1245
    102  CA       -56.5130   32.8940   24.3990 C.3   155  LEU155      0.1561
    103  C        -56.8750   32.5500   25.8410 C.2   155  LEU155      0.2260
    104  O        -56.0940   31.9310   26.5620 O.2   155  LEU155     -0.2867
    105  CB       -56.9840   31.7760   23.4730 C.3   155  LEU155      0.0270
    106  CG       -56.8400   31.9630   21.9610 C.3   155  LEU155      0.0019
    107  CD1      -57.0660   30.6460   21.2430 C.3   155  LEU155      0.0001
    108  CD2      -57.8290   32.9960   21.4730 C.3   155  LEU155      0.0001
    109  N        -67.3960   32.5640    6.0380 N.3   312  ALA312     -0.1231
    110  CA       -68.2610   31.5190    6.5780 C.3   312  ALA312      0.1694
    111  C        -68.3570   31.5380    8.0990 C.2   312  ALA312      0.2592
    112  O        -69.4330   31.3220    8.6590 O.2   312  ALA312     -0.2718
    113  CB       -67.7940   30.1420    6.1000 C.3   312  ALA312      0.0304
    114  N        -67.2450   31.8110    8.7690 N.am  313  PHE313     -0.1962
    115  CA       -67.2360   31.7910   10.2280 C.3   313  PHE313      0.1771
    116  C        -68.1160   32.8910   10.8420 C.2   313  PHE313      0.2619
    117  O        -68.9270   32.6110   11.7280 O.2   313  PHE313     -0.2715
    118  CB       -65.8020   31.8680   10.7710 C.3   313  PHE313      0.0574
    119  CG       -65.7310   31.8880   12.2610 C.ar  313  PHE313     -0.0200
    120  CD1      -66.1330   30.7860   12.9920 C.ar  313  PHE313     -0.0042
    121  CD2      -65.2730   33.0070   12.9380 C.ar  313  PHE313     -0.0042
    122  CE1      -66.0930   30.8040   14.3790 C.ar  313  PHE313     -0.0003
    123  CE2      -65.2180   33.0260   14.3190 C.ar  313  PHE313     -0.0003
    124  CZ       -65.6330   31.9240   15.0410 C.ar  313  PHE313     -0.0000
    125  N        -67.9590   34.1280   10.3660 N.am  314  ASN314     -0.1972
    126  CA       -68.7560   35.2550   10.8470 C.3   314  ASN314      0.1688
    127  C        -70.2450   35.0430   10.6050 C.2   314  ASN314      0.2292
    128  O        -71.0840   35.4340   11.4220 O.2   314  ASN314     -0.2864
    129  CB       -68.3160   36.5560   10.1720 C.3   314  ASN314      0.1181
    130  CG       -67.0900   37.1720   10.8190 C.2   314  ASN314      0.2629
    131  OD1      -66.2570   36.4740   11.3930 O.2   314  ASN314     -0.2716
    132  ND2      -66.9670   38.4870   10.7190 N.am  314  ASN314     -0.0877
    133  N        -71.4380   32.2610   13.2550 N.3   317  PHE317     -0.1241
    134  CA       -71.2240   32.4640   14.6880 C.3   317  PHE317      0.1605
    135  C        -71.5000   33.8860   15.1710 C.2   317  PHE317      0.2264
    136  O        -71.6000   34.1210   16.3710 O.2   317  PHE317     -0.2867
    137  CB       -69.8190   32.0020   15.0880 C.3   317  PHE317      0.0534
    138  CG       -69.6500   30.5070   15.0590 C.ar  317  PHE317     -0.0203
    139  CD1      -69.8100   29.7550   16.2130 C.ar  317  PHE317     -0.0042
    140  CD2      -69.3560   29.8520   13.8730 C.ar  317  PHE317     -0.0042
    141  CE1      -69.6690   28.3870   16.1870 C.ar  317  PHE317     -0.0003
    142  CE2      -69.2090   28.4790   13.8400 C.ar  317  PHE317     -0.0003
    143  CZ       -69.3660   27.7450   14.9980 C.ar  317  PHE317     -0.0000
    144  N        -53.3590   31.7440   20.3690 N.3   390  ASN390     -0.1225
    145  CA       -54.0780   32.3990   19.2840 C.3   390  ASN390      0.1785
    146  C        -53.4390   32.0590   17.9380 C.2   390  ASN390      0.2597
    147  O        -52.2180   31.9550   17.8410 O.2   390  ASN390     -0.2718
    148  CB       -54.1300   33.9150   19.5160 C.3   390  ASN390      0.1169
    149  CG       -55.1510   34.6110   18.6310 C.2   390  ASN390      0.2627
    150  OD1      -56.1840   34.0370   18.2930 O.2   390  ASN390     -0.2716
    151  ND2      -54.8750   35.8620   18.2710 N.am  390  ASN390     -0.0877
    152  N        -54.2780   31.8440   16.9260 N.am  391  LYS391     -0.1980
    153  CA       -53.8440   31.5290   15.5580 C.3   391  LYS391      0.1596
    154  C        -53.2000   30.1460   15.3910 C.2   391  LYS391      0.2287
    155  O        -52.8100   29.7770   14.2860 O.2   391  LYS391     -0.2864
    156  CB       -52.9210   32.6190   14.9910 C.3   391  LYS391      0.0298
    157  CG       -53.5610   33.9940   14.8620 C.3   391  LYS391      0.0038
    158  CD       -54.9700   33.8800   14.3310 C.3   391  LYS391      0.0206
    159  CE       -55.5280   35.2370   13.9600 C.3   391  LYS391      0.1093
    160  NZ       -56.9840   35.1480   13.6640 N.3   391  LYS391     -0.1314
    161  N        -54.8660   27.4010   15.6620 N.3   393  LEU393     -0.1231
    162  CA       -55.9170   26.7310   14.8970 C.3   393  LEU393      0.1693
    163  C        -55.7110   26.8640   13.3900 C.2   393  LEU393      0.2592
    164  O        -55.8410   25.8920   12.6440 O.2   393  LEU393     -0.2718
    165  CB       -57.2790   27.3250   15.2820 C.3   393  LEU393      0.0284
    166  CG       -58.5910   26.7420   14.7470 C.3   393  LEU393      0.0019
    167  CD1      -59.7210   27.0790   15.7070 C.3   393  LEU393      0.0001
    168  CD2      -58.9370   27.2660   13.3510 C.3   393  LEU393      0.0001
    169  N        -55.4080   28.0800   12.9530 N.am  394  ASP394     -0.1974
    170  CA       -55.2420   28.3810   11.5390 C.3   394  ASP394      0.1709
    171  C        -54.0130   27.6890   10.9780 C.2   394  ASP394      0.2293
    172  O        -54.0040   27.2640    9.8280 O.2   394  ASP394     -0.2864
    173  CB       -55.1450   29.8940   11.3360 C.3   394  ASP394      0.1436
    174  CG       -56.3640   30.6250   11.8740 C.2   394  ASP394      0.3671
    175  OD1      -56.5300   30.6670   13.1100 O.co2 394  ASP394     -0.2456
    176  OD2      -57.1710   31.1320   11.0680 O.co2 394  ASP394     -0.2456
@<TRIPOS>BOND
     1    30    29    1
     2    24    23    2
     3    31    29    1
     4    29    28    2
     5    23    22    1
     6    28    27    1
     7    26    27    1
     8    26    25    1
     9    22    25    1
    10    22    21    1
    11    12    11    2
    12    16    15    2
    13    21    15   am
    14    11    10    1
    15    15    14    1
    16    10     9    1
    17    13    14    1
    18    14    17    1
    19   109   110    1
    20   113   110    1
    21   110   111    1
    22     9     3   am
    23    17    18    1
    24     4     3    2
    25     3     2    1
    26   111   112    2
    27   111   114   am
    28    20    18    1
    29    18    19    1
    30   114   115    1
    31     1     2    1
    32     2     5    1
    33   172   171    2
    34     5     6    1
    35   129   130    1
    36   129   126    1
    37   115   118    1
    38   115   116    1
    39   125   116   am
    40   125   126    1
    41    43    42    1
    42   127   126    1
    43   127   128    2
    44   132   130   am
    45   118   119    1
    46   130   131    2
    47   116   117    2
    48   171   170    1
    49   176   174   ar
    50    40    42   ar
    51    40    38   ar
    52   173   170    1
    53   173   174    1
    54    42    41   ar
    55     6     7    1
    56     6     8    1
    57   170   169    1
    58   174   175   ar
    59    38    37   ar
    60   119   121   ar
    61   119   120   ar
    62    41    39   ar
    63   164   163    2
    64    37    39   ar
    65    37    36    1
    66   121   123   ar
    67   169   163   am
    68   120   122   ar
    69   133   134    1
    70   168   166    1
    71   163   162    1
    72   160   159    1
    73    36    33    1
    74   142   140   ar
    75   142   143   ar
    76   140   138   ar
    77   159   158    1
    78    51    49    1
    79   155   154    2
    80   123   124   ar
    81   158   157    1
    82   122   124   ar
    83   134   137    1
    84   134   135    1
    85   166   165    1
    86   166   167    1
    87    50    48    1
    88   157   156    1
    89   162   165    1
    90   162   161    1
    91    33    32    1
    92    33    34    1
    93   156   153    1
    94   143   141   ar
    95   138   137    1
    96   138   139   ar
    97   135   136    2
    98   154   153    1
    99    49    48    1
   100   153   152    1
   101    48    45    1
   102    85    84    1
   103    34    35    2
   104   141   139   ar
   105    64    62   ar
   106    64    65   ar
   107   152   146   am
   108    73    71    1
   109    45    46    1
   110    45    44    1
   111    46    47    2
   112    84    82   ar
   113    84    83   ar
   114    62    59   ar
   115    65    63   ar
   116    82    80   ar
   117   147   146    2
   118   146   145    1
   119   151   149   am
   120   150   149    2
   121    83    81   ar
   122    71    72    1
   123    71    70    1
   124    63    61   ar
   125   149   148    1
   126    59    61   ar
   127    59    57   ar
   128    80    79   ar
   129    70    67    1
   130    61    60   ar
   131   145   148    1
   132   145   144    1
   133    56    57    1
   134    56    53    1
   135    57    58   ar
   136    81    79   ar
   137    54    53    1
   138    54    55    2
   139    79    78    1
   140    99    98    1
   141   100    98    1
   142    52    53    1
   143    60    58   ar
   144    91    93    1
   145    91    90    1
   146    67    68    1
   147    67    66    1
   148    92    90    1
   149    98    95    1
   150    68    74   am
   151    68    69    2
   152   107   106    1
   153    74    75    1
   154    90    87    1
   155    78    75    1
   156   108   106    1
   157    75    76    1
   158    95    96    1
   159    95    94    1
   160   106   105    1
   161    96    97    2
   162    87    86    1
   163    87    88    1
   164    76    77    2
   165   105   102    1
   166    88    89    2
   167   101   102    1
   168   102   103    1
   169   103   104    2
