@<TRIPOS>MOLECULE
tmp/4mmfA00.pdb
 133 126 0 0 0
SMALL
GASTEIGER

@<TRIPOS>ATOM
      1  N        -69.9000   11.6870    7.5200 N.3    17  TYR17      -0.1227
      2  CA       -68.5390   12.1910    7.4760 C.3    17  TYR17       0.1736
      3  C        -68.4630   13.4160    6.5880 C.2    17  TYR17       0.2595
      4  O        -67.9920   14.4560    7.0160 O.2    17  TYR17      -0.2718
      5  CB       -67.5640   11.1310    6.9720 C.3    17  TYR17       0.0548
      6  CG       -66.2190   11.7180    6.6160 C.ar   17  TYR17      -0.0200
      7  CD1      -65.3830   12.2290    7.6070 C.ar   17  TYR17      -0.0009
      8  CD2      -65.7890   11.7850    5.2950 C.ar   17  TYR17      -0.0009
      9  CE1      -64.1610   12.7790    7.3000 C.ar   17  TYR17       0.0417
     10  CE2      -64.5600   12.3370    4.9770 C.ar   17  TYR17       0.0417
     11  CZ       -63.7550   12.8310    5.9870 C.ar   17  TYR17       0.1957
     12  OH       -62.5350   13.3760    5.6850 O.3    17  TYR17      -0.2866
     13  N        -68.9520   13.2920    5.3570 N.am   18  ALA18      -0.1980
     14  CA       -68.8660   14.3750    4.3760 C.3    18  ALA18       0.1597
     15  C        -69.6710   15.6250    4.7650 C.2    18  ALA18       0.2287
     16  O        -69.1830   16.7480    4.6310 O.2    18  ALA18      -0.2864
     17  CB       -69.2930   13.8790    2.9980 C.3    18  ALA18       0.0319
     18  N        -70.7260   18.3960    6.8220 N.3    20  ASP20      -0.1239
     19  CA       -70.1320   19.0480    7.9870 C.3    20  ASP20       0.1674
     20  C        -70.5160   20.5250    8.0590 C.2    20  ASP20       0.2266
     21  O        -71.4720   20.9520    7.4060 O.2    20  ASP20      -0.2867
     22  CB       -68.6050   18.8610    7.9790 C.3    20  ASP20       0.1410
     23  CG       -67.9160   19.6350    6.8600 C.2    20  ASP20       0.3668
     24  OD1      -68.6040   20.0840    5.9150 O.co2  20  ASP20      -0.2456
     25  OD2      -66.6700   19.7570    6.9060 O.co2  20  ASP20      -0.2456
     26  N        -55.6050   13.3700    9.7610 N.3    97  PRO97      -0.2116
     27  CA       -56.8730   13.3710   10.4970 C.3    97  PRO97       0.1372
     28  C        -56.6720   13.6270   11.9870 C.2    97  PRO97       0.2244
     29  O        -57.5640   14.1520   12.6520 O.2    97  PRO97      -0.2868
     30  CB       -57.4130   11.9570   10.2660 C.3    97  PRO97       0.0268
     31  CG       -56.2050   11.1320   10.0160 C.3    97  PRO97       0.0207
     32  CD       -55.2660   12.0230    9.2620 C.3    97  PRO97       0.0892
     33  N        -56.2040   17.4990   12.3540 N.3   100  VAL100     -0.1231
     34  CA       -57.4840   18.1600   12.1190 C.3   100  VAL100      0.1692
     35  C        -58.4130   17.9370   13.3080 C.2   100  VAL100      0.2591
     36  O        -59.0950   18.8580   13.7570 O.2   100  VAL100     -0.2718
     37  CB       -58.1580   17.6950   10.8070 C.3   100  VAL100      0.0266
     38  CG1      -59.5660   18.2740   10.6870 C.3   100  VAL100      0.0020
     39  CG2      -57.3010   18.0730    9.6000 C.3   100  VAL100      0.0020
     40  N        -58.3870   16.7220   13.8500 N.am  101  ALA101     -0.1980
     41  CA       -59.1870   16.3940   15.0210 C.3   101  ALA101      0.1597
     42  C        -58.8080   17.2750   16.2060 C.2   101  ALA101      0.2287
     43  O        -59.6620   17.6610   17.0010 O.2   101  ALA101     -0.2864
     44  CB       -59.0410   14.9180   15.3740 C.3   101  ALA101      0.0319
     45  N        -57.9530   20.3900   16.4100 N.3   103  TYR103     -0.1227
     46  CA       -58.6420   21.6740   16.4640 C.3   103  TYR103      0.1736
     47  C        -60.1500   21.5830   16.1580 C.2   103  TYR103      0.2595
     48  O        -60.9310   22.4080   16.6170 O.2   103  TYR103     -0.2718
     49  CB       -57.9500   22.7130   15.5770 C.3   103  TYR103      0.0548
     50  CG       -57.9960   22.4270   14.0910 C.ar  103  TYR103     -0.0200
     51  CD1      -59.0810   22.8110   13.3170 C.ar  103  TYR103     -0.0009
     52  CD2      -56.9360   21.7920   13.4600 C.ar  103  TYR103     -0.0009
     53  CE1      -59.1160   22.5490   11.9560 C.ar  103  TYR103      0.0417
     54  CE2      -56.9580   21.5370   12.1040 C.ar  103  TYR103      0.0417
     55  CZ       -58.0480   21.9140   11.3560 C.ar  103  TYR103      0.1957
     56  OH       -58.0590   21.6460   10.0050 O.3   103  TYR103     -0.2866
     57  N        -60.5640   20.5570   15.4230 N.am  104  TYR104     -0.1976
     58  CA       -61.9430   20.5020   14.9430 C.3   104  TYR104      0.1639
     59  C        -62.9530   20.1340   16.0300 C.2   104  TYR104      0.2290
     60  O        -64.0720   20.6480   16.0390 O.2   104  TYR104     -0.2864
     61  CB       -62.0810   19.5420   13.7580 C.3   104  TYR104      0.0560
     62  CG       -63.3130   19.8050   12.9180 C.ar  104  TYR104     -0.0198
     63  CD1      -63.2830   20.7630   11.9070 C.ar  104  TYR104     -0.0009
     64  CD2      -64.5000   19.1150   13.1370 C.ar  104  TYR104     -0.0009
     65  CE1      -64.3880   21.0210   11.1350 C.ar  104  TYR104      0.0417
     66  CE2      -65.6230   19.3720   12.3670 C.ar  104  TYR104      0.0417
     67  CZ       -65.5600   20.3260   11.3660 C.ar  104  TYR104      0.1957
     68  OH       -66.6650   20.5920   10.5860 O.3   104  TYR104     -0.2866
     69  N        -62.6870   19.3510   -0.5620 N.3   246  PHE246     -0.1227
     70  CA       -62.9130   19.5420    0.8650 C.3   246  PHE246      0.1736
     71  C        -64.2990   19.1340    1.3590 C.2   246  PHE246      0.2596
     72  O        -64.4250   18.6300    2.4690 O.2   246  PHE246     -0.2718
     73  CB       -62.6000   20.9820    1.2850 C.3   246  PHE246      0.0547
     74  CG       -61.1380   21.3030    1.2450 C.ar  246  PHE246     -0.0202
     75  CD1      -60.2560   20.6640    2.0980 C.ar  246  PHE246     -0.0042
     76  CD2      -60.6410   22.2440    0.3600 C.ar  246  PHE246     -0.0042
     77  CE1      -58.9160   20.9510    2.0560 C.ar  246  PHE246     -0.0003
     78  CE2      -59.2950   22.5350    0.3210 C.ar  246  PHE246     -0.0003
     79  CZ       -58.4320   21.8890    1.1660 C.ar  246  PHE246     -0.0000
     80  N        -65.3370   19.3530    0.5580 N.am  247  SER247     -0.1952
     81  CA       -66.6740   18.9850    0.9930 C.3   247  SER247      0.1924
     82  C        -66.8020   17.4710    1.1590 C.2   247  SER247      0.2314
     83  O        -67.4500   16.9870    2.0860 O.2   247  SER247     -0.2863
     84  CB       -67.7370   19.5140    0.0340 C.3   247  SER247      0.2116
     85  OG       -69.0290   19.3620    0.6060 O.3   247  SER247     -0.2180
     86  N        -64.3380   15.5860    1.8300 N.3   249  GLY249     -0.1225
     87  CA       -63.3330   15.1810    2.7970 C.3   249  GLY249      0.1811
     88  C        -62.3330   14.1710    2.2660 C.2   249  GLY249      0.2280
     89  O        -61.8740   13.2900    2.9930 O.2   249  GLY249     -0.2866
     90  N        -58.1040   12.8610    3.6730 N.3   252  PHE252     -0.1241
     91  CA       -57.9900   12.9560    5.1290 C.3   252  PHE252      0.1605
     92  C        -57.6500   11.6110    5.7680 C.2   252  PHE252      0.2264
     93  O        -57.3530   11.5440    6.9580 O.2   252  PHE252     -0.2867
     94  CB       -59.2920   13.4810    5.7330 C.3   252  PHE252      0.0534
     95  CG       -59.4880   14.9590    5.5720 C.ar  252  PHE252     -0.0203
     96  CD1      -59.2650   15.8210    6.6340 C.ar  252  PHE252     -0.0042
     97  CD2      -59.9280   15.4860    4.3660 C.ar  252  PHE252     -0.0042
     98  CE1      -59.4640   17.1870    6.4950 C.ar  252  PHE252     -0.0003
     99  CE2      -60.1270   16.8500    4.2150 C.ar  252  PHE252     -0.0003
    100  CZ       -59.8930   17.7010    5.2850 C.ar  252  PHE252     -0.0000
    101  N        -59.6780    9.4100    6.4350 N.3   254  ALA254     -0.1245
    102  CA       -60.9060    8.9440    7.0750 C.3   254  ALA254      0.1562
    103  C        -61.7050    7.9350    6.2390 C.2   254  ALA254      0.2260
    104  O        -62.0920    6.8730    6.7370 O.2   254  ALA254     -0.2867
    105  CB       -61.7890   10.1320    7.4390 C.3   254  ALA254      0.0290
    106  N        -68.6540   14.0730   11.8610 N.3   348  SER348     -0.1202
    107  CA       -67.3730   14.2180   11.1710 C.3   348  SER348      0.2020
    108  C        -66.1700   13.9380   12.0820 C.2   348  SER348      0.2619
    109  O        -65.1810   13.3600   11.6370 O.2   348  SER348     -0.2717
    110  CB       -67.2500   15.6070   10.5430 C.3   348  SER348      0.2103
    111  OG       -68.1850   15.7820    9.4910 O.3   348  SER348     -0.2182
    112  N        -66.2430   14.3240   13.3530 N.am  349  SER349     -0.1951
    113  CA       -65.0860   14.1380   14.2300 C.3   349  SER349      0.1924
    114  C        -64.8600   12.6700   14.6070 C.2   349  SER349      0.2314
    115  O        -63.7150   12.2330   14.7360 O.2   349  SER349     -0.2863
    116  CB       -65.1630   15.0220   15.4840 C.3   349  SER349      0.2116
    117  OG       -66.2220   14.6520   16.3430 O.3   349  SER349     -0.2180
    118  N        -62.9660   11.1020   11.9710 N.3   352  GLY352     -0.1225
    119  CA       -61.6100   11.6040   11.8990 C.3   352  GLY352      0.1811
    120  C        -60.6690   11.1170   12.9780 C.2   352  GLY352      0.2280
    121  O        -59.4570   11.3150   12.8750 O.2   352  GLY352     -0.2866
    122  N        -54.7560   23.9550   10.5080 N.3   397  ASP397     -0.1239
    123  CA       -55.6990   23.8400    9.3990 C.3   397  ASP397      0.1674
    124  C        -55.0540   24.0650    8.0360 C.2   397  ASP397      0.2266
    125  O        -55.5440   23.5670    7.0220 O.2   397  ASP397     -0.2867
    126  CB       -56.8660   24.8060    9.5640 C.3   397  ASP397      0.1410
    127  CG       -57.8370   24.7370    8.4020 C.2   397  ASP397      0.3668
    128  OD1      -58.6000   23.7560    8.3190 O.co2 397  ASP397     -0.2456
    129  OD2      -57.8170   25.6470    7.5520 O.co2 397  ASP397     -0.2456
    130  N        -54.9780   20.3920    7.1650 N.3   401  GLY401     -0.1225
    131  CA       -56.3170   20.4770    6.6190 C.3   401  GLY401      0.1811
    132  C        -56.4440   21.0930    5.2390 C.2   401  GLY401      0.2280
    133  O        -57.5170   21.0270    4.6460 O.2   401  GLY401     -0.2866
@<TRIPOS>BOND
     1    69    70    1
     2    84    85    1
     3    84    81    1
     4    78    76   ar
     5    78    79   ar
     6    76    74   ar
     7    80    81    1
     8    80    71   am
     9    70    73    1
    10    70    71    1
    11    81    82    1
    12    82    83    2
    13    79    77   ar
    14    74    73    1
    15    74    75   ar
    16    71    72    2
    17    86    87    1
    18    77    75   ar
    19    88    87    1
    20    88    89    2
    21    17    14    1
    22    90    91    1
    23    99    97   ar
    24    99   100   ar
    25    97    95   ar
    26    14    15    1
    27    14    13    1
    28    16    15    2
    29   133   132    2
    30    10     8   ar
    31    10    11   ar
    32    91    94    1
    33    91    92    1
    34   132   131    1
    35   100    98   ar
    36     8     6   ar
    37    13     3   am
    38    95    94    1
    39    95    96   ar
    40    12    11    1
    41    92    93    2
    42    24    23   ar
    43    11     9   ar
    44   103   104    2
    45   103   102    1
    46   101   102    1
    47    98    96   ar
    48     3     4    2
    49     3     2    1
    50     6     5    1
    51     6     7   ar
    52   131   130    1
    53    18    19    1
    54    23    25   ar
    55    23    22    1
    56     5     2    1
    57   125   124    2
    58   102   105    1
    59     9     7   ar
    60    21    20    2
    61     2     1    1
    62   129   127   ar
    63    22    19    1
    64    19    20    1
    65   124   123    1
    66   128   127   ar
    67   127   126    1
    68    32    26    1
    69    32    31    1
    70   123   126    1
    71   123   122    1
    72   111   110    1
    73    39    37    1
    74    26    27    1
    75    56    55    1
    76    31    30    1
    77    30    27    1
    78    27    28    1
    79   110   107    1
    80    68    67    1
    81    38    37    1
    82    37    34    1
    83    65    67   ar
    84    65    63   ar
    85   107   106    1
    86   107   108    1
    87    55    53   ar
    88    55    54   ar
    89    67    66   ar
    90   109   108    2
    91   119   118    1
    92   119   120    1
    93    63    62   ar
    94    53    51   ar
    95    28    29    2
    96   108   112   am
    97    54    52   ar
    98    34    33    1
    99    34    35    1
   100    66    64   ar
   101   121   120    2
   102    62    64   ar
   103    62    61    1
   104    35    36    2
   105    35    40   am
   106    51    50   ar
   107   112   113    1
   108    52    50   ar
   109    61    58    1
   110    40    41    1
   111    50    49    1
   112   113   114    1
   113   113   116    1
   114   114   115    2
   115    58    57    1
   116    58    59    1
   117    41    44    1
   118    41    42    1
   119    57    47   am
   120   116   117    1
   121    49    46    1
   122    59    60    2
   123    47    46    1
   124    47    48    2
   125    42    43    2
   126    45    46    1
