@<TRIPOS>MOLECULE
tmp/4mmpA00.pdb
 166 153 0 0 0
SMALL
GASTEIGER

@<TRIPOS>ATOM
      1  N         17.0090   22.4870   13.6370 N.3    11  VAL11      -0.1231
      2  CA        18.3730   23.0260   13.8220 C.3    11  VAL11       0.1692
      3  C         18.6320   23.3280   15.3020 C.2    11  VAL11       0.2591
      4  O         19.7110   23.0700   15.8340 O.2    11  VAL11      -0.2718
      5  CB        18.6290   24.2320   12.9060 C.3    11  VAL11       0.0266
      6  CG1       19.9530   24.9700   13.2530 C.3    11  VAL11       0.0020
      7  CG2       18.5850   23.8400   11.4030 C.3    11  VAL11       0.0020
      8  N         17.6330   23.9800   15.9500 N.am   12  ALA12      -0.1980
      9  CA        17.7330   24.4070   17.3470 C.3    12  ALA12       0.1597
     10  C         18.0000   23.2220   18.2800 C.2    12  ALA12       0.2287
     11  O         17.6930   22.0690   17.9280 O.2    12  ALA12      -0.2864
     12  CB        16.4390   25.0790   17.7780 C.3    12  ALA12       0.0319
     13  N         12.3500   26.5690   20.8430 N.3    18  GLU18      -0.1245
     14  CA        11.8630   25.8060   19.7480 C.3    18  GLU18       0.1567
     15  C         11.6450   24.3590   20.2110 C.2    18  GLU18       0.2260
     16  O         10.5720   23.7610   19.9460 O.2    18  GLU18      -0.2867
     17  CB        12.7960   25.8260   18.5590 C.3    18  GLU18       0.0388
     18  CG        12.9840   27.2020   17.8850 C.3    18  GLU18       0.1160
     19  CD        14.2340   27.9750   18.3910 C.2    18  GLU18       0.3649
     20  OE1       14.4940   27.9750   19.6260 O.co2  18  GLU18      -0.2457
     21  OE2       14.9690   28.5400   17.4880 O.co2  18  GLU18      -0.2457
     22  N         18.4090   23.2580    8.0830 N.3    50  ASP50      -0.1239
     23  CA        17.0450   23.4210    7.6450 C.3    50  ASP50       0.1674
     24  C         16.8200   23.3700    6.1340 C.2    50  ASP50       0.2266
     25  O         15.7310   23.0170    5.6920 O.2    50  ASP50      -0.2867
     26  CB        16.4560   24.7860    8.2090 C.3    50  ASP50       0.1410
     27  CG        17.3350   25.9720    7.9550 C.2    50  ASP50       0.3668
     28  OD1       18.5900   25.8930    7.8190 O.co2  50  ASP50      -0.2456
     29  OD2       16.7500   27.1340    7.9240 O.co2  50  ASP50      -0.2456
     30  N         10.8930   22.7830   11.1210 N.3    66  LEU66      -0.1231
     31  CA        10.6560   24.2310   11.3130 C.3    66  LEU66       0.1693
     32  C         11.3690   24.9760   10.1820 C.2    66  LEU66       0.2593
     33  O         12.5010   24.6420    9.8270 O.2    66  LEU66      -0.2718
     34  CB        11.2510   24.6600   12.6480 C.3    66  LEU66       0.0284
     35  CG        10.6470   24.1340   13.9280 C.3    66  LEU66       0.0019
     36  CD1       11.3290   24.6450   15.2160 C.3    66  LEU66       0.0001
     37  CD2        9.1310   24.3500   14.0370 C.3    66  LEU66       0.0001
     38  N         10.7630   26.0610    9.6930 N.am   67  GLY67      -0.1942
     39  CA        11.4730   26.9170    8.8150 C.3    67  GLY67       0.2014
     40  C         10.9070   28.3100    8.7850 C.2    67  GLY67       0.2638
     41  O          9.7240   28.5230    9.0330 O.2    67  GLY67      -0.2714
     42  N         11.7650   29.2880    8.5620 N.am   68  GLU68      -0.1977
     43  CA        11.2650   30.6570    8.4390 C.3    68  GLU68       0.1602
     44  C         10.5850   30.8510    7.0940 C.2    68  GLU68       0.2287
     45  O         11.0000   30.2690    6.1180 O.2    68  GLU68      -0.2864
     46  CB        12.4040   31.7060    8.5330 C.3    68  GLU68       0.0415
     47  CG        13.1820   31.7970    9.8380 C.3    68  GLU68       0.1163
     48  CD        14.5600   32.3830    9.6380 C.2    68  GLU68       0.3649
     49  OE1       14.8380   32.8490    8.5360 O.co2  68  GLU68      -0.2457
     50  OE2       15.3040   32.2580   10.6060 O.co2  68  GLU68      -0.2457
     51  N         11.1370   33.3090    5.3210 N.3    70  ALA70      -0.1231
     52  CA        12.2040   33.8770    4.5810 C.3    70  ALA70       0.1694
     53  C         13.0950   32.8010    3.9810 C.2    70  ALA70       0.2591
     54  O         13.6790   33.0060    2.9650 O.2    70  ALA70      -0.2718
     55  CB        13.0440   34.8190    5.4650 C.3    70  ALA70       0.0304
     56  N         13.1730   31.6620    4.6350 N.am   71  ARG71      -0.1980
     57  CA        14.0020   30.5480    4.1600 C.3    71  ARG71       0.1597
     58  C         13.5460   30.0380    2.8130 C.2    71  ARG71       0.2287
     59  O         14.3720   29.5060    2.0450 O.2    71  ARG71      -0.2864
     60  CB        14.0880   29.4140    5.1820 C.3    71  ARG71       0.0334
     61  CG        15.1700   28.3600    4.9810 C.3    71  ARG71       0.0492
     62  CD        16.5630   28.8660    4.6970 C.3    71  ARG71       0.2205
     63  NE        17.5550   28.2920    5.4760 N.pl3  71  ARG71      -0.0865
     64  CZ        18.8470   28.4720    5.3100 C.cat  71  ARG71       0.5346
     65  NH1       19.3040   29.3230    4.3450 N.pl3  71  ARG71       0.1354
     66  NH2       19.6860   27.8730    6.1330 N.pl3  71  ARG71       0.1354
     67  N          9.9510   33.7590   16.3090 N.3   125  ASN125     -0.1240
     68  CA        11.2660   33.2150   16.6610 C.3   125  ASN125      0.1653
     69  C         12.2130   34.3710   17.0020 C.2   125  ASN125      0.2266
     70  O         13.4250   34.1560   16.9110 O.2   125  ASN125     -0.2867
     71  CB        11.8920   32.2980   15.5890 C.3   125  ASN125      0.1155
     72  CG        12.4650   31.0400   16.1910 C.2   125  ASN125      0.2627
     73  OD1       11.7320   30.1330   16.5850 O.2   125  ASN125     -0.2716
     74  ND2       13.8010   30.9230   16.1690 N.am  125  ASN125     -0.0877
     75  N         16.7280   39.3200   15.7200 N.3   128  ARG128     -0.1245
     76  CA        18.1890   39.0660   15.8060 C.3   128  ARG128      0.1563
     77  C         18.9860   40.3010   16.3160 C.2   128  ARG128      0.2260
     78  O         18.5870   41.4590   16.0370 O.2   128  ARG128     -0.2867
     79  CB        18.6910   38.6420   14.4990 C.3   128  ARG128      0.0307
     80  CG        17.9320   37.3880   13.9400 C.3   128  ARG128      0.0489
     81  CD        18.4370   36.9010   12.5990 C.3   128  ARG128      0.2205
     82  NE        19.6830   36.1220   12.6180 N.pl3 128  ARG128     -0.0865
     83  CZ        19.7470   34.7750   12.6760 C.cat 128  ARG128      0.5346
     84  NH1       18.6430   34.0620   12.9130 N.pl3 128  ARG128      0.1354
     85  NH2       20.9010   34.1100   12.5350 N.pl3 128  ARG128      0.1354
     86  N         30.2620   35.7500   11.8920 N.3   148  ARG148     -0.1245
     87  CA        29.6050   34.5330   11.4380 C.3   148  ARG148      0.1563
     88  C         28.1600   34.8860   11.0310 C.2   148  ARG148      0.2260
     89  O         27.4680   35.6530   11.7380 O.2   148  ARG148     -0.2867
     90  CB        29.6700   33.4680   12.4620 C.3   148  ARG148      0.0307
     91  CG        28.9040   32.2320   12.0570 C.3   148  ARG148      0.0489
     92  CD        27.4160   32.3230   12.4370 C.3   148  ARG148      0.2205
     93  NE        26.7300   31.1700   11.9030 N.pl3 148  ARG148     -0.0865
     94  CZ        25.4730   30.9030   12.1890 C.cat 148  ARG148      0.5346
     95  NH1       24.8530   29.8590   11.7300 N.pl3 148  ARG148      0.1354
     96  NH2       24.8220   31.7610   12.9520 N.pl3 148  ARG148      0.1354
     97  N         24.5900   32.6170    9.3180 N.3   150  PRO150     -0.2116
     98  CA        24.1250   31.3440    8.7550 C.3   150  PRO150      0.1372
     99  C         24.3510   31.3800    7.2380 C.2   150  PRO150      0.2244
    100  O         24.6420   32.4180    6.6080 O.2   150  PRO150     -0.2868
    101  CB        22.6080   31.3880    9.0750 C.3   150  PRO150      0.0268
    102  CG        22.2270   32.8440    9.2210 C.3   150  PRO150      0.0207
    103  CD        23.4880   33.4810    9.7450 C.3   150  PRO150      0.0892
    104  N         22.7520   31.8270    4.4160 N.3   152  ALA152     -0.1245
    105  CA        21.5620   32.4700    4.0080 C.3   152  ALA152      0.1562
    106  C         21.9050   33.8280    3.4000 C.2   152  ALA152      0.2260
    107  O         22.6070   34.5820    3.9950 O.2   152  ALA152     -0.2867
    108  CB        20.5750   32.7220    5.2110 C.3   152  ALA152      0.0290
    109  N         21.4120   37.2360    5.4820 N.3   155  ASN155     -0.1240
    110  CA        22.3030   37.4950    6.5890 C.3   155  ASN155      0.1653
    111  C         23.6770   37.8200    6.0740 C.2   155  ASN155      0.2266
    112  O         24.3420   38.7070    6.6760 O.2   155  ASN155     -0.2867
    113  CB        22.3820   36.3170    7.5810 C.3   155  ASN155      0.1155
    114  CG        21.0170   35.9510    8.1330 C.2   155  ASN155      0.2627
    115  OD1       20.7150   36.0510    9.3620 O.2   155  ASN155     -0.2716
    116  ND2       20.2530   35.3520    7.2830 N.am  155  ASN155     -0.0877
    117  N         24.9560   26.4770   11.9960 N.3   171  PHE171     -0.1241
    118  CA        24.6640   26.7420   13.4030 C.3   171  PHE171      0.1605
    119  C         25.4360   25.8780   14.3800 C.2   171  PHE171      0.2264
    120  O         25.8640   26.3140   15.4610 O.2   171  PHE171     -0.2867
    121  CB        23.1530   26.6170   13.6350 C.3   171  PHE171      0.0534
    122  CG        22.7230   27.0650   15.0000 C.ar  171  PHE171     -0.0203
    123  CD1       22.7550   28.4340   15.3280 C.ar  171  PHE171     -0.0042
    124  CD2       22.1350   26.2300   15.9090 C.ar  171  PHE171     -0.0042
    125  CE1       22.2730   28.8160   16.5750 C.ar  171  PHE171     -0.0003
    126  CE2       21.6240   26.6360   17.1490 C.ar  171  PHE171     -0.0003
    127  CZ        21.7130   27.9470   17.4850 C.ar  171  PHE171     -0.0000
    128  N         21.8960   36.5560   16.2640 N.3   188  ASN188     -0.1226
    129  CA        20.7800   35.6130   16.5720 C.3   188  ASN188      0.1770
    130  C         19.8580   36.2840   17.5810 C.2   188  ASN188      0.2439
    131  O         20.2230   37.2530   18.2300 O.2   188  ASN188     -0.2733
    132  CB        21.2820   34.2440   17.1280 C.3   188  ASN188      0.1168
    133  CG        21.3070   33.1440   16.0700 C.2   188  ASN188      0.2627
    134  OD1       20.2390   32.7940   15.5790 O.2   188  ASN188     -0.2716
    135  ND2       22.5010   32.5090   15.8300 N.am  188  ASN188     -0.0877
    136  N         18.6170   35.7870   17.6980 N.am  189  PRO189     -0.2729
    137  CA        17.7920   36.3340   18.7570 C.3   189  PRO189      0.1401
    138  C         18.3110   36.0410   20.1570 C.2   189  PRO189      0.2269
    139  O         19.0830   35.0800   20.4090 O.2   189  PRO189     -0.2865
    140  CB        16.4340   35.6320   18.5290 C.3   189  PRO189      0.0296
    141  CG        16.4760   35.1880   17.0760 C.3   189  PRO189      0.0237
    142  CD        17.9080   34.7430   16.9320 C.3   189  PRO189      0.0939
    143  N         18.0710   32.4830   21.6520 N.3   192  THR192     -0.1218
    144  CA        19.0850   31.5730   21.0470 C.3   192  THR192      0.1862
    145  C         20.4450   31.7580   21.6410 C.2   192  THR192      0.2287
    146  O         21.1720   30.8140   21.8670 O.2   192  THR192     -0.2866
    147  CB        19.1340   31.8390   19.5310 C.3   192  THR192      0.1770
    148  OG1       17.7810   31.5880   19.0150 O.3   192  THR192     -0.2211
    149  CG2       20.1960   30.9560   18.7830 C.3   192  THR192      0.0375
    150  N         12.6450   37.1650   12.8000 N.3   213  ASN213     -0.1240
    151  CA        12.4340   35.7480   12.3720 C.3   213  ASN213      0.1653
    152  C         11.0310   35.3090   12.8340 C.2   213  ASN213      0.2266
    153  O         10.7330   35.3860   14.0170 O.2   213  ASN213     -0.2867
    154  CB        13.4920   34.8500   12.9890 C.3   213  ASN213      0.1155
    155  CG        14.9180   35.0550   12.4500 C.2   213  ASN213      0.2627
    156  OD1       15.1200   35.4430   11.2250 O.2   213  ASN213     -0.2716
    157  ND2       15.8380   34.7360   13.2490 N.am  213  ASN213     -0.0877
    158  N          8.5600   31.6220   12.3970 N.3   215  GLN215     -0.1245
    159  CA         8.8690   30.1930   12.5100 C.3   215  GLN215      0.1566
    160  C          7.6460   29.4420   12.0320 C.2   215  GLN215      0.2260
    161  O          6.5800   29.5950   12.6420 O.2   215  GLN215     -0.2867
    162  CB         9.2610   29.7790   13.8950 C.3   215  GLN215      0.0367
    163  CG        10.1410   28.4840   13.9650 C.3   215  GLN215      0.0905
    164  CD        11.6610   28.7010   13.7220 C.2   215  GLN215      0.2608
    165  OE1       12.1210   29.7430   13.1180 O.2   215  GLN215     -0.2717
    166  NE2       12.4210   27.7930   14.1490 N.am  215  GLN215     -0.0878
@<TRIPOS>BOND
     1    59    58    2
     2    58    57    1
     3    54    53    2
     4   106   107    2
     5   106   105    1
     6    53    52    1
     7    53    56   am
     8   105   104    1
     9   105   108    1
    10    57    56    1
    11    57    60    1
    12    65    64    1
    13    52    51    1
    14    52    55    1
    15    62    61    1
    16    62    63    1
    17    61    60    1
    18    64    63    2
    19    64    66    1
    20   109   110    1
    21    25    24    2
    22   111   110    1
    23   111   112    2
    24    45    44    2
    25    24    23    1
    26   110   113    1
    27   100    99    2
    28    44    43    1
    29    99    98    1
    30   116   114   am
    31   113   114    1
    32    23    22    1
    33    23    26    1
    34    28    27   ar
    35    29    27   ar
    36    27    26    1
    37   114   115    2
    38    43    46    1
    39    43    42    1
    40    46    47    1
    41    49    48   ar
    42    42    40   am
    43    98   101    1
    44    98    97    1
    45    40    39    1
    46    40    41    2
    47    39    38    1
    48   101   102    1
    49   102   103    1
    50    97   103    1
    51    48    47    1
    52    48    50   ar
    53    38    32   am
    54    33    32    2
    55    32    31    1
    56    88    87    1
    57    88    89    2
    58    30    31    1
    59   156   155    2
    60    31    34    1
    61     7     5    1
    62    87    86    1
    63    87    90    1
    64    95    94    1
    65    93    94    2
    66    93    92    1
    67   117   118    1
    68   160   159    1
    69   160   161    2
    70    91    92    1
    71    91    90    1
    72    94    96    1
    73   151   150    1
    74   151   152    1
    75   151   154    1
    76   158   159    1
    77   155   154    1
    78   155   157   am
    79   159   162    1
    80    85    83    1
    81    81    82    1
    82    81    80    1
    83    82    83    2
    84    34    35    1
    85    83    84    1
    86   152   153    2
    87     5     6    1
    88     5     2    1
    89   165   164    2
    90   118   121    1
    91   118   119    1
    92   121   122    1
    93     1     2    1
    94   164   163    1
    95   164   166   am
    96     2     3    1
    97   162   163    1
    98    35    37    1
    99    35    36    1
   100    80    79    1
   101   119   120    2
   102    79    76    1
   103   122   123   ar
   104   122   124   ar
   105     3     4    2
   106     3     8   am
   107   123   125   ar
   108   134   133    2
   109    71    72    1
   110    71    68    1
   111    75    76    1
   112    76    77    1
   113   135   133   am
   114   124   126   ar
   115     8     9    1
   116    78    77    2
   117   133   132    1
   118    74    72   am
   119    72    73    2
   120   128   129    1
   121    67    68    1
   122   129   132    1
   123   129   130    1
   124   125   127   ar
   125    68    69    1
   126    70    69    2
   127   142   141    1
   128   142   136    1
   129   141   140    1
   130   126   127   ar
   131     9    12    1
   132     9    10    1
   133    21    19   ar
   134   130   136   am
   135   130   131    2
   136   136   137    1
   137    18    19    1
   138    18    17    1
   139    11    10    2
   140    19    20   ar
   141   140   137    1
   142    17    14    1
   143   137   138    1
   144   149   147    1
   145   148   147    1
   146   147   144    1
   147    14    15    1
   148    14    13    1
   149    16    15    2
   150   138   139    2
   151   144   145    1
   152   144   143    1
   153   145   146    2
