@<TRIPOS>MOLECULE
tmp/4mmwA00.pdb
 126 117 0 0 0
SMALL
GASTEIGER

@<TRIPOS>ATOM
      1  N         28.1230   24.2620   15.0020 N.3    23  GLY23      -0.1210
      2  CA        27.1430   25.2910   14.6990 C.3    23  GLY23       0.1956
      3  C         26.1560   25.5720   15.8270 C.2    23  GLY23       0.2612
      4  O         25.2060   26.3330   15.6410 O.2    23  GLY23      -0.2717
      5  N         26.3600   24.9650   16.9950 N.am   24  HIS24      -0.1961
      6  CA        25.4110   25.1740   18.0990 C.3    24  HIS24       0.1787
      7  C         25.7470   26.4160   18.9200 C.2    24  HIS24       0.2620
      8  O         26.9100   26.6420   19.2720 O.2    24  HIS24      -0.2715
      9  CB        25.3500   23.9430   19.0130 C.3    24  HIS24       0.0785
     10  CG        25.1590   22.6560   18.2700 C.ar   24  HIS24       0.0821
     11  ND1       24.0940   22.4410   17.4200 N.ar   24  HIS24      -0.2267
     12  CD2       25.9000   21.5210   18.2450 C.ar   24  HIS24       0.1154
     13  CE1       24.1950   21.2320   16.8910 C.ar   24  HIS24       0.1986
     14  NE2       25.2790   20.6520   17.3780 N.ar   24  HIS24      -0.2212
     15  N         24.7240   27.2130   19.2300 N.am   25  ALA25      -0.1977
     16  CA        24.9150   28.4400   20.0000 C.3    25  ALA25       0.1597
     17  C         25.1460   28.1560   21.4820 C.2    25  ALA25       0.2287
     18  O         24.5700   27.2190   22.0510 O.2    25  ALA25      -0.2864
     19  CB        23.7240   29.3670   19.8300 C.3    25  ALA25       0.0319
     20  N         21.1070   24.7450   23.1640 N.3   139  CYS139     -0.1235
     21  CA        21.7650   23.4550   23.3220 C.3   139  CYS139      0.1677
     22  C         22.5070   23.3500   24.6510 C.2   139  CYS139      0.2270
     23  O         23.0090   24.3450   25.1760 O.2   139  CYS139     -0.2867
     24  CB        22.7600   23.2470   22.1820 C.3   139  CYS139      0.0956
     25  SG        21.9450   23.0210   20.5770 S.3   139  CYS139     -0.0801
     26  N         10.7860   24.5110   25.0010 N.3   169  LYS169     -0.1245
     27  CA        11.4230   23.4560   24.2100 C.3   169  LYS169      0.1561
     28  C         12.8760   23.2940   24.6340 C.2   169  LYS169      0.2260
     29  O         13.6510   24.2470   24.6080 O.2   169  LYS169     -0.2867
     30  CB        11.3430   23.7340   22.7050 C.3   169  LYS169      0.0271
     31  CG        11.8930   22.5720   21.8880 C.3   169  LYS169      0.0035
     32  CD        11.5970   22.7120   20.3890 C.3   169  LYS169      0.0206
     33  CE        12.6040   23.6270   19.6900 C.3   169  LYS169      0.1093
     34  NZ        12.1910   23.8620   18.2590 N.3   169  LYS169     -0.1314
     35  N         16.5980   22.0990   23.9630 N.3   171  HIS171     -0.1241
     36  CA        17.6160   21.4940   23.1120 C.3   171  HIS171      0.1621
     37  C         18.5850   20.8760   24.0950 C.2   171  HIS171      0.2264
     38  O         19.0710   21.5600   25.0040 O.2   171  HIS171     -0.2867
     39  CB        18.3340   22.5320   22.2540 C.3   171  HIS171      0.0745
     40  CG        17.4730   23.1110   21.1820 C.ar  171  HIS171      0.0817
     41  ND1       16.7410   24.2650   21.3540 N.ar  171  HIS171     -0.2268
     42  CD2       17.2070   22.6790   19.9250 C.ar  171  HIS171      0.1154
     43  CE1       16.0730   24.5300   20.2420 C.ar  171  HIS171      0.1986
     44  NE2       16.3340   23.5780   19.3620 N.ar  171  HIS171     -0.2212
     45  N         24.8050   18.0450   22.7520 N.3   174  MET174     -0.1245
     46  CA        25.3030   17.5840   21.4590 C.3   174  MET174      0.1570
     47  C         26.8080   17.8280   21.3950 C.2   174  MET174      0.2261
     48  O         27.3070   18.7630   22.0210 O.2   174  MET174     -0.2867
     49  CB        24.6120   18.3580   20.3320 C.3   174  MET174      0.0387
     50  CG        23.0900   18.4140   20.4350 C.3   174  MET174      0.0595
     51  SD        22.3640   19.2460   19.0030 S.3   174  MET174     -0.1393
     52  CE        20.6770   19.5070   19.5620 C.3   174  MET174      0.0692
     53  N         14.1010   18.9440   21.2740 N.3   206  ASP206     -0.1239
     54  CA        14.7850   18.9590   19.9890 C.3   206  ASP206      0.1674
     55  C         16.1690   18.4250   20.3240 C.2   206  ASP206      0.2266
     56  O         16.9960   19.1400   20.8780 O.2   206  ASP206     -0.2867
     57  CB        14.8520   20.4070   19.5040 C.3   206  ASP206      0.1410
     58  CG        15.3480   20.5480   18.0680 C.2   206  ASP206      0.3668
     59  OD1       15.2430   21.6710   17.5450 O.co2 206  ASP206     -0.2456
     60  OD2       15.8350   19.5660   17.4680 O.co2 206  ASP206     -0.2456
     61  N         20.8700   15.6090   16.6260 N.3   209  HIS209     -0.1241
     62  CA        20.1810   15.4430   15.3370 C.3   209  HIS209      0.1621
     63  C         20.6070   14.2360   14.5210 C.2   209  HIS209      0.2264
     64  O         20.1940   14.0980   13.3640 O.2   209  HIS209     -0.2867
     65  CB        20.3500   16.6930   14.4780 C.3   209  HIS209      0.0745
     66  CG        19.9780   17.9600   15.1820 C.ar  209  HIS209      0.0817
     67  ND1       18.7370   18.1600   15.7450 N.ar  209  HIS209     -0.2268
     68  CD2       20.6820   19.0980   15.4020 C.ar  209  HIS209      0.1154
     69  CE1       18.6920   19.3650   16.2880 C.ar  209  HIS209      0.1986
     70  NE2       19.8570   19.9570   16.0880 N.ar  209  HIS209     -0.2212
     71  N         13.5320   16.4450   15.3480 N.3   233  GLU233     -0.1245
     72  CA        14.8300   16.1420   14.7330 C.3   233  GLU233      0.1567
     73  C         15.8290   15.3090   15.5550 C.2   233  GLU233      0.2260
     74  O         16.9570   15.7360   15.7690 O.2   233  GLU233     -0.2867
     75  CB        15.4940   17.4450   14.2530 C.3   233  GLU233      0.0388
     76  CG        16.5360   17.2070   13.1620 C.3   233  GLU233      0.1160
     77  CD        16.9980   18.4710   12.4530 C.2   233  GLU233      0.3649
     78  OE1       17.8330   18.3260   11.5320 O.co2 233  GLU233     -0.2457
     79  OE2       16.5300   19.5850   12.7890 O.co2 233  GLU233     -0.2457
     80  N         13.0310   19.9350    9.7530 N.3   258  GLU258     -0.1245
     81  CA        13.4950   21.3010    9.8960 C.3   258  GLU258      0.1567
     82  C         14.5760   21.6450    8.8900 C.2   258  GLU258      0.2260
     83  O         14.4740   22.6480    8.1920 O.2   258  GLU258     -0.2867
     84  CB        14.0190   21.5740   11.2990 C.3   258  GLU258      0.0388
     85  CG        14.4550   23.0230   11.4670 C.3   258  GLU258      0.1160
     86  CD        15.0330   23.3040   12.8310 C.2   258  GLU258      0.3649
     87  OE1       14.3380   23.0440   13.8350 O.co2 258  GLU258     -0.2457
     88  OE2       16.1820   23.7920   12.8940 O.co2 258  GLU258     -0.2457
     89  N          7.2630   20.8830    9.6110 N.3   280  ARG280     -0.1245
     90  CA         8.1200   21.9930   10.0210 C.3   280  ARG280      0.1563
     91  C          8.5510   22.7800    8.7930 C.2   280  ARG280      0.2260
     92  O          8.7450   22.2160    7.7010 O.2   280  ARG280     -0.2867
     93  CB         9.3430   21.5010   10.7960 C.3   280  ARG280      0.0307
     94  CG        10.1440   22.6270   11.5060 C.3   280  ARG280      0.0489
     95  CD        10.6040   22.1110   12.8710 C.3   280  ARG280      0.2205
     96  NE        11.4010   23.0250   13.6980 N.pl3 280  ARG280     -0.0865
     97  CZ        10.9140   24.0560   14.3850 C.cat 280  ARG280      0.5346
     98  NH1       11.7190   24.7690   15.1690 N.pl3 280  ARG280      0.1354
     99  NH2        9.6310   24.3930   14.2840 N.pl3 280  ARG280      0.1354
    100  N         10.2580   27.2990   12.2620 N.3   309  HIS309     -0.1241
    101  CA        11.5580   27.3340   12.9090 C.3   309  HIS309      0.1621
    102  C         12.1640   28.7160   12.8550 C.2   309  HIS309      0.2264
    103  O         12.2990   29.3080   11.7780 O.2   309  HIS309     -0.2867
    104  CB        12.5330   26.3560   12.2470 C.3   309  HIS309      0.0745
    105  CG        13.9610   26.6120   12.6110 C.ar  309  HIS309      0.0817
    106  ND1       14.9500   26.8010   11.6700 N.ar  309  HIS309     -0.2268
    107  CD2       14.5600   26.7450   13.8210 C.ar  309  HIS309      0.1154
    108  CE1       16.0980   27.0330   12.2840 C.ar  309  HIS309      0.1986
    109  NE2       15.8910   26.9990   13.5890 N.ar  309  HIS309     -0.2212
    110  N          8.6520   30.5990   17.8110 N.3   329  GLU329     -0.1245
    111  CA         9.8230   30.0980   18.5150 C.3   329  GLU329      0.1567
    112  C         10.6480   31.2740   19.0230 C.2   329  GLU329      0.2260
    113  O         11.2630   31.9830   18.2350 O.2   329  GLU329     -0.2867
    114  CB        10.6880   29.2330   17.5920 C.3   329  GLU329      0.0388
    115  CG        11.9260   28.7050   18.3030 C.3   329  GLU329      0.1160
    116  CD        12.6650   27.6600   17.4910 C.2   329  GLU329      0.3649
    117  OE1       13.6060   27.0410   18.0460 O.co2 329  GLU329     -0.2457
    118  OE2       12.2900   27.4560   16.3100 O.co2 329  GLU329     -0.2457
    119  N         17.2490   31.5770   20.7020 N.3   332  LEU332     -0.1245
    120  CA        17.4570   30.6430   21.8100 C.3   332  LEU332      0.1561
    121  C         17.7790   31.3220   23.1400 C.2   332  LEU332      0.2260
    122  O         18.3760   32.4020   23.1800 O.2   332  LEU332     -0.2867
    123  CB        18.5630   29.6470   21.4650 C.3   332  LEU332      0.0270
    124  CG        18.2940   28.8420   20.1960 C.3   332  LEU332      0.0019
    125  CD1       19.5090   28.0280   19.8050 C.3   332  LEU332      0.0001
    126  CD2       17.0740   27.9480   20.3860 C.3   332  LEU332      0.0001
@<TRIPOS>BOND
     1    92    91    2
     2    83    82    2
     3    91    90    1
     4    82    81    1
     5    89    90    1
     6    80    81    1
     7    81    84    1
     8    90    93    1
     9    93    94    1
    10    84    85    1
    11    85    86    1
    12    94    95    1
    13    78    77   ar
    14   106   108   ar
    15   106   105   ar
    16   103   102    2
    17   104   105    1
    18   104   101    1
    19   100   101    1
    20   108   109   ar
    21    77    79   ar
    22    77    76    1
    23   105   107   ar
    24    86    88   ar
    25    86    87   ar
    26   102   101    1
    27    95    96    1
    28    76    75    1
    29    64    63    2
    30   109   107   ar
    31    96    97    2
    32    75    72    1
    33    99    97    1
    34    97    98    1
    35    65    66    1
    36    65    62    1
    37    63    62    1
    38     2     1    1
    39     2     3    1
    40    72    71    1
    41    72    73    1
    42    66    68   ar
    43    66    67   ar
    44    62    61    1
    45    68    70   ar
    46    73    74    2
    47     4     3    2
    48    67    69   ar
    49     3     5   am
    50    70    69   ar
    51   118   116   ar
    52    13    14   ar
    53    13    11   ar
    54     5     6    1
    55    14    12   ar
    56    11    10   ar
    57    60    58   ar
    58   116   117   ar
    59   116   115    1
    60    59    58   ar
    61   114   115    1
    62   114   111    1
    63   110   111    1
    64    58    57    1
    65     6     7    1
    66     6     9    1
    67   113   112    2
    68    12    10   ar
    69    34    33    1
    70    10     9    1
    71   111   112    1
    72     7    15   am
    73     7     8    2
    74    51    52    1
    75    51    50    1
    76    15    16    1
    77    44    42   ar
    78    44    43   ar
    79    57    54    1
    80    33    32    1
    81   125   124    1
    82    19    16    1
    83    42    40   ar
    84    54    55    1
    85    54    53    1
    86    16    17    1
    87   124   126    1
    88   124   123    1
    89    43    41   ar
    90    55    56    2
    91    49    50    1
    92    49    46    1
    93    32    31    1
    94    25    24    1
    95   119   120    1
    96    40    41   ar
    97    40    39    1
    98    47    46    1
    99    47    48    2
   100    46    45    1
   101   123   120    1
   102    17    18    2
   103   120   121    1
   104    31    30    1
   105    24    21    1
   106    39    36    1
   107    30    27    1
   108    36    35    1
   109    36    37    1
   110   121   122    2
   111    20    21    1
   112    21    22    1
   113    37    38    2
   114    27    28    1
   115    27    26    1
   116    29    28    2
   117    22    23    2
