@<TRIPOS>MOLECULE
tmp/4mmxA00.pdb
 74 72 0 0 0
SMALL
GASTEIGER

@<TRIPOS>ATOM
      1  N         12.4910   47.4490    2.3710 N.3    14  PRO14      -0.2102
      2  CA        13.4510   46.3490    2.2260 C.3    14  PRO14       0.1504
      3  C         13.1860   45.2400    3.2400 C.2    14  PRO14       0.2576
      4  O         12.8650   45.5370    4.3890 O.2    14  PRO14      -0.2718
      5  CB        14.8010   47.0230    2.4810 C.3    14  PRO14       0.0282
      6  CG        14.4750   48.2090    3.3250 C.3    14  PRO14       0.0208
      7  CD        13.1350   48.6860    2.8460 C.3    14  PRO14       0.0893
      8  N         13.3150   43.9860    2.8190 N.am   15  GLU15      -0.1966
      9  CA        13.0180   42.8560    3.6930 C.3    15  GLU15       0.1733
     10  C         14.0080   42.7650    4.8510 C.2    15  GLU15       0.2617
     11  O         15.1980   43.0380    4.6890 O.2    15  GLU15      -0.2715
     12  CB        13.0120   41.5460    2.9000 C.3    15  GLU15       0.0429
     13  CG        14.3120   41.2340    2.1740 C.3    15  GLU15       0.1163
     14  CD        14.2620   39.9090    1.4360 C.2    15  GLU15       0.3649
     15  OE1       13.3420   39.1090    1.7120 O.co2  15  GLU15      -0.2457
     16  OE2       15.1380   39.6670    0.5790 O.co2  15  GLU15      -0.2457
     17  N         13.5030   42.3880    6.0210 N.am   16  GLY16      -0.1940
     18  CA        14.3280   42.2530    7.2070 C.3    16  GLY16       0.2014
     19  C         14.4900   43.5550    7.9660 C.2    16  GLY16       0.2639
     20  O         15.1800   43.6070    8.9830 O.2    16  GLY16      -0.2714
     21  N         13.8540   44.6120    7.4690 N.am   17  SER17      -0.1949
     22  CA        13.9700   45.9330    8.0770 C.3    17  SER17       0.1924
     23  C         12.8340   46.2190    9.0510 C.2    17  SER17       0.2314
     24  O         12.7940   47.2840    9.6710 O.2    17  SER17      -0.2863
     25  CB        14.0000   47.0130    6.9940 C.3    17  SER17       0.2116
     26  OG        12.7950   47.0210    6.2490 O.3    17  SER17      -0.2180
     27  N         14.9770   48.0630   11.7480 N.3    42  LYS42      -0.1231
     28  CA        16.0840   47.1690   11.4150 C.3    42  LYS42       0.1693
     29  C         16.7420   47.4990   10.0740 C.2    42  LYS42       0.2592
     30  O         17.6420   46.7860    9.6290 O.2    42  LYS42      -0.2718
     31  CB        15.6120   45.7150   11.4250 C.3    42  LYS42       0.0285
     32  CG        15.0790   45.2590   12.7740 C.3    42  LYS42       0.0035
     33  CD        15.2930   43.7700   12.9870 C.3    42  LYS42       0.0206
     34  CE        16.7590   43.4480   13.2070 C.3    42  LYS42       0.1093
     35  NZ        16.9830   41.9940   13.4360 N.3    42  LYS42      -0.1314
     36  N         16.2870   48.5690    9.4300 N.am   43  ALA43      -0.1966
     37  CA        16.8170   48.9620    8.1260 C.3    43  ALA43       0.1728
     38  C         18.2700   49.4240    8.2040 C.2    43  ALA43       0.2616
     39  O         18.6900   50.0200    9.1960 O.2    43  ALA43      -0.2715
     40  CB        15.9540   50.0560    7.5170 C.3    43  ALA43       0.0334
     41  N         19.0320   49.1430    7.1500 N.am   44  ASN44      -0.1972
     42  CA        20.4170   49.5940    7.0560 C.3    44  ASN44       0.1688
     43  C         20.5140   51.0510    6.6190 C.2    44  ASN44       0.2292
     44  O         19.6760   51.5360    5.8600 O.2    44  ASN44      -0.2864
     45  CB        21.2080   48.7100    6.0900 C.3    44  ASN44       0.1181
     46  CG        21.8020   47.4960    6.7710 C.2    44  ASN44       0.2629
     47  OD1       22.6980   47.6200    7.6050 O.2    44  ASN44      -0.2716
     48  ND2       21.3130   46.3140    6.4170 N.am   44  ASN44      -0.0877
     49  N         25.4020   49.4010   11.5540 N.3    51  VAL51      -0.1231
     50  CA        24.6560   48.2840   10.9880 C.3    51  VAL51       0.1692
     51  C         23.2350   48.2300   11.5490 C.2    51  VAL51       0.2591
     52  O         23.0380   48.2380   12.7660 O.2    51  VAL51      -0.2718
     53  CB        25.3740   46.9400   11.2500 C.3    51  VAL51       0.0266
     54  CG1       25.8650   46.8610   12.6900 C.3    51  VAL51       0.0020
     55  CG2       24.4640   45.7660   10.9120 C.3    51  VAL51       0.0020
     56  N         22.2560   48.1860   10.6470 N.am   52  GLU52      -0.1979
     57  CA        20.8380   48.1470   11.0060 C.3    52  GLU52       0.1602
     58  C         20.4530   49.2750   11.9570 C.2    52  GLU52       0.2287
     59  O         19.7890   49.0480   12.9690 O.2    52  GLU52      -0.2864
     60  CB        20.4760   46.7970   11.6280 C.3    52  GLU52       0.0415
     61  CG        20.5420   45.6310   10.6570 C.3    52  GLU52       0.1163
     62  CD        19.9530   44.3600   11.2350 C.2    52  GLU52       0.3649
     63  OE1       19.7190   44.3170   12.4610 O.co2  52  GLU52      -0.2457
     64  OE2       19.7180   43.4060   10.4630 O.co2  52  GLU52      -0.2457
     65  N         22.0750   48.6830   15.5840 N.3    91  HIS91      -0.1241
     66  CA        20.8800   47.9810   16.0480 C.3    91  HIS91       0.1621
     67  C         20.1370   48.7840   17.1110 C.2    91  HIS91       0.2264
     68  O         19.6080   48.2230   18.0710 O.2    91  HIS91      -0.2867
     69  CB        21.2470   46.5970   16.5900 C.3    91  HIS91       0.0745
     70  CG        22.0560   45.7720   15.6380 C.ar   91  HIS91       0.0817
     71  ND1       21.4830   44.9490   14.6930 N.ar   91  HIS91      -0.2268
     72  CD2       23.3950   45.6450   15.4850 C.ar   91  HIS91       0.1154
     73  CE1       22.4340   44.3490   13.9990 C.ar   91  HIS91       0.1986
     74  NE2       23.6040   44.7540   14.4600 N.ar   91  HIS91      -0.2212
@<TRIPOS>BOND
     1    16    14   ar
     2    14    15   ar
     3    14    13    1
     4    13    12    1
     5     2     1    1
     6     2     5    1
     7     2     3    1
     8     1     7    1
     9     5     6    1
    10     8     3   am
    11     8     9    1
    12     7     6    1
    13    12     9    1
    14     3     4    2
    15     9    10    1
    16    11    10    2
    17    10    17   am
    18    44    43    2
    19    17    18    1
    20    45    46    1
    21    45    42    1
    22    26    25    1
    23    48    46   am
    24    43    42    1
    25    46    47    2
    26    25    22    1
    27    42    41    1
    28    41    38   am
    29    18    19    1
    30    21    19   am
    31    21    22    1
    32    40    37    1
    33    19    20    2
    34    22    23    1
    35    37    38    1
    36    37    36    1
    37    38    39    2
    38    23    24    2
    39    36    29   am
    40    30    29    2
    41    29    28    1
    42    64    62   ar
    43    56    57    1
    44    56    51   am
    45    61    62    1
    46    61    60    1
    47    55    53    1
    48    50    53    1
    49    50    51    1
    50    50    49    1
    51    57    60    1
    52    57    58    1
    53    62    63   ar
    54    53    54    1
    55    28    31    1
    56    28    27    1
    57    31    32    1
    58    51    52    2
    59    58    59    2
    60    32    33    1
    61    33    34    1
    62    34    35    1
    63    73    74   ar
    64    73    71   ar
    65    74    72   ar
    66    71    70   ar
    67    72    70   ar
    68    65    66    1
    69    70    69    1
    70    66    69    1
    71    66    67    1
    72    67    68    2
