@<TRIPOS>MOLECULE
tmp/4mmzA07.pdb
 85 83 0 0 0
SMALL
GASTEIGER

@<TRIPOS>ATOM
      1  N        -37.1640   40.8080   42.0690 N.3   621  ASP621     -0.1225
      2  CA       -36.8040   39.6220   41.3020 C.3   621  ASP621      0.1805
      3  C        -37.6530   39.4660   40.0480 C.2   621  ASP621      0.2598
      4  O        -38.7740   39.9690   39.9750 O.2   621  ASP621     -0.2718
      5  CB       -36.9360   38.3660   42.1690 C.3   621  ASP621      0.1424
      6  CG       -38.3810   38.0290   42.4910 C.2   621  ASP621      0.3668
      7  OD1      -39.2010   38.9640   42.6120 O.co2 621  ASP621     -0.2456
      8  OD2      -38.6990   36.8290   42.6240 O.co2 621  ASP621     -0.2456
      9  N        -37.1060   38.7670   39.0600 N.am  622  ASP622     -0.1960
     10  CA       -37.8910   38.3600   37.9070 C.3   622  ASP622      0.1840
     11  C        -38.8950   37.3040   38.3530 C.2   622  ASP622      0.2622
     12  O        -38.7120   36.6670   39.3910 O.2   622  ASP622     -0.2715
     13  CB       -36.9960   37.8330   36.7820 C.3   622  ASP622      0.1450
     14  CG       -35.9290   36.8730   37.2770 C.2   622  ASP622      0.3671
     15  OD1      -36.2110   36.0720   38.1930 O.co2 622  ASP622     -0.2456
     16  OD2      -34.8000   36.9190   36.7440 O.co2 622  ASP622     -0.2456
     17  N        -39.9410   37.1140   37.5600 N.am  623  ASN623     -0.1959
     18  CA       -41.0590   36.2610   37.9410 C.3   623  ASN623      0.1804
     19  C        -42.0500   36.1440   36.7970 C.2   623  ASN623      0.2463
     20  O        -42.2530   37.1020   36.0520 O.2   623  ASN623     -0.2730
     21  CB       -41.7620   36.8110   39.1880 C.3   623  ASN623      0.1195
     22  CG       -41.9550   38.3170   39.1340 C.2   623  ASN623      0.2630
     23  OD1      -41.6150   38.9620   38.1420 O.2   623  ASN623     -0.2716
     24  ND2      -42.5030   38.8840   40.2040 N.am  623  ASN623     -0.0877
     25  N        -42.6690   34.9640   36.6480 N.am  624  PRO624     -0.2727
     26  CA       -43.5740   34.7640   35.5140 C.3   624  PRO624      0.1402
     27  C        -44.7610   35.7170   35.5460 C.2   624  PRO624      0.2269
     28  O        -45.4700   35.8070   36.5480 O.2   624  PRO624     -0.2865
     29  CB       -44.0350   33.3120   35.6830 C.3   624  PRO624      0.0296
     30  CG       -43.8440   33.0200   37.1360 C.3   624  PRO624      0.0237
     31  CD       -42.6210   33.7880   37.5340 C.3   624  PRO624      0.0939
     32  N        -40.9530   37.4480   26.5760 N.3   654  ILE654     -0.1245
     33  CA       -40.4410   36.1760   26.0670 C.3   654  ILE654      0.1561
     34  C        -41.5530   35.2380   25.5830 C.2   654  ILE654      0.2260
     35  O        -42.6010   35.1140   26.2190 O.2   654  ILE654     -0.2867
     36  CB       -39.5950   35.4250   27.1340 C.3   654  ILE654      0.0252
     37  CG1      -40.4280   35.0980   28.3780 C.3   654  ILE654      0.0019
     38  CG2      -38.3560   36.2210   27.5120 C.3   654  ILE654      0.0019
     39  CD1      -40.7760   33.6270   28.5060 C.3   654  ILE654      0.0001
     40  N        -45.7880   35.6300   27.8120 N.3   698  ARG698     -0.1231
     41  CA       -45.0270   35.5560   29.0490 C.3   698  ARG698      0.1694
     42  C        -44.0680   36.7320   29.1880 C.2   698  ARG698      0.2592
     43  O        -43.4550   37.1710   28.2160 O.2   698  ARG698     -0.2718
     44  CB       -44.2640   34.2330   29.1230 C.3   698  ARG698      0.0321
     45  CG       -45.1590   33.0100   29.0150 C.3   698  ARG698      0.0489
     46  CD       -44.4280   31.7410   29.4130 C.3   698  ARG698      0.2205
     47  NE       -45.3160   30.5830   29.3980 N.pl3 698  ARG698     -0.0865
     48  CZ       -46.1360   30.2580   30.3920 C.cat 698  ARG698      0.5346
     49  NH1      -46.1860   31.0080   31.4850 N.pl3 698  ARG698      0.1354
     50  NH2      -46.9100   29.1860   30.2920 N.pl3 698  ARG698      0.1354
     51  N        -43.9560   37.2430   30.4080 N.am  699  PHE699     -0.1962
     52  CA       -43.0900   38.3760   30.6960 C.3   699  PHE699      0.1771
     53  C        -42.3340   38.1650   32.0010 C.2   699  PHE699      0.2620
     54  O        -42.8130   37.4740   32.9010 O.2   699  PHE699     -0.2715
     55  CB       -43.9020   39.6700   30.7770 C.3   699  PHE699      0.0574
     56  CG       -44.6010   40.0370   29.5010 C.ar  699  PHE699     -0.0200
     57  CD1      -45.8270   39.4780   29.1810 C.ar  699  PHE699     -0.0042
     58  CD2      -44.0430   40.9570   28.6300 C.ar  699  PHE699     -0.0042
     59  CE1      -46.4720   39.8180   28.0120 C.ar  699  PHE699     -0.0003
     60  CE2      -44.6880   41.3030   27.4600 C.ar  699  PHE699     -0.0003
     61  CZ       -45.9020   40.7310   27.1500 C.ar  699  PHE699     -0.0000
     62  N        -41.1520   38.7620   32.1000 N.am  700  SER700     -0.1950
     63  CA       -40.4080   38.7800   33.3530 C.3   700  SER700      0.1924
     64  C        -40.0180   40.2140   33.6870 C.2   700  SER700      0.2314
     65  O        -39.2350   40.8360   32.9710 O.2   700  SER700     -0.2863
     66  CB       -39.1670   37.8890   33.2710 C.3   700  SER700      0.2116
     67  OG       -38.2210   38.4090   32.3530 O.3   700  SER700     -0.2180
     68  N        -37.3870   38.5640   47.8630 N.3   787  PRO787     -0.2116
     69  CA       -37.0110   39.4920   46.7880 C.3   787  PRO787      0.1372
     70  C        -36.9500   40.9470   47.2290 C.2   787  PRO787      0.2244
     71  O        -35.9840   41.6430   46.9170 O.2   787  PRO787     -0.2868
     72  CB       -38.1200   39.2910   45.7470 C.3   787  PRO787      0.0268
     73  CG       -39.2550   38.6800   46.5010 C.3   787  PRO787      0.0207
     74  CD       -38.6140   37.8200   47.5380 C.3   787  PRO787      0.0892
     75  N        -31.3970   41.4020   49.0290 N.3   857  ARG857     -0.1245
     76  CA       -31.4160   39.9500   48.8780 C.3   857  ARG857      0.1563
     77  C        -30.1310   39.2730   49.3550 C.2   857  ARG857      0.2260
     78  O        -30.1230   38.5620   50.3580 O.2   857  ARG857     -0.2867
     79  CB       -31.6700   39.5840   47.4160 C.3   857  ARG857      0.0307
     80  CG       -32.8460   40.3180   46.7900 C.3   857  ARG857      0.0489
     81  CD       -33.0170   39.9750   45.3140 C.3   857  ARG857      0.2205
     82  NE       -33.5340   38.6250   45.1150 N.pl3 857  ARG857     -0.0865
     83  CZ       -32.7840   37.5740   44.8000 C.cat 857  ARG857      0.5346
     84  NH1      -31.4750   37.7140   44.6400 N.pl3 857  ARG857      0.1354
     85  NH2      -33.3440   36.3830   44.6410 N.pl3 857  ARG857      0.1354
@<TRIPOS>BOND
     1    34    33    1
     2    34    35    2
     3    33    32    1
     4    33    36    1
     5    36    38    1
     6    36    37    1
     7    61    60   ar
     8    61    59   ar
     9    60    58   ar
    10    40    41    1
    11    59    57   ar
    12    43    42    2
    13    37    39    1
    14    58    56   ar
    15    45    44    1
    16    45    46    1
    17    41    44    1
    18    41    42    1
    19    57    56   ar
    20    42    51   am
    21    47    46    1
    22    47    48    2
    23    56    55    1
    24    50    48    1
    25    48    49    1
    26    51    52    1
    27    52    55    1
    28    52    53    1
    29    53    62   am
    30    53    54    2
    31    62    63    1
    32    67    66    1
    33    65    64    2
    34    66    63    1
    35    63    64    1
    36    26    27    1
    37    26    29    1
    38    26    25    1
    39    27    28    2
    40    29    30    1
    41    20    19    2
    42    25    19   am
    43    25    31    1
    44    16    14   ar
    45    13    14    1
    46    13    10    1
    47    19    18    1
    48    30    31    1
    49    14    15   ar
    50    17    18    1
    51    17    11   am
    52    10    11    1
    53    10     9    1
    54    18    21    1
    55    23    22    2
    56    11    12    2
    57     9     3   am
    58    22    21    1
    59    22    24   am
    60     4     3    2
    61     3     2    1
    62     2     1    1
    63     2     5    1
    64     5     6    1
    65     6     7   ar
    66     6     8   ar
    67    84    83    1
    68    85    83    1
    69    83    82    2
    70    82    81    1
    71    81    80    1
    72    72    73    1
    73    72    69    1
    74    73    74    1
    75    69    70    1
    76    69    68    1
    77    80    79    1
    78    71    70    2
    79    79    76    1
    80    74    68    1
    81    76    75    1
    82    76    77    1
    83    77    78    2
