@<TRIPOS>MOLECULE
tmp/4mmzA02.pdb
 126 122 0 0 0
SMALL
GASTEIGER

@<TRIPOS>ATOM
      1  N         10.5030   49.7410   37.1310 N.3   180  GLN180     -0.1245
      2  CA         9.2260   50.2460   37.6110 C.3   180  GLN180      0.1566
      3  C          8.5270   50.9670   36.4690 C.2   180  GLN180      0.2260
      4  O          7.3020   50.9350   36.3510 O.2   180  GLN180     -0.2867
      5  CB         9.4120   51.1850   38.8030 C.3   180  GLN180      0.0367
      6  CG         9.8280   50.4860   40.0790 C.3   180  GLN180      0.0905
      7  CD        10.0340   51.4460   41.2320 C.2   180  GLN180      0.2608
      8  OE1        9.5960   52.5960   41.1860 O.2   180  GLN180     -0.2717
      9  NE2       10.7050   50.9760   42.2770 N.am  180  GLN180     -0.0878
     10  N          8.1580   59.7170   39.4430 N.3   211  ARG211     -0.1231
     11  CA         9.3520   59.5680   40.2640 C.3   211  ARG211      0.1694
     12  C          9.4640   58.1410   40.7880 C.2   211  ARG211      0.2593
     13  O          8.4700   57.4180   40.8480 O.2   211  ARG211     -0.2718
     14  CB         9.3290   60.5660   41.4270 C.3   211  ARG211      0.0321
     15  CG        10.6930   60.8590   42.0340 C.3   211  ARG211      0.0489
     16  CD        10.5730   61.7370   43.2720 C.3   211  ARG211      0.2205
     17  NE        11.8790   62.1620   43.7710 N.pl3 211  ARG211     -0.0865
     18  CZ        12.0640   62.8530   44.8920 C.cat 211  ARG211      0.5346
     19  NH1       11.0260   63.1970   45.6420 N.pl3 211  ARG211      0.1354
     20  NH2       13.2890   63.1960   45.2660 N.pl3 211  ARG211      0.1354
     21  N         10.6800   57.7420   41.1540 N.am  212  THR212     -0.1939
     22  CA        10.9390   56.3990   41.6610 C.3   212  THR212      0.2028
     23  C         10.0670   56.0750   42.8760 C.2   212  THR212      0.2642
     24  O          9.7120   56.9580   43.6570 O.2   212  THR212     -0.2714
     25  CB        12.4270   56.2170   42.0340 C.3   212  THR212      0.1808
     26  OG1       12.6680   54.8580   42.4220 O.3   212  THR212     -0.2208
     27  CG2       12.8150   57.1400   43.1760 C.3   212  THR212      0.0379
     28  N          9.7130   54.8010   43.0110 N.am  213  ALA213     -0.1963
     29  CA         8.8200   54.3490   44.0730 C.3   213  ALA213      0.1728
     30  C          9.4660   53.2360   44.8840 C.2   213  ALA213      0.2616
     31  O         10.6440   52.9320   44.7020 O.2   213  ALA213     -0.2715
     32  CB         7.4970   53.8790   43.4920 C.3   213  ALA213      0.0334
     33  N          8.6950   52.6390   45.7880 N.am  214  GLN214     -0.1977
     34  CA         9.1870   51.5340   46.6030 C.3   214  GLN214      0.1601
     35  C          9.5690   50.3490   45.7190 C.2   214  GLN214      0.2287
     36  O          9.0260   50.1760   44.6260 O.2   214  GLN214     -0.2864
     37  CB         8.1400   51.1080   47.6360 C.3   214  GLN214      0.0394
     38  CG         7.8080   52.1680   48.6800 C.3   214  GLN214      0.0908
     39  CD         6.7890   53.1830   48.1940 C.2   214  GLN214      0.2608
     40  OE1        6.4110   53.1920   47.0210 O.2   214  GLN214     -0.2717
     41  NE2        6.3350   54.0430   49.0990 N.am  214  GLN214     -0.0878
     42  N          7.3800   47.8500   43.6330 N.3   217  PHE217     -0.1241
     43  CA         6.8370   48.1930   42.3230 C.3   217  PHE217      0.1605
     44  C          7.8040   47.8500   41.1930 C.2   217  PHE217      0.2264
     45  O          7.5450   48.1720   40.0330 O.2   217  PHE217     -0.2867
     46  CB         6.4810   49.6780   42.2620 C.3   217  PHE217      0.0534
     47  CG         5.3320   50.0660   43.1480 C.ar  217  PHE217     -0.0203
     48  CD1        4.0240   49.9070   42.7180 C.ar  217  PHE217     -0.0042
     49  CD2        5.5580   50.6020   44.4050 C.ar  217  PHE217     -0.0042
     50  CE1        2.9620   50.2680   43.5280 C.ar  217  PHE217     -0.0003
     51  CE2        4.5010   50.9640   45.2200 C.ar  217  PHE217     -0.0003
     52  CZ         3.2010   50.7970   44.7800 C.ar  217  PHE217     -0.0000
     53  N          5.9720   50.3390   33.6410 N.3   222  LEU222     -0.1245
     54  CA         5.1970   51.5390   33.3280 C.3   222  LEU222      0.1561
     55  C          5.7540   52.2200   32.0800 C.2   222  LEU222      0.2260
     56  O          6.9670   52.2720   31.8870 O.2   222  LEU222     -0.2867
     57  CB         5.2040   52.5170   34.5070 C.3   222  LEU222      0.0270
     58  CG         4.7640   53.9630   34.2390 C.3   222  LEU222      0.0019
     59  CD1        3.3000   54.0420   33.8270 C.3   222  LEU222      0.0001
     60  CD2        5.0230   54.8420   35.4510 C.3   222  LEU222      0.0001
     61  N         -1.8880   46.8470   35.0510 N.3   252  MET252     -0.1245
     62  CA        -2.5510   48.0570   35.5110 C.3   252  MET252      0.1570
     63  C         -2.4830   49.1510   34.4620 C.2   252  MET252      0.2261
     64  O         -1.6030   49.1490   33.6010 O.2   252  MET252     -0.2867
     65  CB        -1.9290   48.5630   36.8160 C.3   252  MET252      0.0387
     66  CG        -2.2230   47.7100   38.0360 C.3   252  MET252      0.0595
     67  SD        -1.9090   48.5870   39.5770 S.3   252  MET252     -0.1393
     68  CE        -3.2540   49.7700   39.5690 C.3   252  MET252      0.0692
     69  N         -2.4380   53.3510   34.5580 N.3   254  TYR254     -0.1241
     70  CA        -2.4010   54.5690   35.3480 C.3   254  TYR254      0.1605
     71  C         -2.9050   55.7570   34.5370 C.2   254  TYR254      0.2264
     72  O         -2.6220   55.8680   33.3430 O.2   254  TYR254     -0.2867
     73  CB        -0.9800   54.8420   35.8440 C.3   254  TYR254      0.0534
     74  CG        -0.4190   53.7840   36.7680 C.ar  254  TYR254     -0.0201
     75  CD1       -1.2560   52.9300   37.4730 C.ar  254  TYR254     -0.0009
     76  CD2        0.9510   53.6460   36.9380 C.ar  254  TYR254     -0.0009
     77  CE1       -0.7430   51.9650   38.3200 C.ar  254  TYR254      0.0417
     78  CE2        1.4730   52.6850   37.7820 C.ar  254  TYR254      0.0417
     79  CZ         0.6220   51.8470   38.4700 C.ar  254  TYR254      0.1957
     80  OH         1.1430   50.8890   39.3100 O.3   254  TYR254     -0.2866
     81  N         -2.5490   59.7920   34.8050 N.3   256  TYR256     -0.1241
     82  CA        -1.9560   60.9400   35.4730 C.3   256  TYR256      0.1605
     83  C         -2.5480   62.2350   34.9460 C.2   256  TYR256      0.2264
     84  O         -2.8860   62.3380   33.7650 O.2   256  TYR256     -0.2867
     85  CB        -0.4390   60.9590   35.2900 C.3   256  TYR256      0.0534
     86  CG         0.2960   59.8490   36.0050 C.ar  256  TYR256     -0.0201
     87  CD1        0.7340   60.0120   37.3130 C.ar  256  TYR256     -0.0009
     88  CD2        0.5650   58.6430   35.3680 C.ar  256  TYR256     -0.0009
     89  CE1        1.4140   59.0030   37.9670 C.ar  256  TYR256      0.0417
     90  CE2        1.2450   57.6290   36.0130 C.ar  256  TYR256      0.0417
     91  CZ         1.6670   57.8130   37.3120 C.ar  256  TYR256      0.1957
     92  OH         2.3430   56.8050   37.9600 O.3   256  TYR256     -0.2866
     93  N         -1.6140   61.4920   40.2310 N.3   263  SER263     -0.1202
     94  CA        -2.4290   60.3560   39.8130 C.3   263  SER263      0.2020
     95  C         -3.9120   60.7150   39.8490 C.2   263  SER263      0.2619
     96  O         -4.3570   61.4490   40.7320 O.2   263  SER263     -0.2717
     97  CB        -2.1570   59.1390   40.7010 C.3   263  SER263      0.2103
     98  OG        -2.8790   58.0050   40.2520 O.3   263  SER263     -0.2182
     99  N         -4.6710   60.2020   38.8840 N.am  264  LEU264     -0.1965
    100  CA        -6.1040   60.4730   38.8160 C.3   264  LEU264      0.1728
    101  C         -6.9300   59.2100   39.0140 C.2   264  LEU264      0.2616
    102  O         -7.5960   59.0440   40.0370 O.2   264  LEU264     -0.2715
    103  CB        -6.4680   61.1190   37.4790 C.3   264  LEU264      0.0311
    104  CG        -6.0050   62.5600   37.2690 C.3   264  LEU264      0.0022
    105  CD1       -6.5500   63.1070   35.9590 C.3   264  LEU264      0.0001
    106  CD2       -6.4310   63.4320   38.4390 C.3   264  LEU264      0.0001
    107  N         -6.8840   58.3230   38.0260 N.am  265  TYR265     -0.1960
    108  CA        -7.6630   57.0950   38.0700 C.3   265  TYR265      0.1771
    109  C         -6.7770   55.8800   37.8490 C.2   265  TYR265      0.2619
    110  O         -5.6320   56.0030   37.4100 O.2   265  TYR265     -0.2715
    111  CB        -8.7790   57.1250   37.0260 C.3   265  TYR265      0.0574
    112  CG        -9.8050   58.2150   37.2420 C.ar  265  TYR265     -0.0198
    113  CD1      -10.8730   58.0290   38.1110 C.ar  265  TYR265     -0.0009
    114  CD2       -9.7110   59.4270   36.5710 C.ar  265  TYR265     -0.0009
    115  CE1      -11.8150   59.0220   38.3090 C.ar  265  TYR265      0.0417
    116  CE2      -10.6480   60.4260   36.7620 C.ar  265  TYR265      0.0417
    117  CZ       -11.6970   60.2180   37.6310 C.ar  265  TYR265      0.1957
    118  OH       -12.6310   61.2100   37.8230 O.3   265  TYR265     -0.2866
    119  N         -7.3160   54.7080   38.1650 N.am  266  ASN266     -0.1972
    120  CA        -6.5970   53.4550   37.9840 C.3   266  ASN266      0.1688
    121  C         -7.4510   52.3710   37.3500 C.2   266  ASN266      0.2292
    122  O         -8.6770   52.3760   37.4660 O.2   266  ASN266     -0.2864
    123  CB        -6.0620   52.9470   39.3210 C.3   266  ASN266      0.1181
    124  CG        -4.7130   53.5270   39.6660 C.2   266  ASN266      0.2629
    125  OD1       -3.9360   53.8940   38.7870 O.2   266  ASN266     -0.2716
    126  ND2       -4.4250   53.6110   40.9550 N.am  266  ASN266     -0.0877
@<TRIPOS>BOND
     1    56    55    2
     2    55    54    1
     3    54    53    1
     4    54    57    1
     5    72    71    2
     6    64    63    2
     7    84    83    2
     8    59    58    1
     9    58    57    1
    10    58    60    1
    11    63    62    1
    12    71    70    1
    13    69    70    1
    14    81    82    1
    15    83    82    1
    16    61    62    1
    17    85    82    1
    18    85    86    1
    19    70    73    1
    20    88    86   ar
    21    88    90   ar
    22    62    65    1
    23    73    74    1
    24   105   104    1
    25    86    87   ar
    26    90    91   ar
    27     4     3    2
    28     3     2    1
    29   114   116   ar
    30   114   112   ar
    31   116   117   ar
    32    74    76   ar
    33    74    75   ar
    34    65    66    1
    35    76    78   ar
    36   111   112    1
    37   111   108    1
    38     1     2    1
    39   112   113   ar
    40   104   103    1
    41   104   106    1
    42    91    92    1
    43    91    89   ar
    44    87    89   ar
    45   121   122    2
    46   121   120    1
    47   110   109    2
    48    75    77   ar
    49   103   100    1
    50     2     5    1
    51   117   118    1
    52   117   115   ar
    53    78    79   ar
    54   109   108    1
    55   109   119   am
    56   120   119    1
    57   120   123    1
    58   107   108    1
    59   107   101   am
    60    66    67    1
    61   113   115   ar
    62    77    79   ar
    63    79    80    1
    64   125   124    2
    65     5     6    1
    66   100    99    1
    67   100   101    1
    68    99    95   am
    69   101   102    2
    70   123   124    1
    71    10    11    1
    72    68    67    1
    73   124   126   am
    74    94    95    1
    75    94    93    1
    76    94    97    1
    77    95    96    2
    78    45    44    2
    79     6     7    1
    80    98    97    1
    81    11    12    1
    82    11    14    1
    83    12    13    2
    84    12    21   am
    85    21    22    1
    86     8     7    2
    87    44    43    1
    88     7     9   am
    89    14    15    1
    90    22    25    1
    91    22    23    1
    92    15    16    1
    93    25    26    1
    94    25    27    1
    95    46    43    1
    96    46    47    1
    97    43    42    1
    98    48    47   ar
    99    48    50   ar
   100    23    28   am
   101    23    24    2
   102    28    29    1
   103    47    49   ar
   104    16    17    1
   105    32    29    1
   106    50    52   ar
   107    17    18    2
   108    29    30    1
   109    49    51   ar
   110    36    35    2
   111    31    30    2
   112    52    51   ar
   113    30    33   am
   114    18    20    1
   115    18    19    1
   116    35    34    1
   117    33    34    1
   118    34    37    1
   119    40    39    2
   120    37    38    1
   121    39    38    1
   122    39    41   am
