@<TRIPOS>MOLECULE
tmp/4mn7B00.pdb
 144 140 0 0 0
SMALL
GASTEIGER

@<TRIPOS>ATOM
      1  N        -23.9560   27.4230    1.4410 N.3    27  TRP27      -0.1241
      2  CA       -24.8970   27.5830    2.5280 C.3    27  TRP27       0.1605
      3  C        -26.2390   26.9830    2.0840 C.2    27  TRP27       0.2264
      4  O        -26.6670   27.2420    0.9840 O.2    27  TRP27      -0.2867
      5  CB       -25.0600   29.0510    2.8170 C.3    27  TRP27       0.0550
      6  CG       -25.7710   29.3540    4.0940 C.ar   27  TRP27       0.0003
      7  CD1      -25.1890   29.6240    5.3160 C.ar   27  TRP27       0.0946
      8  CD2      -27.1650   29.5320    4.2730 C.ar   27  TRP27       0.0152
      9  NE1      -26.1550   29.8970    6.2480 N.ar   27  TRP27      -0.2442
     10  CE2      -27.3830   29.8430    5.6420 C.ar   27  TRP27       0.0810
     11  CE3      -28.2570   29.3980    3.4480 C.ar   27  TRP27       0.0012
     12  CZ2      -28.6450   30.0310    6.1740 C.ar   27  TRP27       0.0191
     13  CZ3      -29.5050   29.5810    3.9830 C.ar   27  TRP27       0.0001
     14  CH2      -29.6950   29.9070    5.3410 C.ar   27  TRP27       0.0015
     15  N        -36.2590   27.7560    5.1180 N.3    31  TYR31      -0.1241
     16  CA       -37.1310   28.6700    5.7190 C.3    31  TYR31       0.1605
     17  C        -38.5770   28.2060    5.6180 C.2    31  TYR31       0.2264
     18  O        -39.0290   27.7320    4.5680 O.2    31  TYR31      -0.2867
     19  CB       -37.0130   30.0420    5.0240 C.3    31  TYR31       0.0534
     20  CG       -35.7580   30.8180    5.3030 C.ar   31  TYR31      -0.0201
     21  CD1      -35.6680   31.6780    6.3920 C.ar   31  TYR31      -0.0009
     22  CD2      -34.6940   30.7450    4.4520 C.ar   31  TYR31      -0.0009
     23  CE1      -34.4880   32.3620    6.6680 C.ar   31  TYR31       0.0417
     24  CE2      -33.5390   31.4580    4.6930 C.ar   31  TYR31       0.0417
     25  CZ       -33.4510   32.2880    5.7900 C.ar   31  TYR31       0.1957
     26  OH       -32.2830   32.9810    5.9970 O.3    31  TYR31      -0.2866
     27  N        -26.2170   33.1120    9.6990 N.3    48  THR48      -0.1218
     28  CA       -26.8150   34.2530    9.0600 C.3    48  THR48       0.1862
     29  C        -27.5110   35.1370   10.1040 C.2    48  THR48       0.2287
     30  O        -28.1130   34.6460   11.0650 O.2    48  THR48      -0.2866
     31  CB       -27.7770   33.8680    7.9020 C.3    48  THR48       0.1770
     32  OG1      -28.1350   35.0460    7.1390 O.3    48  THR48      -0.2211
     33  CG2      -29.0350   33.2260    8.4460 C.3    48  THR48       0.0375
     34  N        -29.9880   36.8440    9.1120 N.3    50  HIS50      -0.1241
     35  CA       -31.3980   36.7940    8.6760 C.3    50  HIS50       0.1621
     36  C        -32.1630   35.4900    9.0240 C.2    50  HIS50       0.2264
     37  O        -32.4740   34.6880    8.1370 O.2    50  HIS50      -0.2867
     38  CB       -31.4250   37.0580    7.1950 C.3    50  HIS50       0.0745
     39  CG       -30.7480   38.3170    6.8300 C.ar   50  HIS50       0.0817
     40  ND1      -29.6670   38.3560    5.9810 N.ar   50  HIS50      -0.2268
     41  CD2      -30.9670   39.5920    7.2310 C.ar   50  HIS50       0.1154
     42  CE1      -29.2620   39.6070    5.8510 C.ar   50  HIS50       0.1986
     43  NE2      -30.0290   40.3740    6.6060 N.ar   50  HIS50      -0.2212
     44  N        -37.4610   36.5420    8.1880 N.3    53  ILE53      -0.1245
     45  CA       -37.5200   37.4490    7.0640 C.3    53  ILE53       0.1561
     46  C        -38.9510   37.9190    6.8690 C.2    53  ILE53       0.2260
     47  O        -39.8550   37.0850    6.6420 O.2    53  ILE53      -0.2867
     48  CB       -36.9680   36.7660    5.7910 C.3    53  ILE53       0.0252
     49  CG1      -35.4980   36.4200    6.0320 C.3    53  ILE53       0.0019
     50  CG2      -37.1710   37.6520    4.5720 C.3    53  ILE53       0.0019
     51  CD1      -34.8570   35.6280    4.9370 C.3    53  ILE53       0.0001
     52  N        -38.9400   41.3900    1.2690 N.3    57  ASP57      -0.1225
     53  CA       -37.4520   41.3190    1.3200 C.3    57  ASP57       0.1805
     54  C        -36.8330   40.1020    0.6270 C.2    57  ASP57       0.2598
     55  O        -36.7250   38.9940    1.2260 O.2    57  ASP57      -0.2718
     56  CB       -36.9440   41.3230    2.7540 C.3    57  ASP57       0.1424
     57  CG       -37.2370   42.6160    3.4640 C.2    57  ASP57       0.3668
     58  OD1      -37.3350   43.6630    2.7830 O.co2  57  ASP57      -0.2456
     59  OD2      -37.3760   42.5820    4.7030 O.co2  57  ASP57      -0.2456
     60  N        -36.4650   40.3440   -0.6460 N.am   58  GLY58      -0.1942
     61  CA       -35.4920   39.5270   -1.3640 C.3    58  GLY58       0.2014
     62  C        -35.9670   38.3320   -2.1590 C.2    58  GLY58       0.2639
     63  O        -37.1820   38.1110   -2.3770 O.2    58  GLY58      -0.2714
     64  N        -34.9680   37.6110   -2.6570 N.am   59  LEU59      -0.1963
     65  CA       -35.1440   36.3570   -3.3540 C.3    59  LEU59       0.1728
     66  C        -36.0030   35.4180   -2.4800 C.2    59  LEU59       0.2616
     67  O        -36.9180   34.7800   -2.9960 O.2    59  LEU59      -0.2715
     68  CB       -33.7970   35.7420   -3.6340 C.3    59  LEU59       0.0311
     69  CG       -32.7820   36.6020   -4.3920 C.3    59  LEU59       0.0022
     70  CD1      -31.5500   35.7900   -4.7240 C.3    59  LEU59       0.0001
     71  CD2      -33.4010   37.1250   -5.6820 C.3    59  LEU59       0.0001
     72  N        -35.7670   35.4170   -1.1660 N.am   60  CYS60      -0.1968
     73  CA       -36.5220   34.5240   -0.2700 C.3    60  CYS60       0.1712
     74  C        -37.9970   34.8370   -0.3170 C.2    60  CYS60       0.2296
     75  O        -38.8190   33.9460   -0.4610 O.2    60  CYS60      -0.2864
     76  CB       -36.0140   34.6010    1.1320 C.3    60  CYS60       0.0983
     77  SG       -34.3700   33.8800    1.3230 S.3    60  CYS60      -0.0798
     78  N        -30.9180   43.2950   -5.4660 N.3    81  TYR81      -0.1227
     79  CA       -30.7030   42.5650   -4.2140 C.3    81  TYR81       0.1736
     80  C        -29.2500   42.3490   -3.6310 C.2    81  TYR81       0.2595
     81  O        -28.2580   42.3430   -4.3640 O.2    81  TYR81      -0.2718
     82  CB       -31.5630   41.2650   -4.1320 C.3    81  TYR81       0.0548
     83  CG       -31.7710   41.0310   -2.6770 C.ar   81  TYR81      -0.0200
     84  CD1      -32.3620   42.0370   -1.8740 C.ar   81  TYR81      -0.0009
     85  CD2      -31.2320   39.9330   -2.0530 C.ar   81  TYR81      -0.0009
     86  CE1      -32.4690   41.9030   -0.5020 C.ar   81  TYR81       0.0417
     87  CE2      -31.3390   39.7920   -0.6770 C.ar   81  TYR81       0.0417
     88  CZ       -31.9540   40.7700    0.1080 C.ar   81  TYR81       0.1957
     89  OH       -32.0500   40.5820    1.4890 O.3    81  TYR81      -0.2866
     90  N        -29.1820   42.2870   -2.2830 N.am   82  LEU82      -0.1966
     91  CA       -27.9890   41.8920   -1.4740 C.3    82  LEU82       0.1728
     92  C        -28.1110   40.4810   -0.9120 C.2    82  LEU82       0.2616
     93  O        -29.0500   40.2050   -0.1600 O.2    82  LEU82      -0.2715
     94  CB       -27.8350   42.8010   -0.2250 C.3    82  LEU82       0.0311
     95  CG       -27.3550   44.2430   -0.3630 C.3    82  LEU82       0.0022
     96  CD1      -27.5080   44.9800    0.9610 C.3    82  LEU82       0.0001
     97  CD2      -25.9140   44.2790   -0.8660 C.3    82  LEU82       0.0001
     98  N        -27.1540   39.6120   -1.2030 N.am   83  ALA83      -0.1963
     99  CA       -27.0260   38.3790   -0.4190 C.3    83  ALA83       0.1728
    100  C        -26.8320   38.6850    1.1220 C.2    83  ALA83       0.2617
    101  O        -26.7340   39.8660    1.5340 O.2    83  ALA83      -0.2715
    102  CB       -25.8720   37.5540   -0.9630 C.3    83  ALA83       0.0334
    103  N        -26.7710   37.6170    1.9400 N.am   84  SER84      -0.1936
    104  CA       -26.5350   37.7000    3.3980 C.3    84  SER84       0.2055
    105  C        -25.0580   37.6250    3.7400 C.2    84  SER84       0.2643
    106  O        -24.7100   37.8490    4.8790 O.2    84  SER84      -0.2714
    107  CB       -27.2080   36.5100    4.1720 C.3    84  SER84       0.2130
    108  OG       -28.5560   36.1720    3.7690 O.3    84  SER84      -0.2179
    109  N        -24.2240   37.1940    2.7810 N.am   85  PHE85      -0.1973
    110  CA       -22.8060   36.9990    2.9590 C.3    85  PHE85       0.1639
    111  C        -22.0450   37.6300    1.8060 C.2    85  PHE85       0.2290
    112  O        -22.4290   37.4480    0.6300 O.2    85  PHE85      -0.2864
    113  CB       -22.4410   35.4960    2.9210 C.3    85  PHE85       0.0560
    114  CG       -23.3330   34.6490    3.7560 C.ar   85  PHE85      -0.0200
    115  CD1      -23.2920   34.7350    5.1170 C.ar   85  PHE85      -0.0042
    116  CD2      -24.2210   33.7770    3.1760 C.ar   85  PHE85      -0.0042
    117  CE1      -24.1130   33.9570    5.9080 C.ar   85  PHE85      -0.0003
    118  CE2      -25.0570   32.9930    3.9530 C.ar   85  PHE85      -0.0003
    119  CZ       -25.0010   33.0770    5.3310 C.ar   85  PHE85      -0.0000
    120  N        -27.3990   32.5700   -5.9100 N.3    91  GLU91      -0.1245
    121  CA       -28.3250   32.0530   -4.8610 C.3    91  GLU91       0.1567
    122  C        -29.5560   31.5170   -5.5120 C.2    91  GLU91       0.2260
    123  O        -30.0490   32.1080   -6.4810 O.2    91  GLU91      -0.2867
    124  CB       -28.7390   33.1360   -3.8980 C.3    91  GLU91       0.0388
    125  CG       -29.8960   32.7860   -2.9360 C.3    91  GLU91       0.1160
    126  CD       -29.9840   33.7370   -1.7340 C.2    91  GLU91       0.3649
    127  OE1      -29.4950   34.8690   -1.8210 O.co2  91  GLU91      -0.2457
    128  OE2      -30.5760   33.4090   -0.6780 O.co2  91  GLU91      -0.2457
    129  N        -33.2220   27.4060    0.5740 N.3   107  ASP107     -0.1239
    130  CA       -32.4390   28.5810    0.1200 C.3   107  ASP107      0.1674
    131  C        -30.9910   28.1760    0.1210 C.2   107  ASP107      0.2266
    132  O        -30.4610   27.7470    1.1600 O.2   107  ASP107     -0.2867
    133  CB       -32.6860   29.7720    1.0850 C.3   107  ASP107      0.1410
    134  CG       -31.7910   31.0060    0.7770 C.2   107  ASP107      0.3668
    135  OD1      -31.4130   31.2050   -0.3890 O.co2 107  ASP107     -0.2456
    136  OD2      -31.4380   31.7630    1.7120 O.co2 107  ASP107     -0.2456
    137  N        -26.9330   29.2840   -1.1670 N.3   109  ASP109     -0.1239
    138  CA       -25.9880   30.3170   -1.6140 C.3   109  ASP109      0.1674
    139  C        -24.7550   29.6400   -2.0980 C.2   109  ASP109      0.2266
    140  O        -24.2990   28.7260   -1.4100 O.2   109  ASP109     -0.2867
    141  CB       -25.4830   31.1520   -0.3980 C.3   109  ASP109      0.1410
    142  CG       -26.4890   32.1640    0.1290 C.2   109  ASP109      0.3668
    143  OD1      -27.6260   31.8560    0.4210 O.co2 109  ASP109     -0.2456
    144  OD2      -26.1200   33.3380    0.2510 O.co2 109  ASP109     -0.2456
@<TRIPOS>BOND
     1   123   122    2
     2   120   121    1
     3    71    69    1
     4   122   121    1
     5    78    79    1
     6   121   124    1
     7    70    69    1
     8    69    68    1
     9    81    80    2
    10    79    82    1
    11    79    80    1
    12    82    83    1
    13   124   125    1
    14    68    65    1
    15    80    90   am
    16    65    64    1
    17    65    66    1
    18    67    66    2
    19   125   126    1
    20    83    85   ar
    21    83    84   ar
    22    64    62   am
    23    66    72   am
    24    63    62    2
    25    90    91    1
    26    62    61    1
    27   139   138    1
    28   139   140    2
    29    85    87   ar
    30    84    86   ar
    31   127   126   ar
    32   126   128   ar
    33   138   137    1
    34   138   141    1
    35    91    92    1
    36    91    94    1
    37    61    60    1
    38    98    92   am
    39    98    99    1
    40    72    73    1
    41   102    99    1
    42    92    93    2
    43    97    95    1
    44    87    88   ar
    45    60    54   am
    46    86    88   ar
    47    75    74    2
    48    99   100    1
    49   141   142    1
    50   135   134   ar
    51    95    94    1
    52    95    96    1
    53    74    73    1
    54    73    76    1
    55    88    89    1
    56   130   131    1
    57   130   129    1
    58   130   133    1
    59   131   132    2
    60   142   144   ar
    61   142   143   ar
    62    54    55    2
    63    54    53    1
    64   112   111    2
    65   134   133    1
    66   134   136   ar
    67     4     3    2
    68   100   101    2
    69   100   103   am
    70    76    77    1
    71    52    53    1
    72    53    56    1
    73     1     2    1
    74   111   110    1
    75   103   104    1
    76     3     2    1
    77     2     5    1
    78    56    57    1
    79   109   110    1
    80   109   105   am
    81    58    57   ar
    82     5     6    1
    83   113   110    1
    84   113   114    1
    85   116   114   ar
    86   116   118   ar
    87   104   105    1
    88   104   107    1
    89    11    13   ar
    90    11     8   ar
    91    57    59   ar
    92   105   106    2
    93   114   115   ar
    94   108   107    1
    95   118   119   ar
    96    13    14   ar
    97     6     8   ar
    98     6     7   ar
    99     8    10   ar
   100    22    24   ar
   101    22    20   ar
   102    18    17    2
   103    50    48    1
   104    24    25   ar
   105    51    49    1
   106    19    20    1
   107    19    16    1
   108   115   117   ar
   109    15    16    1
   110    20    21   ar
   111     7     9   ar
   112   119   117   ar
   113    14    12   ar
   114    17    16    1
   115    10    12   ar
   116    10     9   ar
   117    25    26    1
   118    25    23   ar
   119    48    49    1
   120    48    45    1
   121    42    40   ar
   122    42    43   ar
   123    40    39   ar
   124    21    23   ar
   125    43    41   ar
   126    47    46    2
   127    39    38    1
   128    39    41   ar
   129    46    45    1
   130    45    44    1
   131    32    31    1
   132    38    35    1
   133    31    33    1
   134    31    28    1
   135    37    36    2
   136    35    36    1
   137    35    34    1
   138    28    27    1
   139    28    29    1
   140    29    30    2
