@<TRIPOS>MOLECULE
tmp/4mn8A01.pdb
 101 93 0 0 0
SMALL
GASTEIGER

@<TRIPOS>ATOM
      1  N         23.3380   20.4120  -29.4070 N.3   632  SER632     -0.1217
      2  CA        24.2270   21.0110  -30.4050 C.3   632  SER632      0.1889
      3  C         24.0340   20.4840  -31.8230 C.2   632  SER632      0.2288
      4  O         23.4800   19.4110  -32.0280 O.2   632  SER632     -0.2866
      5  CB        25.6930   20.8420  -29.9960 C.3   632  SER632      0.2089
      6  OG        26.0850   19.4830  -30.0690 O.3   632  SER632     -0.2183
      7  N         25.4730   21.9380  -23.8490 N.3   654  ASP654     -0.1239
      8  CA        25.9610   22.2780  -25.1790 C.3   654  ASP654      0.1674
      9  C         24.8310   22.7200  -26.1100 C.2   654  ASP654      0.2266
     10  O         24.0370   21.9060  -26.5800 O.2   654  ASP654     -0.2867
     11  CB        26.6900   21.0740  -25.7770 C.3   654  ASP654      0.1410
     12  CG        27.6320   21.4580  -26.8910 C.2   654  ASP654      0.3668
     13  OD1       27.4530   22.5480  -27.4670 O.co2 654  ASP654     -0.2456
     14  OD2       28.5530   20.6690  -27.1900 O.co2 654  ASP654     -0.2456
     15  N         25.8480   24.5950  -28.7770 N.3   656  SER656     -0.1202
     16  CA        26.7000   25.0600  -29.8690 C.3   656  SER656      0.2020
     17  C         26.2150   24.6060  -31.2390 C.2   656  SER656      0.2618
     18  O         25.4400   23.6590  -31.3470 O.2   656  SER656     -0.2717
     19  CB        28.1380   24.5830  -29.6700 C.3   656  SER656      0.2103
     20  OG        28.2440   23.1920  -29.9320 O.3   656  SER656     -0.2182
     21  N         26.6610   25.3120  -32.2750 N.am  657  GLN657     -0.1979
     22  CA        26.3130   24.9940  -33.6570 C.3   657  GLN657      0.1601
     23  C         24.8030   25.0590  -33.8550 C.2   657  GLN657      0.2287
     24  O         24.1480   24.0440  -34.0820 O.2   657  GLN657     -0.2864
     25  CB        26.8560   23.6130  -34.0500 C.3   657  GLN657      0.0394
     26  CG        26.8680   23.3420  -35.5400 C.3   657  GLN657      0.0908
     27  CD        27.8170   24.2570  -36.2800 C.2   657  GLN657      0.2608
     28  OE1       28.9490   24.4690  -35.8470 O.2   657  GLN657     -0.2717
     29  NE2       27.3600   24.8110  -37.3990 N.am  657  GLN657     -0.0878
     30  N         31.2190   22.1800  -17.8490 N.3   677  SER677     -0.1217
     31  CA        31.4860   22.6310  -19.2120 C.3   677  SER677      0.1889
     32  C         30.2810   23.3390  -19.8290 C.2   677  SER677      0.2288
     33  O         29.1510   22.8690  -19.7170 O.2   677  SER677     -0.2866
     34  CB        31.8880   21.4430  -20.0900 C.3   677  SER677      0.2089
     35  OG        32.0030   21.8260  -21.4500 O.3   677  SER677     -0.2183
     36  N         29.1140   25.1350  -23.5570 N.3   679  ASN679     -0.1240
     37  CA        29.3880   25.4890  -24.9470 C.3   679  ASN679      0.1653
     38  C         28.2470   26.2850  -25.5820 C.2   679  ASN679      0.2266
     39  O         27.2000   25.7300  -25.9130 O.2   679  ASN679     -0.2867
     40  CB        29.6390   24.2130  -25.7560 C.3   679  ASN679      0.1155
     41  CG        30.7320   24.3800  -26.7930 C.2   679  ASN679      0.2627
     42  OD1       30.9100   25.4600  -27.3520 O.2   679  ASN679     -0.2716
     43  ND2       31.4740   23.3040  -27.0500 N.am  679  ASN679     -0.0877
     44  N         29.1270   28.1420  -28.2810 N.3   681  SER681     -0.1202
     45  CA        29.8510   28.5130  -29.4990 C.3   681  SER681      0.2020
     46  C         29.0380   28.4110  -30.7830 C.2   681  SER681      0.2618
     47  O         28.1250   27.5960  -30.8890 O.2   681  SER681     -0.2717
     48  CB        31.1250   27.6780  -29.6440 C.3   681  SER681      0.2103
     49  OG        30.8160   26.3070  -29.8250 O.3   681  SER681     -0.2182
     50  N         29.3800   29.2610  -31.7470 N.am  682  ARG682     -0.1979
     51  CA        28.7590   29.2510  -33.0690 C.3   682  ARG682      0.1597
     52  C         27.2510   29.4710  -33.0150 C.2   682  ARG682      0.2287
     53  O         26.4620   28.5850  -33.3450 O.2   682  ARG682     -0.2864
     54  CB        29.1050   27.9620  -33.8200 C.3   682  ARG682      0.0334
     55  CG        30.5940   27.8030  -34.0870 C.3   682  ARG682      0.0492
     56  CD        30.9580   26.3610  -34.3840 C.3   682  ARG682      0.2205
     57  NE        32.3890   26.1940  -34.6210 N.pl3 682  ARG682     -0.0865
     58  CZ        33.2870   26.0030  -33.6610 C.cat 682  ARG682      0.5346
     59  NH1       32.9050   25.9590  -32.3920 N.pl3 682  ARG682      0.1354
     60  NH2       34.5680   25.8580  -33.9670 N.pl3 682  ARG682      0.1354
     61  N         35.6390   24.5110  -18.6660 N.3   701  SER701     -0.1202
     62  CA        35.7030   24.9680  -20.0490 C.3   701  SER701      0.2020
     63  C         34.4890   25.8180  -20.4280 C.2   701  SER701      0.2619
     64  O         33.3470   25.3780  -20.3050 O.2   701  SER701     -0.2717
     65  CB        35.8380   23.7760  -20.9970 C.3   701  SER701      0.2103
     66  OG        34.8860   22.7740  -20.6880 O.3   701  SER701     -0.2182
     67  N         34.7470   27.0410  -20.8800 N.am  702  LEU702     -0.1965
     68  CA        33.6870   27.9370  -21.3320 C.3   702  LEU702      0.1728
     69  C         33.9380   28.3970  -22.7660 C.2   702  LEU702      0.2616
     70  O         34.9170   29.0910  -23.0370 O.2   702  LEU702     -0.2715
     71  CB        33.5930   29.1570  -20.4190 C.3   702  LEU702      0.0311
     72  CG        32.5610   30.1930  -20.8660 C.3   702  LEU702      0.0022
     73  CD1       31.1500   29.6750  -20.6220 C.3   702  LEU702      0.0001
     74  CD2       32.7850   31.5370  -20.1840 C.3   702  LEU702      0.0001
     75  N         33.0540   28.0160  -23.6830 N.am  703  ASP703     -0.1971
     76  CA        33.2210   28.3980  -25.0790 C.3   703  ASP703      0.1709
     77  C         32.1110   29.3420  -25.5410 C.2   703  ASP703      0.2293
     78  O         30.9750   28.9230  -25.7680 O.2   703  ASP703     -0.2864
     79  CB        33.2380   27.1400  -25.9500 C.3   703  ASP703      0.1436
     80  CG        33.8270   27.3830  -27.3250 C.2   703  ASP703      0.3671
     81  OD1       33.6960   28.5090  -27.8460 O.co2 703  ASP703     -0.2456
     82  OD2       34.4270   26.4400  -27.8840 O.co2 703  ASP703     -0.2456
     83  N         39.9950   25.8660  -19.8270 N.3   725  HIS725     -0.1241
     84  CA        39.8800   26.2300  -21.2320 C.3   725  HIS725      0.1621
     85  C         38.8460   27.3370  -21.4210 C.2   725  HIS725      0.2264
     86  O         37.6900   27.1900  -21.0300 O.2   725  HIS725     -0.2867
     87  CB        39.4820   25.0090  -22.0630 C.3   725  HIS725      0.0745
     88  CG        40.3900   23.8310  -21.8840 C.ar  725  HIS725      0.0817
     89  ND1       40.4490   23.1060  -20.7140 N.ar  725  HIS725     -0.2268
     90  CD2       41.2710   23.2480  -22.7320 C.ar  725  HIS725      0.1154
     91  CE1       41.3300   22.1310  -20.8450 C.ar  725  HIS725      0.1986
     92  NE2       41.8430   22.1940  -22.0610 N.ar  725  HIS725     -0.2212
     93  N         37.2110   30.0460  -24.4070 N.3   727  LYS727     -0.1245
     94  CA        37.1350   30.3680  -25.8260 C.3   727  LYS727      0.1561
     95  C         36.2980   31.6170  -26.0810 C.2   727  LYS727      0.2260
     96  O         35.0900   31.6300  -25.8470 O.2   727  LYS727     -0.2867
     97  CB        36.5610   29.1880  -26.6110 C.3   727  LYS727      0.0271
     98  CG        37.2610   27.8630  -26.3580 C.3   727  LYS727      0.0035
     99  CD        38.7200   27.9150  -26.7770 C.3   727  LYS727      0.0206
    100  CE        39.4500   26.6380  -26.3860 C.3   727  LYS727      0.1093
    101  NZ        40.9060   26.7080  -26.6980 N.3   727  LYS727     -0.1314
@<TRIPOS>BOND
     1    29    27   am
     2    27    28    2
     3    27    26    1
     4    26    25    1
     5    57    56    1
     6    57    58    2
     7    56    55    1
     8    55    54    1
     9    24    23    2
    10    25    22    1
    11    60    58    1
    12    23    22    1
    13    54    51    1
    14    58    59    1
    15    22    21    1
    16    53    52    2
    17    51    52    1
    18    51    50    1
    19    21    17   am
    20     4     3    2
    21     3     2    1
    22    50    46   am
    23    18    17    2
    24    17    16    1
    25    47    46    2
    26    46    45    1
    27     2     5    1
    28     2     1    1
    29     6     5    1
    30    20    19    1
    31    16    19    1
    32    16    15    1
    33    49    48    1
    34    48    45    1
    35    45    44    1
    36    82    80   ar
    37    81    80   ar
    38    13    12   ar
    39    42    41    2
    40    80    79    1
    41    14    12   ar
    42    43    41   am
    43    12    11    1
    44    41    40    1
    45    99   100    1
    46    99    98    1
    47   101   100    1
    48    97    98    1
    49    97    94    1
    50    10     9    2
    51     9     8    1
    52    95    96    2
    53    95    94    1
    54    79    76    1
    55    39    38    2
    56    94    93    1
    57    11     8    1
    58    78    77    2
    59    40    37    1
    60    38    37    1
    61    77    76    1
    62     8     7    1
    63    76    75    1
    64    37    36    1
    65    75    69   am
    66    70    69    2
    67    69    68    1
    68    90    92   ar
    69    90    88   ar
    70    87    88    1
    71    87    84    1
    72    92    91   ar
    73    88    89   ar
    74    35    34    1
    75    85    84    1
    76    85    86    2
    77    68    67    1
    78    68    71    1
    79    84    83    1
    80    65    66    1
    81    65    62    1
    82    67    63   am
    83    72    73    1
    84    72    71    1
    85    72    74    1
    86    91    89   ar
    87    63    64    2
    88    63    62    1
    89    34    31    1
    90    62    61    1
    91    32    33    2
    92    32    31    1
    93    31    30    1
