@<TRIPOS>MOLECULE
tmp/4mn8A04.pdb
 92 86 0 0 0
SMALL
GASTEIGER

@<TRIPOS>ATOM
      1  N         38.0930  -28.8260   -1.3540 N.3   315  VAL315     -0.1245
      2  CA        37.8670  -27.4230   -1.6830 C.3   315  VAL315      0.1561
      3  C         39.0980  -26.5610   -1.3830 C.2   315  VAL315      0.2260
      4  O         39.6720  -26.6380   -0.2990 O.2   315  VAL315     -0.2867
      5  CB        36.6500  -26.8670   -0.9310 C.3   315  VAL315      0.0252
      6  CG1       36.4100  -25.4160   -1.3070 C.3   315  VAL315      0.0019
      7  CG2       35.4240  -27.7100   -1.2320 C.3   315  VAL315      0.0019
      8  N         40.2560  -22.5010   -1.6690 N.3   317  THR317     -0.1218
      9  CA        40.0100  -21.1070   -2.0300 C.3   317  THR317      0.1862
     10  C         41.2260  -20.2240   -1.7680 C.2   317  THR317      0.2287
     11  O         41.5350  -19.8910   -0.6260 O.2   317  THR317     -0.2866
     12  CB        38.7860  -20.5340   -1.2840 C.3   317  THR317      0.1770
     13  OG1       39.0660  -20.4480    0.1190 O.3   317  THR317     -0.2211
     14  CG2       37.5750  -21.4260   -1.4970 C.3   317  THR317      0.0375
     15  N         41.4220  -17.2960   -3.6000 N.3   319  HIS319     -0.1241
     16  CA        41.0090  -16.0760   -4.2900 C.3   319  HIS319      0.1621
     17  C         41.1030  -14.7820   -3.4810 C.2   319  HIS319      0.2264
     18  O         41.1930  -14.8080   -2.2590 O.2   319  HIS319     -0.2867
     19  CB        39.6060  -16.2300   -4.8770 C.3   319  HIS319      0.0745
     20  CG        38.5190  -16.3230   -3.8490 C.ar  319  HIS319      0.0817
     21  ND1       38.0750  -17.5210   -3.3470 N.ar  319  HIS319     -0.2268
     22  CD2       37.7750  -15.3570   -3.2590 C.ar  319  HIS319      0.1154
     23  CE1       37.1010  -17.2930   -2.4740 C.ar  319  HIS319      0.1986
     24  NE2       36.9020  -15.9940   -2.4060 N.ar  319  HIS319     -0.2212
     25  N         36.1340  -27.8400   -5.6970 N.3   339  VAL339     -0.1245
     26  CA        36.2450  -26.3970   -5.8710 C.3   339  VAL339      0.1561
     27  C         37.6970  -25.9110   -5.8370 C.2   339  VAL339      0.2260
     28  O         38.4520  -26.2480   -4.9240 O.2   339  VAL339     -0.2867
     29  CB        35.4530  -25.6490   -4.7880 C.3   339  VAL339      0.0252
     30  CG1       35.6780  -24.1490   -4.9050 C.3   339  VAL339      0.0019
     31  CG2       33.9750  -25.9890   -4.8860 C.3   339  VAL339      0.0019
     32  N         39.5090  -22.0450   -6.4040 N.3   341  THR341     -0.1218
     33  CA        39.3810  -20.6330   -6.7540 C.3   341  THR341      0.1862
     34  C         40.6690  -19.8520   -6.5040 C.2   341  THR341      0.2287
     35  O         41.0610  -19.6300   -5.3590 O.2   341  THR341     -0.2866
     36  CB        38.2450  -19.9600   -5.9560 C.3   341  THR341      0.1770
     37  OG1       38.6190  -19.8600   -4.5770 O.3   341  THR341     -0.2211
     38  CG2       36.9550  -20.7600   -6.0730 C.3   341  THR341      0.0375
     39  N         34.2270  -29.0980   -9.9060 N.3   362  ARG362     -0.1231
     40  CA        32.9320  -28.4460  -10.0360 C.3   362  ARG362      0.1694
     41  C         33.1410  -26.9760  -10.3760 C.2   362  ARG362      0.2592
     42  O         32.7130  -26.5010  -11.4270 O.2   362  ARG362     -0.2718
     43  CB        32.1310  -28.5900   -8.7430 C.3   362  ARG362      0.0321
     44  CG        30.6860  -28.1290   -8.8440 C.3   362  ARG362      0.0489
     45  CD        29.7560  -29.0650   -8.0810 C.3   362  ARG362      0.2205
     46  NE        29.7390  -30.4090   -8.6560 N.pl3 362  ARG362     -0.0865
     47  CZ        30.4010  -31.4500   -8.1580 C.cat 362  ARG362      0.5346
     48  NH1       31.1370  -31.3090   -7.0630 N.pl3 362  ARG362      0.1354
     49  NH2       30.3260  -32.6330   -8.7530 N.pl3 362  ARG362      0.1354
     50  N         33.7950  -26.2630   -9.4650 N.am  363  ASN363     -0.1974
     51  CA        34.1060  -24.8530   -9.6510 C.3   363  ASN363      0.1688
     52  C         35.5510  -24.6020  -10.0610 C.2   363  ASN363      0.2292
     53  O         36.4780  -24.9750   -9.3400 O.2   363  ASN363     -0.2864
     54  CB        33.8630  -24.0930   -8.3500 C.3   363  ASN363      0.1181
     55  CG        32.4160  -24.0800   -7.9420 C.2   363  ASN363      0.2629
     56  OD1       31.6490  -24.9910   -8.2680 O.2   363  ASN363     -0.2716
     57  ND2       32.0280  -23.0350   -7.2180 N.am  363  ASN363     -0.0877
     58  N         30.3550  -27.6450  -13.1790 N.3   386  LYS386     -0.1231
     59  CA        29.2060  -26.7480  -13.2220 C.3   386  LYS386      0.1693
     60  C         29.5800  -25.3030  -13.5330 C.2   386  LYS386      0.2591
     61  O         28.8130  -24.5780  -14.1630 O.2   386  LYS386     -0.2718
     62  CB        28.4170  -26.8230  -11.9140 C.3   386  LYS386      0.0285
     63  CG        27.4480  -27.9940  -11.8300 C.3   386  LYS386      0.0035
     64  CD        27.0510  -28.2560  -10.3840 C.3   386  LYS386      0.0206
     65  CE        26.6690  -26.9650   -9.6660 C.3   386  LYS386      0.1093
     66  NZ        27.1350  -26.9470   -8.2460 N.3   386  LYS386     -0.1314
     67  N         30.7560  -24.8870  -13.0740 N.am  387  LEU387     -0.1980
     68  CA        31.1530  -23.4850  -13.1650 C.3   387  LEU387      0.1596
     69  C         32.5700  -23.2980  -13.6940 C.2   387  LEU387      0.2287
     70  O         33.5250  -23.8450  -13.1410 O.2   387  LEU387     -0.2864
     71  CB        31.0220  -22.8140  -11.7950 C.3   387  LEU387      0.0297
     72  CG        31.5190  -21.3730  -11.6540 C.3   387  LEU387      0.0022
     73  CD1       30.5950  -20.6100  -10.7330 C.3   387  LEU387      0.0001
     74  CD2       32.9520  -21.3120  -11.1290 C.3   387  LEU387      0.0001
     75  N         26.6900  -24.6690  -15.9540 N.3   409  THR409     -0.1203
     76  CA        25.6390  -23.7220  -15.6060 C.3   409  THR409      0.1994
     77  C         26.1280  -22.3160  -15.9220 C.2   409  THR409      0.2617
     78  O         25.4860  -21.5700  -16.6570 O.2   409  THR409     -0.2717
     79  CB        25.2000  -23.8470  -14.1400 C.3   409  THR409      0.1784
     80  OG1       26.3550  -23.8720  -13.2940 O.3   409  THR409     -0.2211
     81  CG2       24.4030  -25.1300  -13.9390 C.3   409  THR409      0.0376
     82  N         27.2430  -21.9420  -15.3010 N.am  410  PHE410     -0.1975
     83  CA        27.8830  -20.6610  -15.5710 C.3   410  PHE410      0.1639
     84  C         29.1880  -20.8160  -16.3510 C.2   410  PHE410      0.2290
     85  O         30.0990  -21.5300  -15.9290 O.2   410  PHE410     -0.2864
     86  CB        28.1510  -19.9200  -14.2590 C.3   410  PHE410      0.0560
     87  CG        26.9900  -19.9440  -13.3120 C.ar  410  PHE410     -0.0200
     88  CD1       25.9380  -19.0580  -13.4630 C.ar  410  PHE410     -0.0042
     89  CD2       26.9450  -20.8610  -12.2750 C.ar  410  PHE410     -0.0042
     90  CE1       24.8640  -19.0800  -12.5950 C.ar  410  PHE410     -0.0003
     91  CE2       25.8740  -20.8890  -11.4020 C.ar  410  PHE410     -0.0003
     92  CZ        24.8320  -19.9960  -11.5630 C.ar  410  PHE410     -0.0000
@<TRIPOS>BOND
     1    78    77    2
     2    84    85    2
     3    84    83    1
     4    75    76    1
     5    77    76    1
     6    77    82   am
     7    76    79    1
     8    83    82    1
     9    83    86    1
    10    86    87    1
    11    61    60    2
    12    79    81    1
    13    79    80    1
    14    69    68    1
    15    69    70    2
    16    60    59    1
    17    60    67   am
    18    88    87   ar
    19    88    90   ar
    20    87    89   ar
    21    59    58    1
    22    59    62    1
    23    68    67    1
    24    68    71    1
    25    90    92   ar
    26    89    91   ar
    27    62    63    1
    28    63    64    1
    29    71    72    1
    30    72    74    1
    31    72    73    1
    32    92    91   ar
    33    42    41    2
    34    64    65    1
    35    41    40    1
    36    41    50   am
    37    52    51    1
    38    52    53    2
    39    40    39    1
    40    40    43    1
    41    65    66    1
    42    51    50    1
    43    51    54    1
    44    44    43    1
    45    44    45    1
    46    49    47    1
    47    46    47    2
    48    46    45    1
    49    54    55    1
    50    56    55    2
    51    47    48    1
    52    55    57   am
    53    33    34    1
    54    33    32    1
    55    33    36    1
    56    34    35    2
    57    38    36    1
    58    36    37    1
    59    26    27    1
    60    26    25    1
    61    26    29    1
    62    27    28    2
    63    30    29    1
    64    31    29    1
    65    19    16    1
    66    19    20    1
    67    16    15    1
    68    16    17    1
    69    20    21   ar
    70    20    22   ar
    71    17    18    2
    72    21    23   ar
    73    22    24   ar
    74    23    24   ar
    75     9    10    1
    76     9     8    1
    77     9    12    1
    78    10    11    2
    79     2     3    1
    80     2     1    1
    81     2     5    1
    82    14    12    1
    83     3     4    2
    84     6     5    1
    85    12    13    1
    86     7     5    1
