@<TRIPOS>MOLECULE
tmp/4mnaA01.pdb
 97 88 0 0 0
SMALL
GASTEIGER

@<TRIPOS>ATOM
      1  N         77.4800  -76.4900  -60.8920 N.3   438  GLN438     -0.1245
      2  CA        77.1840  -75.4510  -61.8600 C.3   438  GLN438      0.1566
      3  C         78.3120  -74.4010  -61.9660 C.2   438  GLN438      0.2260
      4  O         79.2280  -74.3850  -61.1570 O.2   438  GLN438     -0.2867
      5  CB        75.8070  -74.8470  -61.5460 C.3   438  GLN438      0.0367
      6  CG        75.8000  -73.6810  -60.5980 C.3   438  GLN438      0.0905
      7  CD        75.8240  -72.3740  -61.3470 C.2   438  GLN438      0.2608
      8  OE1       75.5500  -72.3450  -62.5500 O.2   438  GLN438     -0.2717
      9  NE2       76.1690  -71.2840  -60.6560 N.am  438  GLN438     -0.0878
     10  N         72.0460  -79.4300  -59.6320 N.3   460  ASP460     -0.1239
     11  CA        72.4450  -78.2420  -60.3790 C.3   460  ASP460      0.1674
     12  C         73.6930  -78.5060  -61.2220 C.2   460  ASP460      0.2266
     13  O         74.7890  -78.6280  -60.6990 O.2   460  ASP460     -0.2867
     14  CB        72.6890  -77.0860  -59.4120 C.3   460  ASP460      0.1410
     15  CG        72.4090  -75.7380  -60.0370 C.2   460  ASP460      0.3668
     16  OD1       72.5400  -75.6220  -61.2770 O.co2 460  ASP460     -0.2456
     17  OD2       72.0510  -74.7980  -59.2900 O.co2 460  ASP460     -0.2456
     18  N         73.9560  -76.7230  -64.3220 N.3   462  SER462     -0.1202
     19  CA        73.8610  -75.6210  -65.2780 C.3   462  SER462      0.2020
     20  C         75.1810  -74.8930  -65.5650 C.2   462  SER462      0.2618
     21  O         76.1960  -75.1250  -64.9160 O.2   462  SER462     -0.2717
     22  CB        72.8170  -74.6130  -64.7960 C.3   462  SER462      0.2103
     23  OG        73.1100  -74.1710  -63.4830 O.3   462  SER462     -0.2182
     24  N         75.1420  -74.0010  -66.5450 N.am  463  ASP463     -0.1973
     25  CA        76.3000  -73.1920  -66.9200 C.3   463  ASP463      0.1709
     26  C         77.6060  -73.9710  -67.1000 C.2   463  ASP463      0.2293
     27  O         78.6260  -73.6600  -66.4830 O.2   463  ASP463     -0.2864
     28  CB        76.5060  -72.0320  -65.9380 C.3   463  ASP463      0.1436
     29  CG        77.4570  -70.9570  -66.4890 C.2   463  ASP463      0.3671
     30  OD1       77.8190  -70.0260  -65.7310 O.co2 463  ASP463     -0.2456
     31  OD2       77.8470  -71.0430  -67.6820 O.co2 463  ASP463     -0.2456
     32  N         64.8990  -79.0390  -56.9350 N.3   484  TYR484     -0.1241
     33  CA        65.5360  -78.2820  -58.0100 C.3   484  TYR484      0.1605
     34  C         66.2420  -79.1390  -59.0480 C.2   484  TYR484      0.2264
     35  O         66.9760  -80.0630  -58.6980 O.2   484  TYR484     -0.2867
     36  CB        66.5660  -77.3490  -57.3940 C.3   484  TYR484      0.0534
     37  CG        66.9470  -76.2160  -58.2860 C.ar  484  TYR484     -0.0201
     38  CD1       66.0300  -75.2240  -58.5820 C.ar  484  TYR484     -0.0009
     39  CD2       68.2150  -76.1310  -58.8380 C.ar  484  TYR484     -0.0009
     40  CE1       66.3530  -74.1700  -59.4030 C.ar  484  TYR484      0.0417
     41  CE2       68.5540  -75.0730  -59.6640 C.ar  484  TYR484      0.0417
     42  CZ        67.6120  -74.0980  -59.9420 C.ar  484  TYR484      0.1957
     43  OH        67.9090  -73.0370  -60.7600 O.3   484  TYR484     -0.2866
     44  N         68.5130  -78.2670  -62.6220 N.3   486  ASN486     -0.1240
     45  CA        69.0270  -77.2620  -63.5670 C.3   486  ASN486      0.1653
     46  C         70.1170  -77.7760  -64.5220 C.2   486  ASN486      0.2266
     47  O         71.2760  -77.9380  -64.1300 O.2   486  ASN486     -0.2867
     48  CB        69.5190  -76.0070  -62.8180 C.3   486  ASN486      0.1155
     49  CG        69.2510  -74.6940  -63.5860 C.2   486  ASN486      0.2627
     50  OD1       69.0630  -74.7060  -64.8030 O.2   486  ASN486     -0.2716
     51  ND2       69.2250  -73.5590  -62.8520 N.am  486  ASN486     -0.0877
     52  N         70.4780  -76.0990  -67.4320 N.3   488  SER488     -0.1202
     53  CA        70.5090  -74.9810  -68.3650 C.3   488  SER488      0.2020
     54  C         71.9120  -74.5220  -68.7630 C.2   488  SER488      0.2618
     55  O         72.9100  -74.9240  -68.1720 O.2   488  SER488     -0.2717
     56  CB        69.6970  -73.7990  -67.8290 C.3   488  SER488      0.2103
     57  OG        70.3690  -73.1600  -66.7580 O.3   488  SER488     -0.2182
     58  N         71.9620  -73.6810  -69.7870 N.am  489  ASN489     -0.1974
     59  CA        73.2100  -73.0950  -70.2660 C.3   489  ASN489      0.1688
     60  C         74.3300  -74.1000  -70.6060 C.2   489  ASN489      0.2292
     61  O         75.4790  -73.9380  -70.1780 O.2   489  ASN489     -0.2864
     62  CB        73.6960  -72.0060  -69.3010 C.3   489  ASN489      0.1181
     63  CG        72.6260  -70.9570  -69.0180 C.2   489  ASN489      0.2629
     64  OD1       72.5520  -69.9250  -69.6870 O.2   489  ASN489     -0.2716
     65  ND2       71.7920  -71.2220  -68.0230 N.am  489  ASN489     -0.0877
     66  N         61.2390  -76.9170  -59.3800 N.3   508  GLU508     -0.1245
     67  CA        61.8480  -76.0690  -60.3950 C.3   508  GLU508      0.1567
     68  C         62.6020  -76.8980  -61.4320 C.2   508  GLU508      0.2260
     69  O         63.5270  -77.6340  -61.0940 O.2   508  GLU508     -0.2867
     70  CB        62.7610  -75.0300  -59.7490 C.3   508  GLU508      0.0388
     71  CG        62.0510  -74.1160  -58.7580 C.3   508  GLU508      0.1160
     72  CD        62.8920  -72.9250  -58.3430 C.2   508  GLU508      0.3649
     73  OE1       63.4640  -72.9720  -57.2330 O.co2 508  GLU508     -0.2457
     74  OE2       62.9810  -71.9390  -59.1130 O.co2 508  GLU508     -0.2457
     75  N         64.6660  -76.5840  -65.0980 N.3   510  ASP510     -0.1239
     76  CA        65.2740  -75.6550  -66.0540 C.3   510  ASP510      0.1674
     77  C         66.2300  -76.3190  -67.0530 C.2   510  ASP510      0.2266
     78  O         67.3340  -76.7420  -66.7020 O.2   510  ASP510     -0.2867
     79  CB        65.9590  -74.4980  -65.3190 C.3   510  ASP510      0.1410
     80  CG        66.2070  -73.2970  -66.2220 C.2   510  ASP510      0.3668
     81  OD1       66.5600  -73.4900  -67.4060 O.co2 510  ASP510     -0.2456
     82  OD2       66.0390  -72.1500  -65.7520 O.co2 510  ASP510     -0.2456
     83  N         58.0960  -73.6050  -61.1290 N.3   532  THR532     -0.1218
     84  CA        58.7470  -72.8660  -62.2200 C.3   532  THR532      0.1862
     85  C         59.2850  -73.7810  -63.3350 C.2   532  THR532      0.2287
     86  O         60.1400  -74.6530  -63.1080 O.2   532  THR532     -0.2866
     87  CB        59.8980  -71.9670  -61.7150 C.3   532  THR532      0.1770
     88  OG1       61.0070  -72.7770  -61.3120 O.3   532  THR532     -0.2211
     89  CG2       59.4530  -71.1030  -60.5390 C.3   532  THR532      0.0375
     90  N         61.1470  -73.8580  -67.1670 N.3   534  ASP534     -0.1239
     91  CA        61.9520  -73.0750  -68.0960 C.3   534  ASP534      0.1674
     92  C         62.5420  -73.9310  -69.2240 C.2   534  ASP534      0.2266
     93  O         63.4840  -74.7000  -69.0150 O.2   534  ASP534     -0.2867
     94  CB        63.0610  -72.3510  -67.3290 C.3   534  ASP534      0.1410
     95  CG        63.5820  -71.1310  -68.0610 C.2   534  ASP534      0.3668
     96  OD1       63.5520  -71.1240  -69.3110 O.co2 534  ASP534     -0.2456
     97  OD2       64.0330  -70.1780  -67.3840 O.co2 534  ASP534     -0.2456
@<TRIPOS>BOND
     1    60    59    1
     2    60    61    2
     3    59    58    1
     4    59    62    1
     5    58    54   am
     6    64    63    2
     7    96    95   ar
     8    62    63    1
     9    92    93    2
    10    92    91    1
    11    63    65   am
    12    54    53    1
    13    54    55    2
    14    53    56    1
    15    53    52    1
    16    91    94    1
    17    91    90    1
    18    95    97   ar
    19    95    94    1
    20    56    57    1
    21    31    29   ar
    22    81    80   ar
    23    26    25    1
    24    26    27    2
    25    77    78    2
    26    77    76    1
    27    25    24    1
    28    25    28    1
    29    24    20   am
    30    29    28    1
    31    29    30   ar
    32    80    82   ar
    33    80    79    1
    34    76    79    1
    35    76    75    1
    36    20    19    1
    37    20    21    2
    38    19    22    1
    39    19    18    1
    40    50    49    2
    41    22    23    1
    42    46    47    2
    43    46    45    1
    44    49    51   am
    45    49    48    1
    46    45    48    1
    47    45    44    1
    48    85    86    2
    49    85    84    1
    50     8     7    2
    51    84    87    1
    52    84    83    1
    53     3     2    1
    54     3     4    2
    55     2     5    1
    56     2     1    1
    57    87    88    1
    58    87    89    1
    59     5     6    1
    60    68    69    2
    61    68    67    1
    62     7     9   am
    63     7     6    1
    64    16    15   ar
    65    12    13    2
    66    12    11    1
    67    43    42    1
    68    67    70    1
    69    67    66    1
    70    11    10    1
    71    11    14    1
    72    15    14    1
    73    15    17   ar
    74    42    41   ar
    75    42    40   ar
    76    70    71    1
    77    41    39   ar
    78    40    38   ar
    79    74    72   ar
    80    34    35    2
    81    34    33    1
    82    39    37   ar
    83    71    72    1
    84    38    37   ar
    85    72    73   ar
    86    37    36    1
    87    33    36    1
    88    33    32    1
