@<TRIPOS>MOLECULE
tmp/4mnaA02.pdb
 85 80 0 0 0
SMALL
GASTEIGER

@<TRIPOS>ATOM
      1  N         71.7060  -64.4850  -17.0490 N.3   197  THR197     -0.1218
      2  CA        71.0730  -64.7540  -18.3510 C.3   197  THR197      0.1862
      3  C         69.9870  -63.7420  -18.7180 C.2   197  THR197      0.2287
      4  O         68.8920  -63.7510  -18.1490 O.2   197  THR197     -0.2866
      5  CB        70.5060  -66.1960  -18.4840 C.3   197  THR197      0.1770
      6  OG1       69.4770  -66.4170  -17.5110 O.3   197  THR197     -0.2211
      7  CG2       71.6160  -67.2280  -18.3230 C.3   197  THR197      0.0375
      8  N         69.2550  -63.2140  -22.1630 N.3   199  HIS199     -0.1241
      9  CA        69.1030  -63.3980  -23.5960 C.3   199  HIS199      0.1621
     10  C         67.6440  -63.5740  -24.0040 C.2   199  HIS199      0.2264
     11  O         66.8340  -64.0530  -23.2240 O.2   199  HIS199     -0.2867
     12  CB        69.9230  -64.5930  -24.0470 C.3   199  HIS199      0.0745
     13  CG        69.5330  -65.8600  -23.3690 C.ar  199  HIS199      0.0817
     14  ND1       70.1240  -66.2910  -22.1990 N.ar  199  HIS199     -0.2268
     15  CD2       68.5930  -66.7850  -23.6800 C.ar  199  HIS199      0.1154
     16  CE1       69.5730  -67.4330  -21.8290 C.ar  199  HIS199      0.1986
     17  NE2       68.6440  -67.7550  -22.7090 N.ar  199  HIS199     -0.2212
     18  N         78.8410  -67.0680  -16.1380 N.3   219  VAL219     -0.1245
     19  CA        77.9000  -67.1500  -17.2500 C.3   219  VAL219      0.1561
     20  C         77.3150  -65.7810  -17.5540 C.2   219  VAL219      0.2260
     21  O         76.7970  -65.1050  -16.6600 O.2   219  VAL219     -0.2867
     22  CB        76.7180  -68.0870  -16.9580 C.3   219  VAL219      0.0252
     23  CG1       75.6020  -67.8640  -17.9760 C.3   219  VAL219      0.0019
     24  CG2       77.1680  -69.5330  -16.9690 C.3   219  VAL219      0.0019
     25  N         74.8810  -64.3360  -20.6590 N.3   221  THR221     -0.1218
     26  CA        74.1840  -64.4370  -21.9370 C.3   221  THR221      0.1862
     27  C         73.1740  -63.2940  -22.1360 C.2   221  THR221      0.2287
     28  O         72.3540  -62.9990  -21.2580 O.2   221  THR221     -0.2866
     29  CB        73.5910  -65.8580  -22.1700 C.3   221  THR221      0.1770
     30  OG1       72.4910  -66.0690  -21.2850 O.3   221  THR221     -0.2211
     31  CG2       74.6570  -66.9390  -21.9170 C.3   221  THR221      0.0375
     32  N         83.0640  -68.4130  -18.2180 N.3   242  ARG242     -0.1231
     33  CA        83.0970  -69.6310  -19.0260 C.3   242  ARG242      0.1694
     34  C         82.1990  -69.5450  -20.2790 C.2   242  ARG242      0.2592
     35  O         82.5910  -70.0000  -21.3510 O.2   242  ARG242     -0.2718
     36  CB        82.7210  -70.8360  -18.1680 C.3   242  ARG242      0.0321
     37  CG        82.5380  -72.1450  -18.9490 C.3   242  ARG242      0.0489
     38  CD        82.2340  -73.3380  -18.0290 C.3   242  ARG242      0.2205
     39  NE        83.2690  -73.5010  -17.0090 N.pl3 242  ARG242     -0.0865
     40  CZ        83.1440  -73.1210  -15.7380 C.cat 242  ARG242      0.5346
     41  NH1       82.0150  -72.5690  -15.3120 N.pl3 242  ARG242      0.1354
     42  NH2       84.1500  -73.3000  -14.8890 N.pl3 242  ARG242      0.1354
     43  N         80.9980  -68.9790  -20.1280 N.am  243  ASN243     -0.1974
     44  CA        80.0950  -68.6910  -21.2570 C.3   243  ASN243      0.1688
     45  C         79.8910  -67.1820  -21.4630 C.2   243  ASN243      0.2292
     46  O         79.4980  -66.4690  -20.5410 O.2   243  ASN243     -0.2864
     47  CB        78.7100  -69.3450  -21.0750 C.3   243  ASN243      0.1181
     48  CG        78.7630  -70.8660  -21.0500 C.2   243  ASN243      0.2629
     49  OD1       79.7430  -71.4620  -20.6000 O.2   243  ASN243     -0.2716
     50  ND2       77.6950  -71.5010  -21.5250 N.am  243  ASN243     -0.0877
     51  N         85.2090  -70.8700  -22.2790 N.3   266  LYS266     -0.1231
     52  CA        85.0700  -72.0160  -23.1610 C.3   266  LYS266      0.1693
     53  C         84.1250  -71.6830  -24.3220 C.2   266  LYS266      0.2591
     54  O         84.2860  -72.1840  -25.4380 O.2   266  LYS266     -0.2718
     55  CB        84.6020  -73.2390  -22.3780 C.3   266  LYS266      0.0285
     56  CG        85.6490  -73.8080  -21.4190 C.3   266  LYS266      0.0035
     57  CD        85.0000  -74.6740  -20.3430 C.3   266  LYS266      0.0206
     58  CE        84.1290  -75.7620  -20.9540 C.3   266  LYS266      0.1093
     59  NZ        83.1480  -76.3240  -19.9750 N.3   266  LYS266     -0.1314
     60  N         83.1570  -70.8100  -24.0610 N.am  267  LEU267     -0.1980
     61  CA        82.1600  -70.4540  -25.0680 C.3   267  LEU267      0.1596
     62  C         82.1080  -68.9430  -25.3760 C.2   267  LEU267      0.2287
     63  O         81.7820  -68.1290  -24.5120 O.2   267  LEU267     -0.2864
     64  CB        80.7910  -70.9480  -24.6160 C.3   267  LEU267      0.0297
     65  CG        79.5440  -70.8120  -25.4870 C.3   267  LEU267      0.0022
     66  CD1       78.5890  -71.9140  -25.0630 C.3   267  LEU267      0.0001
     67  CD2       78.8610  -69.4360  -25.3850 C.3   267  LEU267      0.0001
     68  N         85.6710  -74.1070  -26.7610 N.3   289  THR289     -0.1203
     69  CA        84.9010  -75.1520  -27.4430 C.3   289  THR289      0.1994
     70  C         84.0640  -74.6140  -28.6040 C.2   289  THR289      0.2617
     71  O         84.0390  -75.2330  -29.6600 O.2   289  THR289     -0.2717
     72  CB        84.0270  -76.0090  -26.4910 C.3   289  THR289      0.1784
     73  OG1       83.5160  -75.2060  -25.4170 O.3   289  THR289     -0.2211
     74  CG2       84.8330  -77.1480  -25.9100 C.3   289  THR289      0.0376
     75  N         83.3830  -73.4830  -28.4100 N.am  290  PHE290     -0.1975
     76  CA        82.5990  -72.8650  -29.4810 C.3   290  PHE290      0.1639
     77  C         83.0070  -71.4080  -29.6400 C.2   290  PHE290      0.2290
     78  O         82.7010  -70.5870  -28.7700 O.2   290  PHE290     -0.2864
     79  CB        81.0840  -72.9500  -29.2110 C.3   290  PHE290      0.0560
     80  CG        80.6120  -74.3090  -28.6900 C.ar  290  PHE290     -0.0200
     81  CD1       80.3520  -75.3620  -29.5690 C.ar  290  PHE290     -0.0042
     82  CD2       80.4020  -74.5350  -27.3110 C.ar  290  PHE290     -0.0042
     83  CE1       79.9160  -76.6290  -29.0830 C.ar  290  PHE290     -0.0003
     84  CE2       79.9620  -75.7990  -26.8220 C.ar  290  PHE290     -0.0003
     85  CZ        79.7220  -76.8360  -27.7080 C.ar  290  PHE290     -0.0000
@<TRIPOS>BOND
     1    71    70    2
     2    77    76    1
     3    77    78    2
     4    81    83   ar
     5    81    80   ar
     6    76    79    1
     7    76    75    1
     8    79    80    1
     9    83    85   ar
    10    80    82   ar
    11    70    75   am
    12    70    69    1
    13    85    84   ar
    14    69    68    1
    15    69    72    1
    16    82    84   ar
    17    72    74    1
    18    72    73    1
    19    65    67    1
    20    65    66    1
    21    65    64    1
    22    54    53    2
    23    62    61    1
    24    62    63    2
    25    61    64    1
    26    61    60    1
    27    53    60   am
    28    53    52    1
    29    12     9    1
    30    12    13    1
    31    10     9    1
    32    10    11    2
    33    15    13   ar
    34    15    17   ar
    35     9     8    1
    36    13    14   ar
    37    52    55    1
    38    52    51    1
    39    17    16   ar
    40    55    56    1
    41    14    16   ar
    42    29    26    1
    43    29    31    1
    44    29    30    1
    45    27    26    1
    46    27    28    2
    47    26    25    1
    48    50    48   am
    49    45    44    1
    50    45    46    2
    51    56    57    1
    52    35    34    2
    53    44    47    1
    54    44    43    1
    55    47    48    1
    56    48    49    2
    57    58    57    1
    58    58    59    1
    59    34    43   am
    60    34    33    1
    61    33    32    1
    62    33    36    1
    63    37    36    1
    64    37    38    1
    65     3     2    1
    66     3     4    2
    67     5     2    1
    68     5     7    1
    69     5     6    1
    70     2     1    1
    71    38    39    1
    72    23    22    1
    73    20    19    1
    74    20    21    2
    75    19    22    1
    76    19    18    1
    77    39    40    2
    78    24    22    1
    79    40    41    1
    80    40    42    1
