@<TRIPOS>MOLECULE
tmp/4mncA00.pdb
 135 133 0 0 0
SMALL
GASTEIGER

@<TRIPOS>ATOM
      1  N         28.1310   23.6790  -10.5000 N.3    11  PHE11      -0.1241
      2  CA        28.7960   22.5210  -11.0860 C.3    11  PHE11       0.1605
      3  C         27.9180   21.2830  -10.9920 C.2    11  PHE11       0.2264
      4  O         27.1830   21.0860  -10.0210 O.2    11  PHE11      -0.2867
      5  CB        30.1240   22.2570  -10.3630 C.3    11  PHE11       0.0534
      6  CG        31.1770   23.3200  -10.6010 C.ar   11  PHE11      -0.0203
      7  CD1       31.2670   24.4400   -9.7890 C.ar   11  PHE11      -0.0042
      8  CD2       32.0960   23.1750  -11.6360 C.ar   11  PHE11      -0.0042
      9  CE1       32.2520   25.3910  -10.0080 C.ar   11  PHE11      -0.0003
     10  CE2       33.0800   24.1250  -11.8610 C.ar   11  PHE11      -0.0003
     11  CZ        33.1520   25.2300  -11.0400 C.ar   11  PHE11      -0.0000
     12  N         33.5440   18.6840   -6.9180 N.3    17  TYR17      -0.1241
     13  CA        33.2260   19.8320   -6.0720 C.3    17  TYR17       0.1605
     14  C         31.9490   19.5880   -5.2680 C.2    17  TYR17       0.2264
     15  O         31.9030   19.8930   -4.0790 O.2    17  TYR17      -0.2867
     16  CB        33.1660   21.1460   -6.8590 C.3    17  TYR17       0.0534
     17  CG        34.4120   21.4220   -7.6850 C.ar   17  TYR17      -0.0201
     18  CD1       35.6760   21.0050   -7.2670 C.ar   17  TYR17      -0.0009
     19  CD2       34.3060   22.0600   -8.9170 C.ar   17  TYR17      -0.0009
     20  CE1       36.7990   21.2240   -8.0520 C.ar   17  TYR17       0.0417
     21  CE2       35.4200   22.2840   -9.7000 C.ar   17  TYR17       0.0417
     22  CZ        36.6670   21.8580   -9.2740 C.ar   17  TYR17       0.1957
     23  OH        37.7650   22.0850  -10.0850 O.3    17  TYR17      -0.2866
     24  N         32.2860   29.4040   -9.2810 N.3    67  THR67      -0.1218
     25  CA        33.5250   30.1070   -9.5740 C.3    67  THR67       0.1862
     26  C         33.1630   31.4540  -10.1700 C.2    67  THR67       0.2287
     27  O         32.1960   31.5570  -10.9320 O.2    67  THR67      -0.2866
     28  CB        34.4370   29.3130  -10.5400 C.3    67  THR67       0.1770
     29  OG1       35.5870   30.1020  -10.8500 O.3    67  THR67      -0.2211
     30  CG2       33.7410   28.9610  -11.8500 C.3    67  THR67       0.0375
     31  N         34.4990   32.8170  -12.5330 N.3    69  ALA69      -0.1231
     32  CA        34.5140   32.7010  -13.9860 C.3    69  ALA69       0.1694
     33  C         33.1120   32.5520  -14.5570 C.2    69  ALA69       0.2592
     34  O         32.8940   32.8910  -15.7150 O.2    69  ALA69      -0.2718
     35  CB        35.3590   31.5310  -14.4140 C.3    69  ALA69       0.0304
     36  N         32.1750   32.0180  -13.7760 N.am   70  PHE70      -0.1976
     37  CA        30.8130   31.7920  -14.2570 C.3    70  PHE70       0.1639
     38  C         29.8680   32.9620  -13.9760 C.2    70  PHE70       0.2290
     39  O         28.7090   32.8930  -14.3780 O.2    70  PHE70      -0.2864
     40  CB        30.2120   30.5240  -13.6510 C.3    70  PHE70       0.0560
     41  CG        30.9520   29.2410  -13.9870 C.ar   70  PHE70      -0.0200
     42  CD1       31.9040   29.1500  -14.9950 C.ar   70  PHE70      -0.0042
     43  CD2       30.6440   28.1000  -13.2710 C.ar   70  PHE70      -0.0042
     44  CE1       32.5360   27.9450  -15.2540 C.ar   70  PHE70      -0.0003
     45  CE2       31.2750   26.8940  -13.5290 C.ar   70  PHE70      -0.0003
     46  CZ        32.2250   26.8160  -14.5230 C.ar   70  PHE70      -0.0000
     47  N         45.2790   25.1660  -13.7680 N.3   122  PHE122     -0.1241
     48  CA        44.5680   24.8710  -15.0020 C.3   122  PHE122      0.1605
     49  C         45.5380   24.3830  -16.0820 C.2   122  PHE122      0.2264
     50  O         46.7010   24.7760  -16.1050 O.2   122  PHE122     -0.2867
     51  CB        43.8740   26.1230  -15.5220 C.3   122  PHE122      0.0534
     52  CG        42.7500   26.6400  -14.6480 C.ar  122  PHE122     -0.0203
     53  CD1       41.4610   26.1520  -14.7910 C.ar  122  PHE122     -0.0042
     54  CD2       42.9710   27.6500  -13.7260 C.ar  122  PHE122     -0.0042
     55  CE1       40.4170   26.6600  -14.0260 C.ar  122  PHE122     -0.0003
     56  CE2       41.9530   28.1700  -12.9700 C.ar  122  PHE122     -0.0003
     57  CZ        40.6590   27.6790  -13.1330 C.ar  122  PHE122     -0.0000
     58  N         37.2700   24.5680  -26.0260 N.3   141  ARG141     -0.1245
     59  CA        36.2340   24.9410  -25.0770 C.3   141  ARG141      0.1563
     60  C         36.8250   25.7120  -23.9040 C.2   141  ARG141      0.2260
     61  O         37.8590   25.3250  -23.3420 O.2   141  ARG141     -0.2867
     62  CB        35.5170   23.6900  -24.5550 C.3   141  ARG141      0.0307
     63  CG        34.5290   23.9590  -23.4250 C.3   141  ARG141      0.0489
     64  CD        35.1700   23.8910  -22.0510 C.3   141  ARG141      0.2205
     65  NE        34.2570   24.3930  -21.0320 N.pl3 141  ARG141     -0.0865
     66  CZ        34.5940   24.6280  -19.7710 C.cat 141  ARG141      0.5346
     67  NH1       33.6930   25.1220  -18.9350 N.pl3 141  ARG141      0.1354
     68  NH2       35.8230   24.3960  -19.3390 N.pl3 141  ARG141      0.1354
     69  N         35.8570   28.6520  -20.4020 N.3   143  SER143     -0.1217
     70  CA        35.1190   29.6600  -19.6570 C.3   143  SER143      0.1889
     71  C         36.0110   30.9010  -19.6740 C.2   143  SER143      0.2288
     72  O         37.1100   30.8670  -20.2280 O.2   143  SER143     -0.2866
     73  CB        34.9210   29.2020  -18.2230 C.3   143  SER143      0.2089
     74  OG        36.1430   29.3590  -17.5300 O.3   143  SER143     -0.2183
     75  N         38.0500   31.9050  -17.6200 N.3   145  VAL145     -0.1231
     76  CA        39.3890   31.6700  -17.0900 C.3   145  VAL145      0.1692
     77  C         40.4420   31.7680  -18.1980 C.2   145  VAL145      0.2592
     78  O         41.4990   32.3710  -18.0210 O.2   145  VAL145     -0.2718
     79  CB        39.4910   30.2650  -16.4480 C.3   145  VAL145      0.0266
     80  CG1       40.9310   29.9270  -16.0910 C.3   145  VAL145      0.0020
     81  CG2       38.6160   30.1850  -15.2120 C.3   145  VAL145      0.0020
     82  N         40.1720   31.1060  -19.3220 N.am  146  TYR146     -0.1976
     83  CA        41.1990   30.8380  -20.3330 C.3   146  TYR146      0.1639
     84  C         41.1880   31.8150  -21.4880 C.2   146  TYR146      0.2290
     85  O         42.0580   31.7450  -22.3400 O.2   146  TYR146     -0.2864
     86  CB        41.0600   29.4110  -20.9380 C.3   146  TYR146      0.0560
     87  CG        40.6100   28.3920  -19.9360 C.ar  146  TYR146     -0.0198
     88  CD1       41.4930   27.8220  -19.0410 C.ar  146  TYR146     -0.0009
     89  CD2       39.2850   28.0390  -19.8390 C.ar  146  TYR146     -0.0009
     90  CE1       41.0570   26.9400  -18.0800 C.ar  146  TYR146      0.0417
     91  CE2       38.8340   27.1640  -18.8730 C.ar  146  TYR146      0.0417
     92  CZ        39.7290   26.6190  -17.9970 C.ar  146  TYR146      0.1957
     93  OH        39.3140   25.7550  -17.0070 O.3   146  TYR146     -0.2866
     94  N         40.6510   23.0940  -18.2910 N.3   179  TRP179     -0.1228
     95  CA        40.1150   22.5730  -17.0290 C.3   179  TRP179      0.1722
     96  C         41.2640   22.4750  -16.0360 C.2   179  TRP179      0.2437
     97  O         42.4210   22.3810  -16.4490 O.2   179  TRP179     -0.2733
     98  CB        39.4880   21.1680  -17.2230 C.3   179  TRP179      0.0563
     99  CG        38.6720   20.7390  -16.0550 C.ar  179  TRP179      0.0003
    100  CD1       39.0350   19.8860  -15.0580 C.ar  179  TRP179      0.0946
    101  CD2       37.3640   21.2020  -15.7280 C.ar  179  TRP179      0.0152
    102  NE1       38.0280   19.7920  -14.1220 N.ar  179  TRP179     -0.2442
    103  CE2       36.9870   20.5850  -14.5180 C.ar  179  TRP179      0.0810
    104  CE3       36.4710   22.0770  -16.3380 C.ar  179  TRP179      0.0012
    105  CZ2       35.7580   20.8260  -13.9090 C.ar  179  TRP179      0.0191
    106  CZ3       35.2490   22.3020  -15.7380 C.ar  179  TRP179      0.0001
    107  CH2       34.9030   21.6840  -14.5410 C.ar  179  TRP179      0.0015
    108  N         40.9770   22.4580  -14.7280 N.am  180  PRO180     -0.2729
    109  CA        42.0360   22.1160  -13.7740 C.3   180  PRO180      0.1401
    110  C         42.6770   20.7490  -13.9920 C.2   180  PRO180      0.2269
    111  O         42.2170   19.9030  -14.7590 O.2   180  PRO180     -0.2865
    112  CB        41.2910   22.1490  -12.4400 C.3   180  PRO180      0.0296
    113  CG        40.2740   23.2190  -12.6370 C.3   180  PRO180      0.0237
    114  CD        39.7670   22.9370  -14.0320 C.3   180  PRO180      0.0939
    115  N         42.6860   27.3340   -9.7350 N.3   204  ALA204     -0.1231
    116  CA        41.2360   27.2710   -9.7760 C.3   204  ALA204      0.1694
    117  C         40.6270   27.8610   -8.5210 C.2   204  ALA204      0.2592
    118  O         41.0640   27.5760   -7.4050 O.2   204  ALA204     -0.2718
    119  CB        40.7640   25.8450   -9.9510 C.3   204  ALA204      0.0304
    120  N         39.5730   28.6470   -8.7140 N.am  205  GLU205     -0.1966
    121  CA        38.7940   29.2200   -7.6220 C.3   205  GLU205      0.1733
    122  C         37.3870   28.6580   -7.6460 C.2   205  GLU205      0.2616
    123  O         36.6470   28.8540   -8.6050 O.2   205  GLU205     -0.2715
    124  CB        38.7330   30.7470   -7.7230 C.3   205  GLU205      0.0429
    125  CG        37.7800   31.3570   -6.7060 C.3   205  GLU205      0.1163
    126  CD        36.3950   31.6340   -7.2730 C.2   205  GLU205      0.3649
    127  OE1       36.3030   32.1010   -8.4310 O.co2 205  GLU205     -0.2457
    128  OE2       35.3990   31.4020   -6.5500 O.co2 205  GLU205     -0.2457
    129  N         37.0220   27.9580   -6.5780 N.am  206  VAL206     -0.1977
    130  CA        35.6330   27.5820   -6.3360 C.3   206  VAL206      0.1596
    131  C         35.3600   27.9980   -4.9050 C.2   206  VAL206      0.2287
    132  O         36.1240   27.6540   -3.9940 O.2   206  VAL206     -0.2864
    133  CB        35.3650   26.0650   -6.5300 C.3   206  VAL206      0.0276
    134  CG1       33.8940   25.7380   -6.2560 C.3   206  VAL206      0.0022
    135  CG2       35.7690   25.6260   -7.9310 C.3   206  VAL206      0.0022
@<TRIPOS>BOND
     1    58    59    1
     2    59    62    1
     3    59    60    1
     4    62    63    1
     5    60    61    2
     6    63    64    1
     7    85    84    2
     8    64    65    1
     9    84    83    1
    10    65    66    2
    11    86    83    1
    12    86    87    1
    13    69    70    1
    14    83    82    1
    15    72    71    2
    16    87    89   ar
    17    87    88   ar
    18    89    91   ar
    19    66    68    1
    20    66    67    1
    21    71    70    1
    22    70    73    1
    23    82    77   am
    24    88    90   ar
    25    91    92   ar
    26    94    95    1
    27    73    74    1
    28    77    78    2
    29    77    76    1
    30    90    92   ar
    31    92    93    1
    32    75    76    1
    33    98    95    1
    34    98    99    1
    35    76    79    1
    36    95    96    1
    37    97    96    2
    38    79    80    1
    39    79    81    1
    40   104   106   ar
    41   104   101   ar
    42    50    49    2
    43    49    48    1
    44    99   101   ar
    45    99   100   ar
    46    96   108   am
    47   106   107   ar
    48   101   103   ar
    49    34    33    2
    50    51    48    1
    51    51    52    1
    52    44    42   ar
    53    44    46   ar
    54   100   102   ar
    55    48    47    1
    56    42    41   ar
    57    53    52   ar
    58    53    55   ar
    59   111   110    2
    60   108   114    1
    61   108   109    1
    62    52    54   ar
    63    33    32    1
    64    33    36   am
    65   107   105   ar
    66    46    45   ar
    67   103   102   ar
    68   103   105   ar
    69    35    32    1
    70    39    38    2
    71    37    38    1
    72    37    36    1
    73    37    40    1
    74   114   113    1
    75    55    57   ar
    76   110   109    1
    77    41    40    1
    78    41    43   ar
    79    32    31    1
    80   109   112    1
    81    54    56   ar
    82    45    43   ar
    83    57    56   ar
    84   113   112    1
    85    10     8   ar
    86    10    11   ar
    87    30    28    1
    88     8     6   ar
    89     2     3    1
    90     2     1    1
    91     2     5    1
    92    11     9   ar
    93     3     4    2
    94    27    26    2
    95    29    28    1
    96     6     5    1
    97     6     7   ar
    98    28    25    1
    99    26    25    1
   100    23    22    1
   101     9     7   ar
   102   119   116    1
   103   116   115    1
   104   116   117    1
   105    21    22   ar
   106    21    19   ar
   107    25    24    1
   108    22    20   ar
   109    19    17   ar
   110   120   117   am
   111   120   121    1
   112   123   122    2
   113   117   118    2
   114   127   126   ar
   115    20    18   ar
   116   135   133    1
   117   124   121    1
   118   124   125    1
   119    17    18   ar
   120    17    16    1
   121   122   121    1
   122   122   129   am
   123   126   125    1
   124   126   128   ar
   125    12    13    1
   126    16    13    1
   127   129   130    1
   128   133   130    1
   129   133   134    1
   130   130   131    1
   131    13    14    1
   132    14    15    2
   133   131   132    2
