@<TRIPOS>MOLECULE
tmp/4mndA01.pdb
 76 71 0 0 0
SMALL
GASTEIGER

@<TRIPOS>ATOM
      1  N         44.3340   52.5280  133.0500 N.3   325  THR325     -0.1203
      2  CA        45.2520   53.5130  132.4800 C.3   325  THR325      0.1994
      3  C         46.1350   52.8600  131.4240 C.2   325  THR325      0.2617
      4  O         46.4840   53.4780  130.4310 O.2   325  THR325     -0.2717
      5  CB        46.1420   54.1630  133.5650 C.3   325  THR325      0.1784
      6  OG1       46.8360   53.1470  134.2890 O.3   325  THR325     -0.2211
      7  CG2       45.3010   54.9740  134.5240 C.3   325  THR325      0.0376
      8  N         46.4860   51.6040  131.6510 N.am  326  VAL326     -0.1979
      9  CA        47.2930   50.8440  130.6920 C.3   326  VAL326      0.1595
     10  C         46.3990   50.3430  129.5720 C.2   326  VAL326      0.2287
     11  O         46.8460   50.1260  128.4520 O.2   326  VAL326     -0.2864
     12  CB        47.9610   49.6340  131.3520 C.3   326  VAL326      0.0276
     13  CG1       49.3910   49.4680  130.8270 C.3   326  VAL326      0.0022
     14  CG2       47.9650   49.7860  132.8670 C.3   326  VAL326      0.0022
     15  N         46.2170   52.6260  126.3880 N.3   329  PHE329     -0.1241
     16  CA        47.2920   52.4960  125.4020 C.3   329  PHE329      0.1605
     17  C         47.1130   51.2530  124.5590 C.2   329  PHE329      0.2264
     18  O         47.4040   51.2580  123.3490 O.2   329  PHE329     -0.2867
     19  CB        48.6520   52.4840  126.1000 C.3   329  PHE329      0.0534
     20  CG        49.0340   53.8040  126.6890 C.ar  329  PHE329     -0.0203
     21  CD1       50.0060   54.6030  126.0770 C.ar  329  PHE329     -0.0042
     22  CD2       48.4220   54.2700  127.8480 C.ar  329  PHE329     -0.0042
     23  CE1       50.3650   55.8250  126.6160 C.ar  329  PHE329     -0.0003
     24  CE2       48.7770   55.5040  128.3920 C.ar  329  PHE329     -0.0003
     25  CZ        49.7530   56.2790  127.7710 C.ar  329  PHE329     -0.0000
     26  N         47.6760   43.1980  133.9280 N.3   384  PHE384     -0.1241
     27  CA        48.4120   44.4060  133.6690 C.3   384  PHE384      0.1605
     28  C         49.4590   44.1900  132.5640 C.2   384  PHE384      0.2264
     29  O         49.6190   45.0330  131.6670 O.2   384  PHE384     -0.2867
     30  CB        49.0960   44.8880  134.9460 C.3   384  PHE384      0.0534
     31  CG        50.0730   45.9970  134.7250 C.ar  384  PHE384     -0.0203
     32  CD1       49.6560   47.3240  134.7410 C.ar  384  PHE384     -0.0042
     33  CD2       51.4220   45.7240  134.5000 C.ar  384  PHE384     -0.0042
     34  CE1       50.5650   48.3550  134.5360 C.ar  384  PHE384     -0.0003
     35  CE2       52.3330   46.7590  134.2960 C.ar  384  PHE384     -0.0003
     36  CZ        51.9030   48.0680  134.3140 C.ar  384  PHE384     -0.0000
     37  N         49.8190   45.9770  128.8090 N.3   388  LEU388     -0.1245
     38  CA        51.0740   46.6310  128.4750 C.3   388  LEU388      0.1561
     39  C         51.7340   45.9740  127.2640 C.2   388  LEU388      0.2260
     40  O         52.3030   46.6410  126.4340 O.2   388  LEU388     -0.2867
     41  CB        52.0160   46.6120  129.6840 C.3   388  LEU388      0.0270
     42  CG        53.3360   47.3860  129.5360 C.3   388  LEU388      0.0019
     43  CD1       53.5890   48.2690  130.7560 C.3   388  LEU388      0.0001
     44  CD2       54.5010   46.4290  129.2980 C.3   388  LEU388      0.0001
     45  N         49.8220   46.9900  124.1190 N.3   391  ALA391     -0.1231
     46  CA        50.1810   48.3820  123.8040 C.3   391  ALA391      0.1694
     47  C         51.6140   48.4770  123.2570 C.2   391  ALA391      0.2591
     48  O         51.9050   49.3040  122.4320 O.2   391  ALA391     -0.2718
     49  CB        50.0300   49.2550  125.0330 C.3   391  ALA391      0.0304
     50  N         52.4790   47.6080  123.7300 N.am  392  ALA392     -0.1980
     51  CA        53.8760   47.6220  123.3220 C.3   392  ALA392      0.1597
     52  C         54.0440   47.2270  121.8380 C.2   392  ALA392      0.2287
     53  O         54.6430   47.9630  121.0640 O.2   392  ALA392     -0.2864
     54  CB        54.6980   46.6940  124.2170 C.3   392  ALA392      0.0319
     55  N         51.6970   49.6770  119.2260 N.3   395  LEU395     -0.1231
     56  CA        52.2730   51.0090  118.9960 C.3   395  LEU395      0.1693
     57  C         53.6230   50.9340  118.2880 C.2   395  LEU395      0.2592
     58  O         53.9660   51.8110  117.4890 O.2   395  LEU395     -0.2718
     59  CB        52.4160   51.7580  120.3240 C.3   395  LEU395      0.0284
     60  CG        51.0950   52.1030  121.0160 C.3   395  LEU395      0.0019
     61  CD1       51.3450   52.7100  122.3810 C.3   395  LEU395      0.0001
     62  CD2       50.2630   53.0460  120.1510 C.3   395  LEU395      0.0001
     63  N         54.3860   49.8910  118.5770 N.am  396  THR396     -0.1953
     64  CA        55.6590   49.7150  117.9480 C.3   396  THR396      0.1897
     65  C         55.4570   49.4960  116.4530 C.2   396  THR396      0.2313
     66  O         56.0590   50.1930  115.6260 O.2   396  THR396     -0.2863
     67  CB        56.4150   48.5500  118.5560 C.3   396  THR396      0.1794
     68  OG1       56.5600   48.7660  119.9760 O.3   396  THR396     -0.2208
     69  CG2       57.8330   48.4020  117.8980 C.3   396  THR396      0.0378
     70  N         54.2840   52.7620  114.9540 N.3   399  VAL399     -0.1245
     71  CA        55.3950   53.7220  114.7920 C.3   399  VAL399      0.1561
     72  C         56.3270   53.3260  113.6270 C.2   399  VAL399      0.2260
     73  O         56.6500   54.1600  112.7750 O.2   399  VAL399     -0.2867
     74  CB        56.2200   53.8570  116.0790 C.3   399  VAL399      0.0252
     75  CG1       57.5350   54.5660  115.7970 C.3   399  VAL399      0.0019
     76  CG2       55.4280   54.6060  117.1320 C.3   399  VAL399      0.0019
@<TRIPOS>BOND
     1    73    72    2
     2    72    71    1
     3    71    70    1
     4    71    74    1
     5    66    65    2
     6    75    74    1
     7    74    76    1
     8    65    64    1
     9    58    57    2
    10    69    67    1
    11    64    67    1
    12    64    63    1
    13    57    63   am
    14    57    56    1
    15    67    68    1
    16    56    55    1
    17    56    59    1
    18    62    60    1
    19    59    60    1
    20    60    61    1
    21    53    52    2
    22    52    51    1
    23    48    47    2
    24    47    50   am
    25    47    46    1
    26    51    50    1
    27    51    54    1
    28    18    17    2
    29    46    45    1
    30    46    49    1
    31    17    16    1
    32    16    19    1
    33    16    15    1
    34    21    23   ar
    35    21    20   ar
    36    19    20    1
    37    40    39    2
    38    23    25   ar
    39    20    22   ar
    40    39    38    1
    41    25    24   ar
    42    22    24   ar
    43    11    10    2
    44    38    37    1
    45    38    41    1
    46    44    42    1
    47    42    41    1
    48    42    43    1
    49    10     9    1
    50     4     3    2
    51     9    12    1
    52     9     8    1
    53    13    12    1
    54    12    14    1
    55     3     8   am
    56     3     2    1
    57    29    28    2
    58     2     1    1
    59     2     5    1
    60    28    27    1
    61     5     6    1
    62     5     7    1
    63    27    26    1
    64    27    30    1
    65    35    36   ar
    66    35    33   ar
    67    36    34   ar
    68    33    31   ar
    69    34    32   ar
    70    31    32   ar
    71    31    30    1
