@<TRIPOS>MOLECULE
tmp/4mnfA00.pdb
 164 155 0 0 0
SMALL
GASTEIGER

@<TRIPOS>ATOM
      1  N          5.4760   13.3190  -54.0540 N.3    15  ILE15      -0.1231
      2  CA         6.3730   12.8550  -53.0050 C.3    15  ILE15       0.1692
      3  C          5.5850   12.0880  -51.9190 C.2    15  ILE15       0.2593
      4  O          6.0800   11.1420  -51.2950 O.2    15  ILE15      -0.2718
      5  CB         7.1080   14.1010  -52.4150 C.3    15  ILE15       0.0266
      6  CG1        8.1320   14.5980  -53.4180 C.3    15  ILE15       0.0019
      7  CG2        7.7760   13.8310  -51.0820 C.3    15  ILE15       0.0020
      8  CD1        8.8480   13.4800  -54.1430 C.3    15  ILE15       0.0001
      9  N          4.3450   12.5090  -51.7020 N.am   16  GLY16      -0.1942
     10  CA         3.5060   11.8810  -50.7080 C.3    16  GLY16       0.2014
     11  C          2.4200   12.7940  -50.1960 C.2    16  GLY16       0.2640
     12  O          1.9820   13.7280  -50.8750 O.2    16  GLY16      -0.2714
     13  N          1.9900   12.5140  -48.9710 N.am   17  SER17      -0.1935
     14  CA         0.9000   13.2560  -48.3630 C.3    17  SER17       0.2055
     15  C          1.3290   14.1110  -47.1610 C.2    17  SER17       0.2643
     16  O          2.3300   13.8400  -46.4870 O.2    17  SER17      -0.2714
     17  CB        -0.2310   12.3010  -47.9810 C.3    17  SER17       0.2130
     18  OG        -1.4280   13.0010  -47.6700 O.3    17  SER17      -0.2179
     19  N          0.5530   15.1620  -46.9230 N.am   18  GLY18      -0.1954
     20  CA         0.6820   15.9710  -45.7260 C.3    18  GLY18       0.1869
     21  C         -0.6510   16.0380  -45.0070 C.2    18  GLY18       0.2309
     22  O         -1.5130   15.1860  -45.2130 O.2    18  GLY18      -0.2863
     23  N          1.7850   16.3170  -51.3300 N.3    23  VAL23      -0.1245
     24  CA         3.1210   16.8890  -51.4190 C.3    23  VAL23       0.1561
     25  C          3.8270   16.5680  -52.7500 C.2    23  VAL23       0.2260
     26  O          3.8960   15.4200  -53.1880 O.2    23  VAL23      -0.2867
     27  CB         4.0160   16.4550  -50.2230 C.3    23  VAL23       0.0252
     28  CG1        5.3980   17.1100  -50.3120 C.3    23  VAL23       0.0019
     29  CG2        3.3530   16.8120  -48.9060 C.3    23  VAL23       0.0019
     30  N          9.3210   22.5030  -51.8680 N.3    33  ALA33      -0.1245
     31  CA         8.2530   21.5700  -51.5730 C.3    33  ALA33       0.1562
     32  C          6.9370   22.3020  -51.7110 C.2    33  ALA33       0.2260
     33  O          6.8140   23.4680  -51.3430 O.2    33  ALA33      -0.2867
     34  CB         8.4180   20.9710  -50.1950 C.3    33  ALA33       0.0290
     35  N          2.8360   21.7020  -50.8910 N.3    35  LYS35      -0.1245
     36  CA         1.6480   20.9820  -50.4390 C.3    35  LYS35       0.1561
     37  C          0.4170   21.6120  -51.0570 C.2    35  LYS35       0.2260
     38  O          0.1150   22.7860  -50.8320 O.2    35  LYS35      -0.2867
     39  CB         1.5250   20.9690  -48.9210 C.3    35  LYS35       0.0271
     40  CG         0.4940   19.9770  -48.4120 C.3    35  LYS35       0.0035
     41  CD         0.4320   19.9560  -46.8910 C.3    35  LYS35       0.0206
     42  CE        -0.1120   21.2650  -46.3630 C.3    35  LYS35       0.1093
     43  NZ        -0.4830   21.1270  -44.9320 N.3    35  LYS35      -0.1314
     44  N         -3.0510   27.6420  -41.5750 N.3    53  GLU53      -0.1245
     45  CA        -1.6810   27.1550  -41.7390 C.3    53  GLU53       0.1567
     46  C         -0.7700   28.2670  -42.2250 C.2    53  GLU53       0.2260
     47  O          0.2610   28.5560  -41.6060 O.2    53  GLU53      -0.2867
     48  CB        -1.6230   25.9810  -42.7070 C.3    53  GLU53       0.0388
     49  CG        -0.3020   25.2320  -42.6810 C.3    53  GLU53       0.1160
     50  CD        -0.3800   23.9060  -43.4300 C.2    53  GLU53       0.3649
     51  OE1       -1.5010   23.5220  -43.8520 O.co2  53  GLU53      -0.2457
     52  OE2        0.6760   23.2530  -43.5910 O.co2  53  GLU53      -0.2457
     53  N          2.3430   29.9530  -40.4460 N.3    57  LEU57      -0.1245
     54  CA         3.6370   29.9440  -41.1410 C.3    57  LEU57       0.1561
     55  C          4.3030   31.3300  -41.2840 C.2    57  LEU57       0.2260
     56  O          5.4980   31.4640  -40.9970 O.2    57  LEU57      -0.2867
     57  CB         3.5230   29.2270  -42.4970 C.3    57  LEU57       0.0270
     58  CG         3.3430   27.6960  -42.4370 C.3    57  LEU57       0.0019
     59  CD1        2.9240   27.1430  -43.7780 C.3    57  LEU57       0.0001
     60  CD2        4.6060   27.0010  -41.9730 C.3    57  LEU57       0.0001
     61  N         10.9050   24.5800  -41.1150 N.3    66  LEU66      -0.1245
     62  CA        10.8630   24.5140  -42.5630 C.3    66  LEU66       0.1561
     63  C         10.3600   25.8430  -43.0960 C.2    66  LEU66       0.2260
     64  O          9.2770   26.3110  -42.7410 O.2    66  LEU66      -0.2867
     65  CB         9.9790   23.3440  -43.0240 C.3    66  LEU66       0.0270
     66  CG         9.7810   23.0350  -44.5210 C.3    66  LEU66       0.0019
     67  CD1       11.0080   22.4210  -45.1430 C.3    66  LEU66       0.0001
     68  CD2        8.5980   22.1120  -44.7450 C.3    66  LEU66       0.0001
     69  N          0.6360   25.4620  -50.3830 N.3    79  ILE79      -0.1245
     70  CA         1.7210   26.0050  -49.5770 C.3    79  ILE79       0.1561
     71  C          3.0710   25.6070  -50.1680 C.2    79  ILE79       0.2260
     72  O          3.2740   24.4620  -50.5750 O.2    79  ILE79      -0.2867
     73  CB         1.6080   25.5580  -48.1230 C.3    79  ILE79       0.0252
     74  CG1        0.2680   26.0320  -47.5670 C.3    79  ILE79       0.0019
     75  CG2        2.7540   26.1040  -47.3110 C.3    79  ILE79       0.0019
     76  CD1        0.1560   25.9090  -46.1000 C.3    79  ILE79       0.0001
     77  N          7.3140   25.7020  -49.6500 N.3    81  THR81      -0.1203
     78  CA         8.4190   25.8110  -48.7190 C.3    81  THR81       0.1994
     79  C          9.7080   25.4070  -49.3980 C.2    81  THR81       0.2618
     80  O          9.7250   24.8160  -50.4740 O.2    81  THR81      -0.2717
     81  CB         8.2480   24.8730  -47.4720 C.3    81  THR81       0.1784
     82  OG1        8.4850   23.5130  -47.8630 O.3    81  THR81      -0.2211
     83  CG2        6.8440   25.0100  -46.8250 C.3    81  THR81       0.0376
     84  N         10.7940   25.7320  -48.7230 N.am   82  GLN82      -0.1965
     85  CA        12.0940   25.2320  -49.0780 C.3    82  GLN82       0.1733
     86  C         12.0480   23.7120  -49.2920 C.2    82  GLN82       0.2616
     87  O         11.2780   22.9850  -48.6650 O.2    82  GLN82      -0.2715
     88  CB        13.1110   25.6230  -47.9970 C.3    82  GLN82       0.0408
     89  CG        13.1560   24.7070  -46.8200 C.3    82  GLN82       0.0908
     90  CD        13.9580   25.2810  -45.6560 C.2    82  GLN82       0.2608
     91  OE1       13.4290   25.5000  -44.5560 O.2    82  GLN82      -0.2717
     92  NE2       15.2500   25.4970  -45.8870 N.am   82  GLN82      -0.0878
     93  N         12.8670   23.2540  -50.2220 N.am   83  TRP83      -0.1960
     94  CA        13.0500   21.8410  -50.4260 C.3    83  TRP83       0.1771
     95  C         14.1540   21.3400  -49.5140 C.2    83  TRP83       0.2619
     96  O         15.2230   21.9440  -49.3880 O.2    83  TRP83      -0.2715
     97  CB        13.4030   21.5630  -51.8790 C.3    83  TRP83       0.0590
     98  CG        13.6410   20.1470  -52.1150 C.ar   83  TRP83       0.0006
     99  CD1       14.8440   19.5200  -52.1880 C.ar   83  TRP83       0.0946
    100  CD2       12.6440   19.1330  -52.2820 C.ar   83  TRP83       0.0152
    101  NE1       14.6620   18.1780  -52.4120 N.ar   83  TRP83      -0.2442
    102  CE2       13.3200   17.9140  -52.4730 C.ar   83  TRP83       0.0810
    103  CE3       11.2440   19.1390  -52.2960 C.ar   83  TRP83       0.0012
    104  CZ2       12.6500   16.7150  -52.6640 C.ar   83  TRP83       0.0191
    105  CZ3       10.5750   17.9320  -52.4920 C.ar   83  TRP83       0.0001
    106  CH2       11.2780   16.7480  -52.6730 C.ar   83  TRP83       0.0015
    107  N         13.8830   20.2250  -48.8600 N.am   84  CYS84      -0.1968
    108  CA        14.8990   19.5870  -48.0240 C.3    84  CYS84       0.1712
    109  C         15.3000   18.2660  -48.6800 C.2    84  CYS84       0.2296
    110  O         14.4680   17.4030  -48.9570 O.2    84  CYS84      -0.2864
    111  CB        14.4390   19.4450  -46.5490 C.3    84  CYS84       0.0983
    112  SG        14.2880   21.0180  -45.6920 S.3    84  CYS84      -0.0798
    113  N         12.7280   12.3900  -44.0330 N.3    88  SER88      -0.1217
    114  CA        12.2330   12.5320  -42.6750 C.3    88  SER88       0.1889
    115  C         13.0530   11.6600  -41.7390 C.2    88  SER88       0.2288
    116  O         13.6330   10.6520  -42.1440 O.2    88  SER88      -0.2866
    117  CB        10.7600   12.1370  -42.5830 C.3    88  SER88       0.2089
    118  OG        10.5990   10.7630  -42.8610 O.3    88  SER88      -0.2183
    119  N          8.0610   11.9700  -38.7630 N.3   132  ASN132     -0.1225
    120  CA         7.6870   12.2120  -40.1630 C.3   132  ASN132      0.1785
    121  C          7.7270   13.6770  -40.5790 C.2   132  ASN132      0.2597
    122  O          8.0180   13.9780  -41.7350 O.2   132  ASN132     -0.2718
    123  CB         6.2680   11.7320  -40.4430 C.3   132  ASN132      0.1169
    124  CG         6.1560   10.2400  -40.5110 C.2   132  ASN132      0.2627
    125  OD1        6.2100    9.6480  -41.5950 O.2   132  ASN132     -0.2716
    126  ND2        5.9750    9.6100  -39.3470 N.am  132  ASN132     -0.0877
    127  N          7.3920   14.5740  -39.6370 N.am  133  ASN133     -0.1974
    128  CA         7.3480   16.0250  -39.8750 C.3   133  ASN133      0.1688
    129  C          8.6420   16.7490  -39.5170 C.2   133  ASN133      0.2292
    130  O          8.7210   17.9720  -39.5720 O.2   133  ASN133     -0.2864
    131  CB         6.1840   16.6520  -39.1220 C.3   133  ASN133      0.1181
    132  CG         4.8510   16.3190  -39.7400 C.2   133  ASN133      0.2629
    133  OD1        4.7600   15.9720  -40.9210 O.2   133  ASN133     -0.2716
    134  ND2        3.7950   16.4370  -38.9450 N.am  133  ASN133     -0.0877
    135  N         12.3160   17.0720  -40.8150 N.3   135  PHE135     -0.1241
    136  CA        13.0510   16.8120  -42.0410 C.3   135  PHE135      0.1605
    137  C         14.5140   17.1130  -41.8600 C.2   135  PHE135      0.2264
    138  O         14.8920   18.1550  -41.3340 O.2   135  PHE135     -0.2867
    139  CB        12.4380   17.5970  -43.1880 C.3   135  PHE135      0.0534
    140  CG        10.9810   17.3060  -43.3850 C.ar  135  PHE135     -0.0203
    141  CD1       10.0180   18.1240  -42.8340 C.ar  135  PHE135     -0.0042
    142  CD2       10.5790   16.1970  -44.0980 C.ar  135  PHE135     -0.0042
    143  CE1        8.6900   17.8530  -43.0030 C.ar  135  PHE135     -0.0003
    144  CE2        9.2480   15.9240  -44.2720 C.ar  135  PHE135     -0.0003
    145  CZ         8.3020   16.7470  -43.7180 C.ar  135  PHE135     -0.0000
    146  N          4.8250   20.9590  -41.5480 N.3   146  ASP146     -0.1225
    147  CA         3.4280   20.5430  -41.4990 C.3   146  ASP146      0.1805
    148  C          2.6290   21.1620  -40.3140 C.2   146  ASP146      0.2597
    149  O          2.3130   20.4770  -39.3030 O.2   146  ASP146     -0.2718
    150  CB         3.3010   19.0260  -41.5320 C.3   146  ASP146      0.1424
    151  CG         1.9690   18.5800  -42.0820 C.2   146  ASP146      0.3668
    152  OD1        1.0240   19.4110  -42.0740 O.co2 146  ASP146     -0.2456
    153  OD2        1.8760   17.3940  -42.4940 O.co2 146  ASP146     -0.2456
    154  N          2.2410   22.4340  -40.4950 N.am  147  PHE147     -0.1976
    155  CA         1.5420   23.2250  -39.4600 C.3   147  PHE147      0.1639
    156  C          0.0540   23.3210  -39.7340 C.2   147  PHE147      0.2290
    157  O         -0.5970   24.2840  -39.3570 O.2   147  PHE147     -0.2864
    158  CB         2.1590   24.6350  -39.3040 C.3   147  PHE147      0.0560
    159  CG         3.5350   24.6400  -38.6880 C.ar  147  PHE147     -0.0200
    160  CD1        4.6140   24.2130  -39.4180 C.ar  147  PHE147     -0.0042
    161  CD2        3.7520   25.0920  -37.3890 C.ar  147  PHE147     -0.0042
    162  CE1        5.8870   24.2060  -38.8800 C.ar  147  PHE147     -0.0003
    163  CE2        5.0380   25.0980  -36.8440 C.ar  147  PHE147     -0.0003
    164  CZ         6.1050   24.6540  -37.5930 C.ar  147  PHE147     -0.0000
@<TRIPOS>BOND
     1     8     6    1
     2     1     2    1
     3     6     5    1
     4    26    25    2
     5     2     5    1
     6     2     3    1
     7    25    24    1
     8   106   104   ar
     9   106   105   ar
    10   104   102   ar
    11   105   103   ar
    12   102   101   ar
    13   102   100   ar
    14     5     7    1
    15   101    99   ar
    16   103   100   ar
    17   100    98   ar
    18    99    98   ar
    19    98    97    1
    20     3     9   am
    21     3     4    2
    22    97    94    1
    23    30    31    1
    24    32    31    1
    25    32    33    2
    26     9    10    1
    27    31    34    1
    28    24    23    1
    29    24    27    1
    30    37    38    2
    31    37    36    1
    32    35    36    1
    33    12    11    2
    34    10    11    1
    35    72    71    2
    36    80    79    2
    37    36    39    1
    38    94    93    1
    39    94    95    1
    40    69    70    1
    41    28    27    1
    42    27    29    1
    43    93    86   am
    44    11    13   am
    45    71    70    1
    46    77    78    1
    47    70    73    1
    48    95    96    2
    49    95   107   am
    50    79    84   am
    51    79    78    1
    52    86    85    1
    53    86    87    2
    54    85    84    1
    55    85    88    1
    56    13    14    1
    57   110   109    2
    58    39    40    1
    59   107   108    1
    60    78    81    1
    61   109   108    1
    62    40    41    1
    63    14    17    1
    64    14    15    1
    65    73    74    1
    66    73    75    1
    67   108   111    1
    68    88    89    1
    69    17    18    1
    70    82    81    1
    71    74    76    1
    72    81    83    1
    73    15    19   am
    74    15    16    2
    75    19    20    1
    76    41    42    1
    77    89    90    1
    78   111   112    1
    79    42    43    1
    80    92    90   am
    81    20    21    1
    82    90    91    2
    83    22    21    2
    84    67    66    1
    85    68    66    1
    86    66    65    1
    87   144   142   ar
    88   144   145   ar
    89   142   140   ar
    90   113   114    1
    91    51    50   ar
    92    59    58    1
    93   145   143   ar
    94    52    50   ar
    95    50    49    1
    96   140   139    1
    97   140   141   ar
    98   139   136    1
    99    63    64    2
   100    63    62    1
   101    65    62    1
   102   143   141   ar
   103   118   117    1
   104    48    49    1
   105    48    45    1
   106   114   117    1
   107   114   115    1
   108    62    61    1
   109    57    58    1
   110    57    54    1
   111   153   151   ar
   112    58    60    1
   113    46    45    1
   114    46    47    2
   115   116   115    2
   116   151   152   ar
   117   151   150    1
   118   136   137    1
   119   136   135    1
   120   137   138    2
   121    45    44    1
   122   122   121    2
   123   125   124    2
   124   146   147    1
   125   150   147    1
   126   147   148    1
   127    55    54    1
   128    55    56    2
   129    54    53    1
   130   133   132    2
   131   121   120    1
   132   121   127   am
   133   124   123    1
   134   124   126   am
   135   154   148   am
   136   154   155    1
   137   123   120    1
   138   148   149    2
   139   120   119    1
   140   128   127    1
   141   128   129    1
   142   128   131    1
   143   132   131    1
   144   132   134   am
   145   156   155    1
   146   156   157    2
   147   130   129    2
   148   155   158    1
   149   160   162   ar
   150   160   159   ar
   151   158   159    1
   152   162   164   ar
   153   159   161   ar
   154   164   163   ar
   155   161   163   ar
