@<TRIPOS>MOLECULE
tmp/4mnkA00.pdb
 191 184 0 0 0
SMALL
GASTEIGER

@<TRIPOS>ATOM
      1  N        -14.5910    2.5550  -18.6440 N.3     6  PHE6       -0.1241
      2  CA       -14.1860    2.7990  -20.0250 C.3     6  PHE6        0.1605
      3  C        -13.3060    1.6710  -20.5340 C.2     6  PHE6        0.2264
      4  O        -12.3030    1.3280  -19.9000 O.2     6  PHE6       -0.2867
      5  CB       -13.3990    4.1060  -20.1250 C.3     6  PHE6        0.0534
      6  CG       -14.2520    5.3370  -20.0890 C.ar    6  PHE6       -0.0203
      7  CD1      -14.7090    5.8490  -18.8780 C.ar    6  PHE6       -0.0042
      8  CD2      -14.5880    5.9990  -21.2660 C.ar    6  PHE6       -0.0042
      9  CE1      -15.5010    6.9910  -18.8410 C.ar    6  PHE6       -0.0003
     10  CE2      -15.3760    7.1460  -21.2380 C.ar    6  PHE6       -0.0003
     11  CZ       -15.8320    7.6410  -20.0200 C.ar    6  PHE6       -0.0000
     12  N        -10.9590    0.7620  -23.7510 N.3     8  PRO8       -0.2116
     13  CA       -10.3620    1.3170  -24.9540 C.3     8  PRO8        0.1372
     14  C        -10.0910    0.2410  -26.0020 C.2     8  PRO8        0.2244
     15  O         -9.4960   -0.8010  -25.6990 O.2     8  PRO8       -0.2868
     16  CB        -9.0640    1.9280  -24.4370 C.3     8  PRO8        0.0268
     17  CG        -8.6720    1.0510  -23.2860 C.3     8  PRO8        0.0207
     18  CD        -9.9330    0.3920  -22.7580 C.3     8  PRO8        0.0892
     19  N         -7.9860   -0.0670  -28.2960 N.3    10  TYR10      -0.1241
     20  CA        -6.5730   -0.4000  -28.5340 C.3    10  TYR10       0.1605
     21  C         -6.1450   -1.6740  -27.8040 C.2    10  TYR10       0.2264
     22  O         -5.1760   -2.3230  -28.1980 O.2    10  TYR10      -0.2867
     23  CB        -5.6370    0.7720  -28.1590 C.3    10  TYR10       0.0534
     24  CG        -5.3770    0.9530  -26.6660 C.ar   10  TYR10      -0.0201
     25  CD1       -4.5930    0.0410  -25.9540 C.ar   10  TYR10      -0.0009
     26  CD2       -5.8960    2.0470  -25.9740 C.ar   10  TYR10      -0.0009
     27  CE1       -4.3570    0.1950  -24.5940 C.ar   10  TYR10       0.0417
     28  CE2       -5.6570    2.2160  -24.6100 C.ar   10  TYR10       0.0417
     29  CZ        -4.8900    1.2830  -23.9270 C.ar   10  TYR10       0.1957
     30  OH        -4.6470    1.4260  -22.5780 O.3    10  TYR10      -0.2866
     31  N        -14.3280    3.1660  -26.1680 N.3    31  ALA31      -0.1231
     32  CA       -13.4840    4.3240  -26.4840 C.3    31  ALA31       0.1694
     33  C        -12.4850    3.9500  -27.5870 C.2    31  ALA31       0.2592
     34  O        -11.6900    3.0380  -27.3840 O.2    31  ALA31      -0.2718
     35  CB       -12.7430    4.7830  -25.2270 C.3    31  ALA31       0.0304
     36  N        -12.4890    4.6100  -28.7510 N.am   32  PHE32      -0.1976
     37  CA       -13.3240    5.7530  -29.1140 C.3    32  PHE32       0.1639
     38  C        -13.7600    5.6230  -30.5710 C.2    32  PHE32       0.2290
     39  O        -13.0410    5.0550  -31.4040 O.2    32  PHE32      -0.2864
     40  CB       -12.5250    7.0610  -29.0300 C.3    32  PHE32       0.0560
     41  CG       -12.0590    7.4250  -27.6500 C.ar   32  PHE32      -0.0200
     42  CD1      -12.9040    8.0930  -26.7710 C.ar   32  PHE32      -0.0042
     43  CD2      -10.7560    7.1420  -27.2460 C.ar   32  PHE32      -0.0042
     44  CE1      -12.4730    8.4450  -25.4930 C.ar   32  PHE32      -0.0003
     45  CE2      -10.3100    7.4970  -25.9750 C.ar   32  PHE32      -0.0003
     46  CZ       -11.1700    8.1450  -25.0950 C.ar   32  PHE32      -0.0000
     47  N        -11.6210   11.6500  -27.7470 N.3    74  GLY74      -0.1210
     48  CA       -10.4950   11.2250  -26.9270 C.3    74  GLY74       0.1956
     49  C         -9.5910   12.3930  -26.6060 C.2    74  GLY74       0.2612
     50  O         -9.7960   13.5060  -27.0960 O.2    74  GLY74      -0.2717
     51  N         -8.5930   12.1440  -25.7660 N.am   75  GLY75      -0.1956
     52  CA        -7.5970   13.1560  -25.4520 C.3    75  GLY75       0.1869
     53  C         -6.6320   13.2980  -26.6100 C.2    75  GLY75       0.2309
     54  O         -6.5930   12.4540  -27.5080 O.2    75  GLY75      -0.2863
     55  N        -15.7770   13.1910  -25.8350 N.3   115  ASP115     -0.1239
     56  CA       -14.5250   13.4230  -25.1270 C.3   115  ASP115      0.1674
     57  C        -13.7040   14.4600  -25.8870 C.2   115  ASP115      0.2266
     58  O        -12.9720   14.1340  -26.8250 O.2   115  ASP115     -0.2867
     59  CB       -13.7520   12.1110  -24.9340 C.3   115  ASP115      0.1410
     60  CG       -12.5320   12.2710  -24.0350 C.2   115  ASP115      0.3668
     61  OD1      -11.8390   11.2610  -23.7910 O.co2 115  ASP115     -0.2456
     62  OD2      -12.2570   13.4000  -23.5730 O.co2 115  ASP115     -0.2456
     63  N        -11.0940   17.5780  -25.2700 N.3   117  GLU117     -0.1231
     64  CA       -10.1540   18.1160  -24.2960 C.3   117  GLU117      0.1699
     65  C         -9.2960   19.2170  -24.9280 C.2   117  GLU117      0.2592
     66  O         -8.2490   18.9230  -25.4980 O.2   117  GLU117     -0.2718
     67  CB        -9.2970   16.9790  -23.7180 C.3   117  GLU117      0.0402
     68  CG       -10.1320   15.9110  -23.0040 C.3   117  GLU117      0.1161
     69  CD        -9.3450   14.6880  -22.5550 C.2   117  GLU117      0.3649
     70  OE1       -8.1370   14.8020  -22.2650 O.co2 117  GLU117     -0.2457
     71  OE2       -9.9520   13.6030  -22.4660 O.co2 117  GLU117     -0.2457
     72  N         -9.7100   20.4850  -24.8350 N.am  118  TYR118     -0.1976
     73  CA       -10.8870   20.9520  -24.0900 C.3   118  TYR118      0.1639
     74  C        -11.5920   22.0540  -24.8850 C.2   118  TYR118      0.2290
     75  O        -10.9760   22.6650  -25.7650 O.2   118  TYR118     -0.2864
     76  CB       -10.4660   21.5120  -22.7230 C.3   118  TYR118      0.0560
     77  CG        -9.7210   20.5180  -21.8700 C.ar  118  TYR118     -0.0198
     78  CD1      -10.4030   19.6440  -21.0250 C.ar  118  TYR118     -0.0009
     79  CD2       -8.3310   20.4380  -21.9240 C.ar  118  TYR118     -0.0009
     80  CE1       -9.7140   18.7180  -20.2480 C.ar  118  TYR118      0.0417
     81  CE2       -7.6360   19.5180  -21.1610 C.ar  118  TYR118      0.0417
     82  CZ        -8.3300   18.6630  -20.3270 C.ar  118  TYR118      0.1957
     83  OH        -7.6300   17.7560  -19.5700 O.3   118  TYR118     -0.2866
     84  N        -16.9950   14.0450  -21.2080 N.3   156  ALA156     -0.1245
     85  CA       -15.8570   14.1670  -20.3150 C.3   156  ALA156      0.1562
     86  C        -15.6540   15.6390  -19.9860 C.2   156  ALA156      0.2260
     87  O        -15.7530   16.5030  -20.8660 O.2   156  ALA156     -0.2867
     88  CB       -14.6140   13.5970  -20.9720 C.3   156  ALA156      0.0290
     89  N        -18.5790   13.0950  -16.8870 N.3   185  ASN185     -0.1240
     90  CA       -17.5170   12.2820  -16.3270 C.3   185  ASN185      0.1653
     91  C        -16.3490   13.1860  -15.9640 C.2   185  ASN185      0.2266
     92  O        -15.6290   13.6790  -16.8370 O.2   185  ASN185     -0.2867
     93  CB       -17.1170   11.1980  -17.3280 C.3   185  ASN185      0.1155
     94  CG       -18.2430   10.2140  -17.5960 C.2   185  ASN185      0.2627
     95  OD1      -18.8610    9.6930  -16.6650 O.2   185  ASN185     -0.2716
     96  ND2      -18.5220    9.9620  -18.8710 N.am  185  ASN185     -0.0877
     97  N        -12.8990   14.1770  -14.9040 N.3   187  MET187     -0.1245
     98  CA       -11.5690   13.5800  -15.0140 C.3   187  MET187      0.1570
     99  C        -10.6600   14.0470  -13.8770 C.2   187  MET187      0.2261
    100  O         -9.7480   14.8580  -14.0710 O.2   187  MET187     -0.2867
    101  CB       -10.9730   13.8600  -16.3960 C.3   187  MET187      0.0387
    102  CG       -11.8020   13.2460  -17.5220 C.3   187  MET187      0.0595
    103  SD       -11.1360   13.4870  -19.1720 S.3   187  MET187     -0.1393
    104  CE       -11.5730   15.1940  -19.4840 C.3   187  MET187      0.0692
    105  N         -8.0080   13.3590  -12.2330 N.3   189  TYR189     -0.1227
    106  CA        -6.6880   12.7380  -12.2090 C.3   189  TYR189      0.1736
    107  C         -5.7330   13.5060  -13.1160 C.2   189  TYR189      0.2595
    108  O         -6.1150   14.5210  -13.7100 O.2   189  TYR189     -0.2718
    109  CB        -6.7550   11.2460  -12.5840 C.3   189  TYR189      0.0548
    110  CG        -7.7000   10.9010  -13.7160 C.ar  189  TYR189     -0.0200
    111  CD1       -7.2900   10.9880  -15.0470 C.ar  189  TYR189     -0.0009
    112  CD2       -9.0010   10.4680  -13.4550 C.ar  189  TYR189     -0.0009
    113  CE1       -8.1610   10.6630  -16.0910 C.ar  189  TYR189      0.0417
    114  CE2       -9.8760   10.1420  -14.4900 C.ar  189  TYR189      0.0417
    115  CZ        -9.4500   10.2390  -15.8000 C.ar  189  TYR189      0.1957
    116  OH       -10.3310    9.9110  -16.8060 O.3   189  TYR189     -0.2866
    117  N         -4.4960   13.0180  -13.2080 N.am  190  ASP190     -0.1974
    118  CA        -3.4090   13.6840  -13.9320 C.3   190  ASP190      0.1709
    119  C         -3.1000   15.0740  -13.3670 C.2   190  ASP190      0.2293
    120  O         -2.7710   16.0050  -14.1100 O.2   190  ASP190     -0.2864
    121  CB        -3.6730   13.7130  -15.4480 C.3   190  ASP190      0.1436
    122  CG        -3.5110   12.3450  -16.0980 C.2   190  ASP190      0.3671
    123  OD1       -2.8230   11.4760  -15.5160 O.co2 190  ASP190     -0.2456
    124  OD2       -4.0680   12.1450  -17.2000 O.co2 190  ASP190     -0.2456
    125  N         -4.5910    3.6380  -13.6240 N.3   236  PHE236     -0.1241
    126  CA        -3.1780    3.7360  -13.9270 C.3   236  PHE236      0.1605
    127  C         -2.5510    4.7100  -12.9420 C.2   236  PHE236      0.2264
    128  O         -3.2490    5.5230  -12.3270 O.2   236  PHE236     -0.2867
    129  CB        -2.9690    4.2370  -15.3620 C.3   236  PHE236      0.0534
    130  CG        -3.4140    5.6610  -15.5790 C.ar  236  PHE236     -0.0203
    131  CD1       -4.7390    5.9540  -15.8850 C.ar  236  PHE236     -0.0042
    132  CD2       -2.5090    6.7150  -15.4590 C.ar  236  PHE236     -0.0042
    133  CE1       -5.1560    7.2700  -16.0730 C.ar  236  PHE236     -0.0003
    134  CE2       -2.9210    8.0350  -15.6460 C.ar  236  PHE236     -0.0003
    135  CZ        -4.2460    8.3100  -15.9530 C.ar  236  PHE236     -0.0000
    136  N          0.9720    7.4630  -12.3050 N.3   238  ARG238     -0.1245
    137  CA         2.0060    8.2640  -12.9470 C.3   238  ARG238      0.1563
    138  C          3.3470    7.9570  -12.2990 C.2   238  ARG238      0.2260
    139  O          3.4530    7.8950  -11.0690 O.2   238  ARG238     -0.2867
    140  CB         1.6830    9.7560  -12.8490 C.3   238  ARG238      0.0307
    141  CG         0.5070   10.2020  -13.7070 C.3   238  ARG238      0.0489
    142  CD         0.9230   10.3830  -15.1520 C.3   238  ARG238      0.2205
    143  NE        -0.2240   10.5800  -16.0300 N.pl3 238  ARG238     -0.0865
    144  CZ        -0.1880   10.4310  -17.3500 C.cat 238  ARG238      0.5346
    145  NH1        0.9410   10.0800  -17.9550 N.pl3 238  ARG238      0.1354
    146  NH2       -1.2840   10.6290  -18.0660 N.pl3 238  ARG238      0.1354
    147  N          3.5230    6.4120  -17.3580 N.3   263  ALA263     -0.1245
    148  CA         2.2610    5.8080  -16.9270 C.3   263  ALA263      0.1562
    149  C          2.3500    4.2910  -16.8050 C.2   263  ALA263      0.2260
    150  O          2.9020    3.6200  -17.6820 O.2   263  ALA263     -0.2867
    151  CB         1.1320    6.2000  -17.8670 C.3   263  ALA263      0.0290
    152  N        -16.4980    6.7120  -12.1740 N.3   321  PHE321     -0.1241
    153  CA       -16.0420    6.0010  -13.3660 C.3   321  PHE321      0.1605
    154  C        -14.5740    5.6230  -13.2600 C.2   321  PHE321      0.2264
    155  O        -13.8140    6.2670  -12.5390 O.2   321  PHE321     -0.2867
    156  CB       -16.3440    6.7800  -14.6660 C.3   321  PHE321      0.0534
    157  CG       -15.3440    7.8550  -15.0130 C.ar  321  PHE321     -0.0203
    158  CD1      -14.1430    7.5380  -15.6440 C.ar  321  PHE321     -0.0042
    159  CD2      -15.6320    9.1920  -14.7650 C.ar  321  PHE321     -0.0042
    160  CE1      -13.2330    8.5320  -15.9880 C.ar  321  PHE321     -0.0003
    161  CE2      -14.7280   10.1960  -15.1100 C.ar  321  PHE321     -0.0003
    162  CZ       -13.5250    9.8650  -15.7200 C.ar  321  PHE321     -0.0000
    163  N        -11.1360    4.9940  -15.6420 N.3   323  TRP323     -0.1227
    164  CA       -10.3580    4.9460  -16.8750 C.3   323  TRP323      0.1737
    165  C         -9.0400    4.2340  -16.5710 C.2   323  TRP323      0.2596
    166  O         -8.2720    4.7320  -15.7480 O.2   323  TRP323     -0.2718
    167  CB       -10.0440    6.3490  -17.4230 C.3   323  TRP323      0.0564
    168  CG        -9.1450    6.2330  -18.6180 C.ar  323  TRP323      0.0003
    169  CD1       -7.7810    6.1380  -18.6120 C.ar  323  TRP323      0.0946
    170  CD2       -9.5490    6.1100  -19.9860 C.ar  323  TRP323      0.0152
    171  NE1       -7.3120    5.9820  -19.8940 N.ar  323  TRP323     -0.2442
    172  CE2       -8.3750    5.9640  -20.7570 C.ar  323  TRP323      0.0810
    173  CE3      -10.7890    6.1260  -20.6380 C.ar  323  TRP323      0.0012
    174  CZ2       -8.4050    5.8310  -22.1510 C.ar  323  TRP323      0.0191
    175  CZ3      -10.8180    5.9900  -22.0220 C.ar  323  TRP323      0.0001
    176  CH2       -9.6340    5.8440  -22.7610 C.ar  323  TRP323      0.0015
    177  N         -8.7370    3.0950  -17.2010 N.am  324  SER324     -0.1952
    178  CA        -9.5940    2.3530  -18.1260 C.3   324  SER324      0.1924
    179  C         -9.5430    0.8840  -17.7000 C.2   324  SER324      0.2314
    180  O         -8.5500    0.4380  -17.1140 O.2   324  SER324     -0.2863
    181  CB        -9.1260    2.5300  -19.5790 C.3   324  SER324      0.2116
    182  OG        -7.7630    2.1670  -19.7600 O.3   324  SER324     -0.2180
    183  N         -6.7420   -1.8500  -17.5800 N.3   327  GLN327     -0.1245
    184  CA        -5.5660   -1.5860  -16.7460 C.3   327  GLN327      0.1566
    185  C         -5.6090   -2.2600  -15.3710 C.2   327  GLN327      0.2260
    186  O         -4.6280   -2.2100  -14.6240 O.2   327  GLN327     -0.2867
    187  CB        -5.3670   -0.0800  -16.5900 C.3   327  GLN327      0.0367
    188  CG        -5.0780    0.6600  -17.8880 C.3   327  GLN327      0.0905
    189  CD        -5.1390    2.1710  -17.7240 C.2   327  GLN327      0.2608
    190  OE1       -5.9120    2.6950  -16.9130 O.2   327  GLN327     -0.2717
    191  NE2       -4.3300    2.8800  -18.4960 N.am  327  GLN327     -0.0878
@<TRIPOS>BOND
     1    39    38    2
     2    38    37    1
     3    37    40    1
     4    37    36    1
     5    40    41    1
     6    36    33   am
     7    20    19    1
     8    20    23    1
     9    20    21    1
    10    22    21    2
    11    23    24    1
    12    47    48    1
    13    41    43   ar
    14    41    42   ar
    15    33    34    2
    16    33    32    1
    17    54    53    2
    18    43    45   ar
    19    50    49    2
    20    48    49    1
    21    58    57    2
    22    42    44   ar
    23    24    26   ar
    24    24    25   ar
    25    53    52    1
    26    49    51   am
    27    32    31    1
    28    32    35    1
    29    14    15    2
    30    14    13    1
    31    45    46   ar
    32    26    28   ar
    33    25    27   ar
    34    57    56    1
    35    55    56    1
    36    51    52    1
    37    75    74    2
    38    66    65    2
    39    44    46   ar
    40    63    64    1
    41    56    59    1
    42    13    16    1
    43    13    12    1
    44    59    60    1
    45    65    72   am
    46    65    64    1
    47    74    73    1
    48    72    73    1
    49    28    29   ar
    50    27    29   ar
    51    16    17    1
    52    64    67    1
    53    73    76    1
    54    60    61   ar
    55    60    62   ar
    56    29    30    1
    57    12    18    1
    58    67    68    1
    59    17    18    1
    60    68    69    1
    61   176   174   ar
    62   176   175   ar
    63    76    77    1
    64    69    71   ar
    65    69    70   ar
    66   174   172   ar
    67   175   173   ar
    68    79    77   ar
    69    79    81   ar
    70    77    78   ar
    71     8    10   ar
    72     8     6   ar
    73    10    11   ar
    74    84    85    1
    75    81    82   ar
    76    78    80   ar
    77    88    85    1
    78    87    86    2
    79   172   170   ar
    80   172   171   ar
    81   173   170   ar
    82     3     2    1
    83     3     4    2
    84    82    80   ar
    85    82    83    1
    86    85    86    1
    87     5     6    1
    88     5     2    1
    89     6     7   ar
    90     2     1    1
    91    11     9   ar
    92   170   168   ar
    93   171   169   ar
    94   182   181    1
    95   181   178    1
    96   104   103    1
    97   103   102    1
    98     7     9   ar
    99    96    94   am
   100   168   169   ar
   101   168   167    1
   102   191   189   am
   103   178   179    1
   104   178   177    1
   105   146   144    1
   106   145   144    1
   107   188   189    1
   108   188   187    1
   109   151   148    1
   110   189   190    2
   111   179   180    2
   112   150   149    2
   113    94    93    1
   114    94    95    2
   115   183   184    1
   116   102   101    1
   117   167   164    1
   118   147   148    1
   119   144   143    2
   120    93    90    1
   121   177   165   am
   122   124   122   ar
   123   148   149    1
   124    89    90    1
   125   164   165    1
   126   164   163    1
   127    92    91    2
   128   116   115    1
   129   184   187    1
   130   184   185    1
   131   165   166    2
   132   101    98    1
   133    90    91    1
   134   122   123   ar
   135   122   121    1
   136   113   115   ar
   137   113   111   ar
   138   133   135   ar
   139   133   131   ar
   140   143   142    1
   141   160   162   ar
   142   160   158   ar
   143   135   134   ar
   144   131   130   ar
   145   115   114   ar
   146   162   161   ar
   147   134   132   ar
   148   158   157   ar
   149   130   132   ar
   150   130   129    1
   151   121   118    1
   152   185   186    2
   153   129   126    1
   154   142   141    1
   155   161   159   ar
   156   111   110   ar
   157    98    97    1
   158    98    99    1
   159   157   159   ar
   160   157   156    1
   161   156   153    1
   162   114   112   ar
   163   120   119    2
   164   100    99    2
   165   118   119    1
   166   118   117    1
   167   126   125    1
   168   126   127    1
   169   110   112   ar
   170   110   109    1
   171   108   107    2
   172   141   140    1
   173   153   154    1
   174   153   152    1
   175   154   155    2
   176   117   107   am
   177   107   106    1
   178   137   140    1
   179   137   136    1
   180   137   138    1
   181   127   128    2
   182   109   106    1
   183   138   139    2
   184   105   106    1
