@<TRIPOS>MOLECULE
tmp/4mnkA01.pdb
 146 150 0 0 0
SMALL
GASTEIGER

@<TRIPOS>ATOM
      1  N         -9.7100   20.4850  -24.8350 N.3   118  TYR118     -0.1241
      2  CA       -10.8870   20.9520  -24.0900 C.3   118  TYR118      0.1605
      3  C        -11.5920   22.0540  -24.8850 C.2   118  TYR118      0.2264
      4  O        -10.9760   22.6650  -25.7650 O.2   118  TYR118     -0.2867
      5  CB       -10.4660   21.5120  -22.7230 C.3   118  TYR118      0.0534
      6  CG        -9.7210   20.5180  -21.8700 C.ar  118  TYR118     -0.0201
      7  CD1      -10.4030   19.6440  -21.0250 C.ar  118  TYR118     -0.0009
      8  CD2       -8.3310   20.4380  -21.9240 C.ar  118  TYR118     -0.0009
      9  CE1       -9.7140   18.7180  -20.2480 C.ar  118  TYR118      0.0417
     10  CE2       -7.6360   19.5180  -21.1610 C.ar  118  TYR118      0.0417
     11  CZ        -8.3300   18.6630  -20.3270 C.ar  118  TYR118      0.1957
     12  OH        -7.6300   17.7560  -19.5700 O.3   118  TYR118     -0.2866
     13  N        -13.0130   18.4010  -17.6340 N.3   158  TYR158     -0.1227
     14  CA       -11.8510   18.7100  -16.8140 C.3   158  TYR158      0.1736
     15  C        -12.2260   18.5630  -15.3390 C.2   158  TYR158      0.2595
     16  O        -13.4080   18.6310  -14.9860 O.2   158  TYR158     -0.2718
     17  CB       -11.4230   20.1450  -17.1290 C.3   158  TYR158      0.0548
     18  CG       -10.0940   20.6000  -16.5670 C.ar  158  TYR158     -0.0200
     19  CD1      -10.0250   21.7140  -15.7340 C.ar  158  TYR158     -0.0009
     20  CD2       -8.9050   19.9440  -16.8930 C.ar  158  TYR158     -0.0009
     21  CE1       -8.8130   22.1580  -15.2260 C.ar  158  TYR158      0.0417
     22  CE2       -7.6860   20.3770  -16.3860 C.ar  158  TYR158      0.0417
     23  CZ        -7.6500   21.4860  -15.5540 C.ar  158  TYR158      0.1957
     24  OH        -6.4540   21.9340  -15.0420 O.3   158  TYR158     -0.2866
     25  N        -11.2290   18.3590  -14.4780 N.am  159  PHE159     -0.1976
     26  CA       -11.4910   18.1480  -13.0520 C.3   159  PHE159      0.1639
     27  C        -12.2020   19.3340  -12.4030 C.2   159  PHE159      0.2290
     28  O        -12.8970   19.1710  -11.4000 O.2   159  PHE159     -0.2864
     29  CB       -10.1980   17.8040  -12.2940 C.3   159  PHE159      0.0560
     30  CG        -9.4620   18.9990  -11.7430 C.ar  159  PHE159     -0.0200
     31  CD1       -8.6440   19.7760  -12.5590 C.ar  159  PHE159     -0.0042
     32  CD2       -9.5730   19.3330  -10.3950 C.ar  159  PHE159     -0.0042
     33  CE1       -7.9590   20.8760  -12.0460 C.ar  159  PHE159     -0.0003
     34  CE2       -8.8950   20.4300   -9.8750 C.ar  159  PHE159     -0.0003
     35  CZ        -8.0850   21.2030  -10.6980 C.ar  159  PHE159     -0.0000
     36  N         -8.9630   27.8350  -17.2110 N.3   164  PHE164     -0.1241
     37  CA        -8.4470   26.9110  -16.2010 C.3   164  PHE164      0.1605
     38  C         -8.3720   27.6690  -14.8580 C.2   164  PHE164      0.2264
     39  O         -8.3930   28.9010  -14.8660 O.2   164  PHE164     -0.2867
     40  CB        -7.0890   26.3730  -16.6650 C.3   164  PHE164      0.0534
     41  CG        -7.1790   25.5330  -17.9120 C.ar  164  PHE164     -0.0203
     42  CD1       -7.0920   26.1190  -19.1730 C.ar  164  PHE164     -0.0042
     43  CD2       -7.3830   24.1600  -17.8250 C.ar  164  PHE164     -0.0042
     44  CE1       -7.1960   25.3460  -20.3300 C.ar  164  PHE164     -0.0003
     45  CE2       -7.4890   23.3780  -18.9750 C.ar  164  PHE164     -0.0003
     46  CZ        -7.3920   23.9740  -20.2300 C.ar  164  PHE164     -0.0000
     47  N         -6.1260   28.5360  -12.7330 N.3   166  TRP166     -0.1241
     48  CA        -5.0460   29.5220  -12.5680 C.3   166  TRP166      0.1605
     49  C         -5.1510   30.7070  -13.5350 C.2   166  TRP166      0.2264
     50  O         -4.5690   31.7690  -13.2910 O.2   166  TRP166     -0.2867
     51  CB        -3.6740   28.8480  -12.6820 C.3   166  TRP166      0.0550
     52  CG        -3.3900   28.2380  -14.0260 C.ar  166  TRP166      0.0003
     53  CD1       -2.7770   28.8430  -15.0870 C.ar  166  TRP166      0.0946
     54  CD2       -3.7020   26.9050  -14.4510 C.ar  166  TRP166      0.0152
     55  NE1       -2.6900   27.9710  -16.1460 N.ar  166  TRP166     -0.2442
     56  CE2       -3.2490   26.7740  -15.7830 C.ar  166  TRP166      0.0810
     57  CE3       -4.3200   25.8070  -13.8350 C.ar  166  TRP166      0.0012
     58  CZ2       -3.3960   25.5890  -16.5130 C.ar  166  TRP166      0.0191
     59  CZ3       -4.4650   24.6280  -14.5620 C.ar  166  TRP166      0.0001
     60  CH2       -4.0040   24.5310  -15.8870 C.ar  166  TRP166      0.0015
     61  N         -8.0080   13.3590  -12.2330 N.3   189  TYR189     -0.1227
     62  CA        -6.6880   12.7380  -12.2090 C.3   189  TYR189      0.1736
     63  C         -5.7330   13.5060  -13.1160 C.2   189  TYR189      0.2595
     64  O         -6.1150   14.5210  -13.7100 O.2   189  TYR189     -0.2718
     65  CB        -6.7550   11.2460  -12.5840 C.3   189  TYR189      0.0548
     66  CG        -7.7000   10.9010  -13.7160 C.ar  189  TYR189     -0.0200
     67  CD1       -7.2900   10.9880  -15.0470 C.ar  189  TYR189     -0.0009
     68  CD2       -9.0010   10.4680  -13.4550 C.ar  189  TYR189     -0.0009
     69  CE1       -8.1610   10.6630  -16.0910 C.ar  189  TYR189      0.0417
     70  CE2       -9.8760   10.1420  -14.4900 C.ar  189  TYR189      0.0417
     71  CZ        -9.4500   10.2390  -15.8000 C.ar  189  TYR189      0.1957
     72  OH       -10.3310    9.9110  -16.8060 O.3   189  TYR189     -0.2866
     73  N         -4.4960   13.0180  -13.2080 N.am  190  ASP190     -0.1960
     74  CA        -3.4090   13.6840  -13.9320 C.3   190  ASP190      0.1840
     75  C         -3.1000   15.0740  -13.3670 C.2   190  ASP190      0.2622
     76  O         -2.7710   16.0050  -14.1100 O.2   190  ASP190     -0.2715
     77  CB        -3.6730   13.7130  -15.4480 C.3   190  ASP190      0.1450
     78  CG        -3.5110   12.3450  -16.0980 C.2   190  ASP190      0.3671
     79  OD1       -2.8230   11.4760  -15.5160 O.co2 190  ASP190     -0.2456
     80  OD2       -4.0680   12.1450  -17.2000 O.co2 190  ASP190     -0.2456
     81  N         -3.1990   15.1960  -12.0450 N.am  191  PHE191     -0.1960
     82  CA        -2.8440   16.4330  -11.3460 C.3   191  PHE191      0.1771
     83  C         -1.3360   16.6130  -11.2620 C.2   191  PHE191      0.2619
     84  O         -0.8440   17.7390  -11.1800 O.2   191  PHE191     -0.2715
     85  CB        -3.4100   16.4530   -9.9220 C.3   191  PHE191      0.0574
     86  CG        -4.8950   16.2460   -9.8410 C.ar  191  PHE191     -0.0200
     87  CD1       -5.7520   16.8190  -10.7740 C.ar  191  PHE191     -0.0042
     88  CD2       -5.4420   15.5020   -8.8040 C.ar  191  PHE191     -0.0042
     89  CE1       -7.1260   16.6290  -10.6910 C.ar  191  PHE191     -0.0003
     90  CE2       -6.8160   15.3110   -8.7110 C.ar  191  PHE191     -0.0003
     91  CZ        -7.6590   15.8790   -9.6560 C.ar  191  PHE191     -0.0000
     92  N         -0.6170   15.4920  -11.2480 N.am  192  HIS192     -0.1973
     93  CA         0.8350   15.4750  -11.1080 C.3   192  HIS192      0.1656
     94  C          1.4130   14.3440  -11.9370 C.2   192  HIS192      0.2291
     95  O          0.7500   13.3350  -12.1700 O.2   192  HIS192     -0.2864
     96  CB         1.2340   15.3310   -9.6380 C.3   192  HIS192      0.0771
     97  CG         0.7080   16.4290   -8.7690 C.ar  192  HIS192      0.0820
     98  ND1        1.1300   17.7370   -8.8850 N.ar  192  HIS192     -0.2267
     99  CD2       -0.2260   16.4200   -7.7900 C.ar  192  HIS192      0.1154
    100  CE1        0.4830   18.4840   -8.0080 C.ar  192  HIS192      0.1986
    101  NE2       -0.3440   17.7090   -7.3300 N.ar  192  HIS192     -0.2212
    102  N          6.0300   15.5800  -15.8940 N.3   195  TRP195     -0.1227
    103  CA         6.2580   16.9550  -16.3410 C.3   195  TRP195      0.1737
    104  C          6.7820   17.8320  -15.2010 C.2   195  TRP195      0.2595
    105  O          7.2820   18.9350  -15.4360 O.2   195  TRP195     -0.2718
    106  CB         4.9880   17.5530  -16.9570 C.3   195  TRP195      0.0564
    107  CG         3.8050   17.6120  -16.0300 C.ar  195  TRP195      0.0003
    108  CD1        3.4890   18.6220  -15.1690 C.ar  195  TRP195      0.0946
    109  CD2        2.7740   16.6260  -15.8880 C.ar  195  TRP195      0.0152
    110  NE1        2.3290   18.3260  -14.4930 N.ar  195  TRP195     -0.2442
    111  CE2        1.8680   17.1070  -14.9160 C.ar  195  TRP195      0.0810
    112  CE3        2.5260   15.3840  -16.4890 C.ar  195  TRP195      0.0012
    113  CZ2        0.7310   16.3890  -14.5300 C.ar  195  TRP195      0.0191
    114  CZ3        1.3950   14.6690  -16.1010 C.ar  195  TRP195      0.0001
    115  CH2        0.5140   15.1760  -15.1300 C.ar  195  TRP195      0.0015
    116  N          6.6560   17.3290  -13.9740 N.am  196  GLU196     -0.1979
    117  CA         7.2050   17.9690  -12.7800 C.3   196  GLU196      0.1602
    118  C          8.4520   17.2160  -12.3290 C.2   196  GLU196      0.2287
    119  O          8.5150   15.9890  -12.4380 O.2   196  GLU196     -0.2864
    120  CB         6.1820   17.9530  -11.6410 C.3   196  GLU196      0.0415
    121  CG         4.8780   18.6870  -11.9270 C.3   196  GLU196      0.1163
    122  CD         3.7390   18.2420  -11.0220 C.2   196  GLU196      0.3649
    123  OE1        3.6710   17.0410  -10.6870 O.co2 196  GLU196     -0.2457
    124  OE2        2.9020   19.0900  -10.6550 O.co2 196  GLU196     -0.2457
    125  N         -4.9240   21.4740   -6.9180 N.3   210  PHE210     -0.1241
    126  CA        -5.1680   20.3780   -7.8570 C.3   210  PHE210      0.1605
    127  C         -5.5540   19.0870   -7.1490 C.2   210  PHE210      0.2264
    128  O         -4.7380   18.1740   -6.9940 O.2   210  PHE210     -0.2867
    129  CB        -3.9570   20.1720   -8.7700 C.3   210  PHE210      0.0534
    130  CG        -3.6390   21.3660   -9.6170 C.ar  210  PHE210     -0.0203
    131  CD1       -2.6250   22.2460   -9.2510 C.ar  210  PHE210     -0.0042
    132  CD2       -4.3730   21.6290  -10.7710 C.ar  210  PHE210     -0.0042
    133  CE1       -2.3360   23.3640  -10.0300 C.ar  210  PHE210     -0.0003
    134  CE2       -4.0910   22.7430  -11.5550 C.ar  210  PHE210     -0.0003
    135  CZ        -3.0720   23.6120  -11.1840 C.ar  210  PHE210     -0.0000
    136  N          0.9720    7.4630  -12.3050 N.3   238  ARG238     -0.1245
    137  CA         2.0060    8.2640  -12.9470 C.3   238  ARG238      0.1563
    138  C          3.3470    7.9570  -12.2990 C.2   238  ARG238      0.2260
    139  O          3.4530    7.8950  -11.0690 O.2   238  ARG238     -0.2867
    140  CB         1.6830    9.7560  -12.8490 C.3   238  ARG238      0.0307
    141  CG         0.5070   10.2020  -13.7070 C.3   238  ARG238      0.0489
    142  CD         0.9230   10.3830  -15.1520 C.3   238  ARG238      0.2205
    143  NE        -0.2240   10.5800  -16.0300 N.pl3 238  ARG238     -0.0865
    144  CZ        -0.1880   10.4310  -17.3500 C.cat 238  ARG238      0.5346
    145  NH1        0.9410   10.0800  -17.9550 N.pl3 238  ARG238      0.1354
    146  NH2       -1.2840   10.6290  -18.0660 N.pl3 238  ARG238      0.1354
@<TRIPOS>BOND
     1     4     3    2
     2     3     2    1
     3     1     2    1
     4     2     5    1
     5     5     6    1
     6     8     6   ar
     7     8    10   ar
     8     6     7   ar
     9    10    11   ar
    10     7     9   ar
    11    44    46   ar
    12    44    42   ar
    13    11     9   ar
    14    11    12    1
    15    46    45   ar
    16    42    41   ar
    17    45    43   ar
    18   146   144    1
    19   145   144    1
    20    41    43   ar
    21    41    40    1
    22    13    14    1
    23   144   143    2
    24    36    37    1
    25    80    78   ar
    26    17    14    1
    27    17    18    1
    28   106   103    1
    29   106   107    1
    30    20    18   ar
    31    20    22   ar
    32    14    15    1
    33    72    71    1
    34    40    37    1
    35    18    19   ar
    36    58    60   ar
    37    58    56   ar
    38   112   114   ar
    39   112   109   ar
    40    22    23   ar
    41   103   102    1
    42   103   104    1
    43    37    38    1
    44    55    56   ar
    45    55    53   ar
    46   114   115   ar
    47    78    79   ar
    48    78    77    1
    49    69    71   ar
    50    69    67   ar
    51   143   142    1
    52   107   109   ar
    53   107   108   ar
    54   109   111   ar
    55    60    59   ar
    56    71    70   ar
    57    56    54   ar
    58    19    21   ar
    59    23    21   ar
    60    23    24    1
    61    77    74    1
    62   105   104    2
    63    15    16    2
    64    15    25   am
    65   104   116   am
    66   108   110   ar
    67   142   141    1
    68   115   113   ar
    69    53    52   ar
    70    67    66   ar
    71   111   113   ar
    72   111   110   ar
    73    39    38    2
    74    59    57   ar
    75    70    68   ar
    76    25    26    1
    77    54    52   ar
    78    54    57   ar
    79    76    75    2
    80    52    51    1
    81   116   117    1
    82    74    75    1
    83    74    73    1
    84    66    68   ar
    85    66    65    1
    86    64    63    2
    87   141   140    1
    88    49    50    2
    89    49    48    1
    90    75    81   am
    91    73    63   am
    92    63    62    1
    93    26    27    1
    94    26    29    1
    95   137   140    1
    96   137   136    1
    97   137   138    1
    98   117   118    1
    99   117   120    1
   100    47    48    1
   101    51    48    1
   102    65    62    1
   103    31    33   ar
   104    31    30   ar
   105   119   118    2
   106    27    28    2
   107   138   139    2
   108    29    30    1
   109    61    62    1
   110    95    94    2
   111    33    35   ar
   112    81    82    1
   113    94    93    1
   114   121   120    1
   115   121   122    1
   116    30    32   ar
   117   134   135   ar
   118   134   132   ar
   119    82    83    1
   120    82    85    1
   121    83    92   am
   122    83    84    2
   123    92    93    1
   124   135   133   ar
   125    93    96    1
   126   122   123   ar
   127   122   124   ar
   128    87    89   ar
   129    87    86   ar
   130   132   130   ar
   131    35    34   ar
   132    89    91   ar
   133    32    34   ar
   134   133   131   ar
   135    85    86    1
   136    86    88   ar
   137    91    90   ar
   138    96    97    1
   139   130   131   ar
   140   130   129    1
   141    98    97   ar
   142    98   100   ar
   143    88    90   ar
   144   129   126    1
   145    97    99   ar
   146   100   101   ar
   147   126   127    1
   148   126   125    1
   149    99   101   ar
   150   127   128    2
