@<TRIPOS>MOLECULE
tmp/4mnmA00.pdb
 127 130 0 0 0
SMALL
GASTEIGER

@<TRIPOS>ATOM
      1  N          9.4220  -20.4880  -24.7210 N.3   118  TYR118     -0.1241
      2  CA        10.5930  -21.0380  -24.0240 C.3   118  TYR118      0.1605
      3  C         11.2540  -22.1480  -24.8500 C.2   118  TYR118      0.2264
      4  O         10.5880  -22.7710  -25.6860 O.2   118  TYR118     -0.2867
      5  CB        10.1820  -21.6100  -22.6490 C.3   118  TYR118      0.0534
      6  CG         9.5390  -20.5820  -21.7640 C.ar  118  TYR118     -0.0201
      7  CD1       10.3070  -19.7340  -20.9720 C.ar  118  TYR118     -0.0009
      8  CD2        8.1510  -20.4330  -21.7440 C.ar  118  TYR118     -0.0009
      9  CE1        9.7040  -18.7630  -20.1740 C.ar  118  TYR118      0.0417
     10  CE2        7.5430  -19.4760  -20.9510 C.ar  118  TYR118      0.0417
     11  CZ         8.3250  -18.6500  -20.1690 C.ar  118  TYR118      0.1957
     12  OH         7.7070  -17.7120  -19.3880 O.3   118  TYR118     -0.2866
     13  N         13.0950  -18.6240  -17.6860 N.3   158  TYR158     -0.1227
     14  CA        11.9530  -18.9230  -16.8350 C.3   158  TYR158      0.1736
     15  C         12.3390  -18.7540  -15.3580 C.2   158  TYR158      0.2595
     16  O         13.5270  -18.8200  -15.0100 O.2   158  TYR158     -0.2718
     17  CB        11.5190  -20.3640  -17.1180 C.3   158  TYR158      0.0548
     18  CG        10.1890  -20.7870  -16.5410 C.ar  158  TYR158     -0.0200
     19  CD1       10.1090  -21.8880  -15.6910 C.ar  158  TYR158     -0.0009
     20  CD2        9.0070  -20.1150  -16.8650 C.ar  158  TYR158     -0.0009
     21  CE1        8.9000  -22.3030  -15.1670 C.ar  158  TYR158      0.0417
     22  CE2        7.7820  -20.5230  -16.3370 C.ar  158  TYR158      0.0417
     23  CZ         7.7440  -21.6130  -15.4840 C.ar  158  TYR158      0.1957
     24  OH         6.5470  -22.0400  -14.9570 O.3   158  TYR158     -0.2866
     25  N         11.3500  -18.5190  -14.4950 N.am  159  PHE159     -0.1976
     26  CA        11.6280  -18.3220  -13.0580 C.3   159  PHE159      0.1639
     27  C         12.3210  -19.5290  -12.4280 C.2   159  PHE159      0.2290
     28  O         13.0430  -19.3950  -11.4390 O.2   159  PHE159     -0.2864
     29  CB        10.3450  -17.9560  -12.2780 C.3   159  PHE159      0.0560
     30  CG         9.5930  -19.1460  -11.7200 C.ar  159  PHE159     -0.0200
     31  CD1        8.7770  -19.9220  -12.5430 C.ar  159  PHE159     -0.0042
     32  CD2        9.7000  -19.4850  -10.3660 C.ar  159  PHE159     -0.0042
     33  CE1        8.0780  -21.0250  -12.0300 C.ar  159  PHE159     -0.0003
     34  CE2        9.0060  -20.5860   -9.8380 C.ar  159  PHE159     -0.0003
     35  CZ         8.1880  -21.3540  -10.6750 C.ar  159  PHE159     -0.0000
     36  N          8.7620  -27.9080  -17.1890 N.3   164  PHE164     -0.1241
     37  CA         8.3010  -26.9610  -16.1680 C.3   164  PHE164      0.1605
     38  C          8.2370  -27.7020  -14.8270 C.2   164  PHE164      0.2264
     39  O          8.2610  -28.9320  -14.8200 O.2   164  PHE164     -0.2867
     40  CB         6.9340  -26.3960  -16.5690 C.3   164  PHE164      0.0534
     41  CG         6.9680  -25.5970  -17.8460 C.ar  164  PHE164     -0.0203
     42  CD1        6.6370  -26.1870  -19.0660 C.ar  164  PHE164     -0.0042
     43  CD2        7.3540  -24.2620  -17.8300 C.ar  164  PHE164     -0.0042
     44  CE1        6.6850  -25.4460  -20.2550 C.ar  164  PHE164     -0.0003
     45  CE2        7.4020  -23.5120  -19.0100 C.ar  164  PHE164     -0.0003
     46  CZ         7.0680  -24.1060  -20.2230 C.ar  164  PHE164     -0.0000
     47  N          6.0200  -28.6040  -12.7720 N.3   166  TRP166     -0.1241
     48  CA         4.9320  -29.5780  -12.6260 C.3   166  TRP166      0.1605
     49  C          4.9920  -30.7630  -13.6040 C.2   166  TRP166      0.2264
     50  O          4.4010  -31.8240  -13.3500 O.2   166  TRP166     -0.2867
     51  CB         3.5800  -28.8710  -12.7360 C.3   166  TRP166      0.0550
     52  CG         3.3550  -28.1690  -14.0410 C.ar  166  TRP166      0.0003
     53  CD1        2.7630  -28.6870  -15.1560 C.ar  166  TRP166      0.0946
     54  CD2        3.7080  -26.8170  -14.3640 C.ar  166  TRP166      0.0152
     55  NE1        2.7210  -27.7430  -16.1550 N.ar  166  TRP166     -0.2442
     56  CE2        3.2970  -26.5860  -15.6980 C.ar  166  TRP166      0.0810
     57  CE3        4.3320  -25.7780  -13.6590 C.ar  166  TRP166      0.0012
     58  CZ2        3.4910  -25.3580  -16.3440 C.ar  166  TRP166      0.0191
     59  CZ3        4.5240  -24.5500  -14.3040 C.ar  166  TRP166      0.0001
     60  CH2        4.1020  -24.3550  -15.6330 C.ar  166  TRP166      0.0015
     61  N          8.2490  -13.4720  -12.1860 N.3   189  TYR189     -0.1227
     62  CA         6.9400  -12.8300  -12.1250 C.3   189  TYR189      0.1736
     63  C          5.9480  -13.5600  -13.0290 C.2   189  TYR189      0.2595
     64  O          6.3060  -14.5550  -13.6810 O.2   189  TYR189     -0.2718
     65  CB         7.0400  -11.3320  -12.4800 C.3   189  TYR189      0.0548
     66  CG         7.8800  -11.0300  -13.7070 C.ar  189  TYR189     -0.0200
     67  CD1        7.3560  -11.1950  -14.9920 C.ar  189  TYR189     -0.0009
     68  CD2        9.1860  -10.5560  -13.5810 C.ar  189  TYR189     -0.0009
     69  CE1        8.1230  -10.9200  -16.1250 C.ar  189  TYR189      0.0417
     70  CE2        9.9540  -10.2710  -14.7050 C.ar  189  TYR189      0.0417
     71  CZ         9.4210  -10.4540  -15.9700 C.ar  189  TYR189      0.1957
     72  OH        10.1840  -10.1790  -17.0900 O.3   189  TYR189     -0.2866
     73  N          4.7140  -13.0510  -13.0690 N.am  190  ASP190     -0.1960
     74  CA         3.5850  -13.6880  -13.7630 C.3   190  ASP190      0.1840
     75  C          3.2810  -15.1080  -13.2600 C.2   190  ASP190      0.2622
     76  O          2.9340  -15.9980  -14.0470 O.2   190  ASP190     -0.2715
     77  CB         3.7720  -13.6500  -15.2900 C.3   190  ASP190      0.1450
     78  CG         3.5410  -12.2610  -15.8760 C.2   190  ASP190      0.3671
     79  OD1        2.8360  -11.4400  -15.2460 O.co2 190  ASP190     -0.2456
     80  OD2        4.0570  -11.9910  -16.9780 O.co2 190  ASP190     -0.2456
     81  N          3.4220  -15.3110  -11.9510 N.am  191  PHE191     -0.1974
     82  CA         3.0400  -16.5860  -11.3060 C.3   191  PHE191      0.1639
     83  C          1.5310  -16.7450  -11.2450 C.2   191  PHE191      0.2290
     84  O          1.0150  -17.8770  -11.2290 O.2   191  PHE191     -0.2864
     85  CB         3.5920  -16.6850   -9.8810 C.3   191  PHE191      0.0560
     86  CG         5.0620  -16.4440   -9.7740 C.ar  191  PHE191     -0.0200
     87  CD1        5.9510  -17.0490  -10.6590 C.ar  191  PHE191     -0.0042
     88  CD2        5.5680  -15.6300   -8.7670 C.ar  191  PHE191     -0.0042
     89  CE1        7.3120  -16.8300  -10.5550 C.ar  191  PHE191     -0.0003
     90  CE2        6.9330  -15.4050   -8.6550 C.ar  191  PHE191     -0.0003
     91  CZ         7.8090  -16.0080   -9.5550 C.ar  191  PHE191     -0.0000
     92  N         -5.8130  -15.3510  -15.8330 N.3   195  TRP195     -0.1241
     93  CA        -6.0090  -16.7250  -16.3060 C.3   195  TRP195      0.1605
     94  C         -6.4960  -17.6340  -15.1740 C.2   195  TRP195      0.2264
     95  O         -6.9990  -18.7320  -15.4200 O.2   195  TRP195     -0.2867
     96  CB        -4.7400  -17.2890  -16.9630 C.3   195  TRP195      0.0550
     97  CG        -3.4760  -17.2040  -16.1310 C.ar  195  TRP195      0.0003
     98  CD1       -2.9850  -18.1550  -15.2790 C.ar  195  TRP195      0.0946
     99  CD2       -2.5350  -16.1200  -16.1060 C.ar  195  TRP195      0.0152
    100  NE1       -1.8010  -17.7230  -14.7160 N.ar  195  TRP195     -0.2442
    101  CE2       -1.5030  -16.4800  -15.2090 C.ar  195  TRP195      0.0810
    102  CE3       -2.4660  -14.8760  -16.7510 C.ar  195  TRP195      0.0012
    103  CZ2       -0.4210  -15.6380  -14.9370 C.ar  195  TRP195      0.0191
    104  CZ3       -1.3850  -14.0420  -16.4840 C.ar  195  TRP195      0.0001
    105  CH2       -0.3770  -14.4300  -15.5840 C.ar  195  TRP195      0.0015
    106  N          4.9760  -21.6650   -6.7620 N.3   212  PHE212     -0.1241
    107  CA         5.2020  -20.5920   -7.7250 C.3   212  PHE212      0.1605
    108  C          5.6430  -19.3030   -7.0390 C.2   212  PHE212      0.2264
    109  O          4.8410  -18.3880   -6.8480 O.2   212  PHE212     -0.2867
    110  CB         3.9490  -20.3300   -8.5660 C.3   212  PHE212      0.0534
    111  CG         3.5840  -21.4550   -9.4910 C.ar  212  PHE212     -0.0203
    112  CD1        2.2980  -21.9930   -9.4700 C.ar  212  PHE212     -0.0042
    113  CD2        4.5180  -21.9810  -10.3820 C.ar  212  PHE212     -0.0042
    114  CE1        1.9430  -23.0350  -10.3270 C.ar  212  PHE212     -0.0003
    115  CE2        4.1780  -23.0220  -11.2370 C.ar  212  PHE212     -0.0003
    116  CZ         2.8880  -23.5550  -11.2100 C.ar  212  PHE212     -0.0000
    117  N         -0.7750   -7.4470  -12.3270 N.3   240  ARG240     -0.1245
    118  CA        -1.8290   -8.2050  -12.9980 C.3   240  ARG240      0.1563
    119  C         -3.1520   -7.8860  -12.3210 C.2   240  ARG240      0.2260
    120  O         -3.2380   -7.8610  -11.0900 O.2   240  ARG240     -0.2867
    121  CB        -1.5540   -9.7110  -12.9580 C.3   240  ARG240      0.0307
    122  CG        -0.3700  -10.1650  -13.8100 C.3   240  ARG240      0.0489
    123  CD        -0.7140  -10.1820  -15.2950 C.3   240  ARG240      0.2205
    124  NE         0.4800  -10.3970  -16.1120 N.pl3 240  ARG240     -0.0865
    125  CZ         0.5410  -10.2220  -17.4270 C.cat 240  ARG240      0.5346
    126  NH1       -0.5340   -9.8320  -18.1070 N.pl3 240  ARG240      0.1354
    127  NH2        1.6880  -10.4340  -18.0650 N.pl3 240  ARG240      0.1354
@<TRIPOS>BOND
     1     4     3    2
     2     3     2    1
     3     1     2    1
     4     2     5    1
     5     5     6    1
     6     6     8   ar
     7     6     7   ar
     8     8    10   ar
     9     7     9   ar
    10    10    11   ar
    11    44    46   ar
    12    44    42   ar
    13    46    45   ar
    14     9    11   ar
    15    11    12    1
    16    42    41   ar
    17    45    43   ar
    18   126   125    1
    19   127   125    1
    20    41    43   ar
    21    41    40    1
    22    13    14    1
    23   125   124    2
    24    36    37    1
    25    17    14    1
    26    17    18    1
    27    72    71    1
    28    80    78   ar
    29    96    93    1
    30    96    97    1
    31    20    18   ar
    32    20    22   ar
    33    14    15    1
    34   102   104   ar
    35   102    99   ar
    36    40    37    1
    37    18    19   ar
    38   104   105   ar
    39    58    56   ar
    40    58    60   ar
    41    22    23   ar
    42    93    92    1
    43    93    94    1
    44    37    38    1
    45    55    56   ar
    46    55    53   ar
    47    97    99   ar
    48    97    98   ar
    49    69    71   ar
    50    69    67   ar
    51   124   123    1
    52    99   101   ar
    53    71    70   ar
    54    78    77    1
    55    78    79   ar
    56    56    54   ar
    57    19    21   ar
    58    60    59   ar
    59   105   103   ar
    60    23    21   ar
    61    23    24    1
    62    95    94    2
    63    15    16    2
    64    15    25   am
    65   123   122    1
    66    77    74    1
    67    98   100   ar
    68   101   103   ar
    69   101   100   ar
    70    53    52   ar
    71    67    66   ar
    72    38    39    2
    73    70    68   ar
    74    25    26    1
    75    54    52   ar
    76    54    57   ar
    77    59    57   ar
    78    76    75    2
    79    52    51    1
    80   122   121    1
    81    74    75    1
    82    74    73    1
    83    66    68   ar
    84    66    65    1
    85    64    63    2
    86    49    50    2
    87    49    48    1
    88    75    81   am
    89    73    63   am
    90    26    27    1
    91    26    29    1
    92    63    62    1
    93   118   121    1
    94   118   117    1
    95   118   119    1
    96    47    48    1
    97    51    48    1
    98    31    33   ar
    99    31    30   ar
   100    65    62    1
   101    27    28    2
   102   119   120    2
   103    29    30    1
   104    61    62    1
   105    33    35   ar
   106    81    82    1
   107    30    32   ar
   108    82    83    1
   109    82    85    1
   110    83    84    2
   111   115   116   ar
   112   115   113   ar
   113   116   114   ar
   114    35    34   ar
   115    87    89   ar
   116    87    86   ar
   117    89    91   ar
   118   113   111   ar
   119    32    34   ar
   120   114   112   ar
   121    85    86    1
   122    86    88   ar
   123    91    90   ar
   124   111   112   ar
   125   111   110    1
   126    88    90   ar
   127   110   107    1
   128   107   108    1
   129   107   106    1
   130   108   109    2
