@<TRIPOS>MOLECULE
tmp/4mnpA00.pdb
 190 176 0 0 0
SMALL
GASTEIGER

@<TRIPOS>ATOM
      1  N         26.7650   20.2470   39.5370 N.3     9  THR9       -0.1203
      2  CA        27.2100   21.6350   39.5720 C.3     9  THR9        0.1994
      3  C         27.6690   22.0200   40.9770 C.2     9  THR9        0.2617
      4  O         28.6110   22.7960   41.1450 O.2     9  THR9       -0.2717
      5  CB        26.0880   22.5900   39.1070 C.3     9  THR9        0.1784
      6  OG1       25.7960   22.3460   37.7260 O.3     9  THR9       -0.2211
      7  CG2       26.4950   24.0470   39.2790 C.3     9  THR9        0.0376
      8  N         27.0040   21.4560   41.9810 N.am   10  ALA10      -0.1979
      9  CA        27.2880   21.7750   43.3760 C.3    10  ALA10       0.1597
     10  C         28.7230   21.4280   43.7640 C.2    10  ALA10       0.2287
     11  O         29.3140   20.4850   43.2340 O.2    10  ALA10      -0.2864
     12  CB        26.3080   21.0540   44.2880 C.3    10  ALA10       0.0319
     13  N         28.7460   21.5320   49.6510 N.3    14  GLN14      -0.1245
     14  CA        27.2900   21.6150   49.6590 C.3    14  GLN14       0.1566
     15  C         26.6270   20.2930   50.0380 C.2    14  GLN14       0.2260
     16  O         27.2530   19.2340   49.9910 O.2    14  GLN14      -0.2867
     17  CB        26.7890   22.0800   48.2920 C.3    14  GLN14       0.0367
     18  CG        27.4340   23.3720   47.8210 C.3    14  GLN14       0.0905
     19  CD        26.8510   23.8780   46.5200 C.2    14  GLN14       0.2608
     20  OE1       27.5830   24.2530   45.6050 O.2    14  GLN14      -0.2717
     21  NE2       25.5270   23.9010   46.4330 N.am   14  GLN14      -0.0878
     22  N         24.3290   18.6880   48.4820 N.3    16  GLU16      -0.1245
     23  CA        24.1490   17.8230   47.3190 C.3    16  GLU16       0.1567
     24  C         25.2960   16.8300   47.2000 C.2    16  GLU16       0.2260
     25  O         25.0860   15.6590   46.8860 O.2    16  GLU16      -0.2867
     26  CB        24.0420   18.6470   46.0330 C.3    16  GLU16       0.0388
     27  CG        22.8420   19.5770   45.9680 C.3    16  GLU16       0.1160
     28  CD        23.1490   20.9680   46.4870 C.2    16  GLU16       0.3649
     29  OE1       23.7900   21.0840   47.5510 O.co2  16  GLU16      -0.2457
     30  OE2       22.7530   21.9470   45.8220 O.co2  16  GLU16      -0.2457
     31  N         26.6570   23.1540   32.8010 N.3    48  ASP48      -0.1225
     32  CA        25.6290   23.1330   33.8340 C.3    48  ASP48       0.1805
     33  C         24.8890   21.8000   33.8850 C.2    48  ASP48       0.2597
     34  O         25.3520   20.7980   33.3400 O.2    48  ASP48      -0.2718
     35  CB        24.6300   24.2720   33.6110 C.3    48  ASP48       0.1424
     36  CG        24.1110   24.3260   32.1830 C.2    48  ASP48       0.3668
     37  OD1       24.3600   23.3730   31.4140 O.co2  48  ASP48      -0.2456
     38  OD2       23.4470   25.3240   31.8320 O.co2  48  ASP48      -0.2456
     39  N         23.7320   21.8060   34.5410 N.am   49  ASP49      -0.1974
     40  CA        22.8930   20.6190   34.6490 C.3    49  ASP49       0.1709
     41  C         22.3820   20.1600   33.2860 C.2    49  ASP49       0.2293
     42  O         22.2580   18.9620   33.0340 O.2    49  ASP49      -0.2864
     43  CB        21.7130   20.8870   35.5880 C.3    49  ASP49       0.1436
     44  CG        21.0570   22.2330   35.3320 C.2    49  ASP49       0.3671
     45  OD1       20.2220   22.6570   36.1610 O.co2  49  ASP49      -0.2456
     46  OD2       21.3810   22.8710   34.3090 O.co2  49  ASP49      -0.2456
     47  N         25.0440   18.1300   31.5280 N.3    52  MET52      -0.1245
     48  CA        25.2630   16.8270   32.1440 C.3    52  MET52       0.1570
     49  C         24.0750   15.8900   31.9380 C.2    52  MET52       0.2261
     50  O         24.2450   14.6730   31.8620 O.2    52  MET52      -0.2867
     51  CB        25.5610   16.9910   33.6350 C.3    52  MET52       0.0387
     52  CG        26.9360   17.5800   33.9100 C.3    52  MET52       0.0595
     53  SD        27.2940   17.7780   35.6630 S.3    52  MET52      -0.1393
     54  CE        26.2980   19.2130   36.0570 C.3    52  MET52       0.0692
     55  N         22.2410   15.3790   38.8360 N.3    65  PHE65      -0.1227
     56  CA        21.1400   16.0300   39.5390 C.3    65  PHE65       0.1736
     57  C         20.3280   16.9190   38.6040 C.2    65  PHE65       0.2595
     58  O         20.8410   17.3990   37.5910 O.2    65  PHE65      -0.2718
     59  CB        21.6670   16.8660   40.7070 C.3    65  PHE65       0.0547
     60  CG        22.0220   16.0620   41.9220 C.ar   65  PHE65      -0.0202
     61  CD1       21.2330   14.9950   42.3200 C.ar   65  PHE65      -0.0042
     62  CD2       23.1450   16.3750   42.6690 C.ar   65  PHE65      -0.0042
     63  CE1       21.5580   14.2570   43.4420 C.ar   65  PHE65      -0.0003
     64  CE2       23.4770   15.6400   43.7900 C.ar   65  PHE65      -0.0003
     65  CZ        22.6830   14.5800   44.1780 C.ar   65  PHE65      -0.0000
     66  N         19.0640   17.1410   38.9570 N.am   66  ALA66      -0.1966
     67  CA        18.1920   18.0340   38.2000 C.3    66  ALA66       0.1728
     68  C         16.9180   18.3550   38.9710 C.2    66  ALA66       0.2616
     69  O         16.3480   17.4910   39.6360 O.2    66  ALA66      -0.2715
     70  CB        17.8410   17.4240   36.8500 C.3    66  ALA66       0.0334
     71  N         16.4790   19.6050   38.8800 N.am   67  GLU67      -0.1977
     72  CA        15.1770   19.9940   39.4020 C.3    67  GLU67       0.1602
     73  C         14.1050   19.5410   38.4190 C.2    67  GLU67       0.2287
     74  O         14.3720   19.4160   37.2250 O.2    67  GLU67      -0.2864
     75  CB        15.1060   21.5060   39.6220 C.3    67  GLU67       0.0415
     76  CG        16.1910   22.0500   40.5360 C.3    67  GLU67       0.1163
     77  CD        16.2760   23.5620   40.5000 C.2    67  GLU67       0.3649
     78  OE1       15.3530   24.1990   39.9480 O.co2  67  GLU67      -0.2457
     79  OE2       17.2690   24.1150   41.0190 O.co2  67  GLU67      -0.2457
     80  N         13.3330   21.9470   35.7180 N.3    70  ARG70      -0.1245
     81  CA        14.4240   22.1070   34.7620 C.3    70  ARG70       0.1563
     82  C         14.1350   21.3350   33.4740 C.2    70  ARG70       0.2260
     83  O         14.7510   21.5830   32.4360 O.2    70  ARG70      -0.2867
     84  CB        15.7450   21.6450   35.3850 C.3    70  ARG70       0.0307
     85  CG        16.9980   22.0350   34.6130 C.3    70  ARG70       0.0489
     86  CD        17.0530   23.5320   34.3550 C.3    70  ARG70       0.2205
     87  NE        18.4150   23.9960   34.1070 N.pl3  70  ARG70      -0.0865
     88  CZ        18.7170   25.1390   33.5000 C.cat  70  ARG70       0.5346
     89  NH1       17.7520   25.9370   33.0650 N.pl3  70  ARG70       0.1354
     90  NH2       19.9860   25.4820   33.3200 N.pl3  70  ARG70       0.1354
     91  N         15.7130   20.3150   48.0340 N.3   123  ASN123     -0.1240
     92  CA        16.9710   21.0250   47.8270 C.3   123  ASN123      0.1653
     93  C         16.8840   22.4940   48.2350 C.2   123  ASN123      0.2266
     94  O         17.6130   23.3400   47.7110 O.2   123  ASN123     -0.2867
     95  CB        17.4070   20.9120   46.3650 C.3   123  ASN123      0.1155
     96  CG        18.9150   20.9270   46.2050 C.2   123  ASN123      0.2627
     97  OD1       19.5790   19.9050   46.3850 O.2   123  ASN123     -0.2716
     98  ND2       19.4640   22.0870   45.8650 N.am  123  ASN123     -0.0877
     99  N         14.5540   29.0190   47.7030 N.3   126  ARG126     -0.1245
    100  CA        15.4530   30.1030   47.3210 C.3   126  ARG126      0.1563
    101  C         15.1000   31.4350   47.9800 C.2   126  ARG126      0.2260
    102  O         13.9270   31.7880   48.1140 O.2   126  ARG126     -0.2867
    103  CB        15.4630   30.2570   45.7980 C.3   126  ARG126      0.0307
    104  CG        15.7940   28.9660   45.0670 C.3   126  ARG126      0.0489
    105  CD        15.7460   29.1320   43.5590 C.3   126  ARG126      0.2205
    106  NE        16.9250   29.8170   43.0400 N.pl3 126  ARG126     -0.0865
    107  CZ        18.0370   29.2000   42.6510 C.cat 126  ARG126      0.5346
    108  NH1       18.1260   27.8790   42.7250 N.pl3 126  ARG126      0.1354
    109  NH2       19.0600   29.9050   42.1880 N.pl3 126  ARG126      0.1354
    110  N         21.9740   38.4240   40.0160 N.3   146  ARG146     -0.1245
    111  CA        22.4710   37.2280   39.3530 C.3   146  ARG146      0.1563
    112  C         21.4340   36.1150   39.4250 C.2   146  ARG146      0.2260
    113  O         20.8440   35.8650   40.4750 O.2   146  ARG146     -0.2867
    114  CB        23.7930   36.7660   39.9780 C.3   146  ARG146      0.0307
    115  CG        24.4280   35.5570   39.2920 C.3   146  ARG146      0.0489
    116  CD        23.9960   34.2370   39.9220 C.3   146  ARG146      0.2205
    117  NE        24.2740   33.0940   39.0560 N.pl3 146  ARG146     -0.0865
    118  CZ        23.9230   31.8430   39.3350 C.cat 146  ARG146      0.5346
    119  NH1       23.2760   31.5680   40.4600 N.pl3 146  ARG146      0.1354
    120  NH2       24.2170   30.8640   38.4910 N.pl3 146  ARG146      0.1354
    121  N         20.5530   31.9550   37.6070 N.3   148  PRO148     -0.2116
    122  CA        20.9810   30.8880   36.6980 C.3   148  PRO148      0.1372
    123  C         20.2710   31.0080   35.3540 C.2   148  PRO148      0.2244
    124  O         19.2660   31.7110   35.2600 O.2   148  PRO148     -0.2868
    125  CB        20.5680   29.6120   37.4350 C.3   148  PRO148      0.0268
    126  CG        19.4310   30.0380   38.3030 C.3   148  PRO148      0.0207
    127  CD        19.7670   31.4350   38.7390 C.3   148  PRO148      0.0892
    128  N         17.8930   30.0300   33.7070 N.3   150  ALA150     -0.1245
    129  CA        16.5830   29.3880   33.7110 C.3   150  ALA150      0.1562
    130  C         15.4810   30.4390   33.6410 C.2   150  ALA150      0.2260
    131  O         15.5480   31.4620   34.3220 O.2   150  ALA150     -0.2867
    132  CB        16.4170   28.5200   34.9470 C.3   150  ALA150      0.0290
    133  N         13.8160   31.7760   36.9440 N.3   153  ASN153     -0.1240
    134  CA        14.6840   32.6690   37.7020 C.3   153  ASN153      0.1653
    135  C         14.8710   34.0110   36.9960 C.2   153  ASN153      0.2266
    136  O         14.9300   35.0590   37.6400 O.2   153  ASN153     -0.2867
    137  CB        16.0390   32.0060   37.9440 C.3   153  ASN153      0.1155
    138  CG        15.9120   30.6540   38.6210 C.2   153  ASN153      0.2627
    139  OD1       15.6040   29.6510   37.9760 O.2   153  ASN153     -0.2716
    140  ND2       16.1490   30.6210   39.9270 N.am  153  ASN153     -0.0877
    141  N         27.3610   29.2370   37.9610 N.3   169  PHE169     -0.1241
    142  CA        27.3050   29.1340   39.4150 C.3   169  PHE169      0.1605
    143  C         28.6830   29.2860   40.0610 C.2   169  PHE169      0.2264
    144  O         28.8030   29.7850   41.1800 O.2   169  PHE169     -0.2867
    145  CB        26.6770   27.7970   39.8160 C.3   169  PHE169      0.0534
    146  CG        26.5400   27.6060   41.2990 C.ar  169  PHE169     -0.0203
    147  CD1       25.6120   28.3370   42.0220 C.ar  169  PHE169     -0.0042
    148  CD2       27.3270   26.6840   41.9680 C.ar  169  PHE169     -0.0042
    149  CE1       25.4800   28.1600   43.3850 C.ar  169  PHE169     -0.0003
    150  CE2       27.1990   26.5020   43.3310 C.ar  169  PHE169     -0.0003
    151  CZ        26.2740   27.2410   44.0400 C.ar  169  PHE169     -0.0000
    152  N         19.4750   32.1630   45.8440 N.3   186  ASN186     -0.1226
    153  CA        19.7060   30.7510   46.1470 C.3   186  ASN186      0.1770
    154  C         19.1620   30.3850   47.5270 C.2   186  ASN186      0.2439
    155  O         18.9300   31.2720   48.3510 O.2   186  ASN186     -0.2733
    156  CB        21.2030   30.4260   46.0740 C.3   186  ASN186      0.1168
    157  CG        21.6020   29.8030   44.7540 C.2   186  ASN186      0.2627
    158  OD1       21.2700   28.6500   44.4750 O.2   186  ASN186     -0.2716
    159  ND2       22.3280   30.5570   43.9390 N.am  186  ASN186     -0.0877
    160  N         18.9520   29.0780   47.7850 N.am  187  PRO187     -0.2729
    161  CA        18.5430   28.6210   49.1210 C.3   187  PRO187      0.1401
    162  C         19.5640   28.9580   50.2060 C.2   187  PRO187      0.2269
    163  O         20.7300   29.1970   49.8960 O.2   187  PRO187     -0.2865
    164  CB        18.4250   27.1030   48.9520 C.3   187  PRO187      0.0296
    165  CG        18.1640   26.9020   47.5100 C.3   187  PRO187      0.0237
    166  CD        18.9460   27.9730   46.8080 C.3   187  PRO187      0.0939
    167  N         22.7540   26.7440   50.3190 N.3   190  THR190     -0.1218
    168  CA        23.7160   27.0790   49.2780 C.3   190  THR190      0.1862
    169  C         24.4730   28.3540   49.6360 C.2   190  THR190      0.2287
    170  O         25.6780   28.4580   49.4040 O.2   190  THR190     -0.2866
    171  CB        23.0220   27.2530   47.9110 C.3   190  THR190      0.1770
    172  OG1       22.2900   26.0630   47.5920 O.3   190  THR190     -0.2211
    173  CG2       24.0450   27.5190   46.8190 C.3   190  THR190      0.0375
    174  N         13.2320   24.4910   45.3730 N.3   211  ASN211     -0.1240
    175  CA        13.9990   23.5480   44.5740 C.3   211  ASN211      0.1653
    176  C         13.9180   22.1310   45.1190 C.2   211  ASN211      0.2266
    177  O         14.1990   21.8910   46.2940 O.2   211  ASN211     -0.2867
    178  CB        15.4660   23.9750   44.4900 C.3   211  ASN211      0.1155
    179  CG        15.6600   25.2460   43.6890 C.2   211  ASN211      0.2627
    180  OD1       16.5780   26.0220   43.9520 O.2   211  ASN211     -0.2716
    181  ND2       14.7970   25.4650   42.7040 N.am  211  ASN211     -0.0877
    182  N         15.2670   18.0160   44.1030 N.3   213  GLN213     -0.1245
    183  CA        16.4500   17.4480   43.4690 C.3   213  GLN213      0.1566
    184  C         16.1940   16.0090   43.0420 C.2   213  GLN213      0.2260
    185  O         15.9210   15.1470   43.8750 O.2   213  GLN213     -0.2867
    186  CB        17.6500   17.5160   44.4160 C.3   213  GLN213      0.0367
    187  CG        19.0030   17.5080   43.7190 C.3   213  GLN213      0.0905
    188  CD        19.4180   18.8820   43.2200 C.2   213  GLN213      0.2608
    189  OE1       18.5780   19.7250   42.9050 O.2   213  GLN213     -0.2717
    190  NE2       20.7230   19.1160   43.1570 N.am  213  GLN213     -0.0878
@<TRIPOS>BOND
     1    37    36   ar
     2    47    48    1
     3    38    36   ar
     4    50    49    2
     5    49    48    1
     6    48    51    1
     7    36    35    1
     8    83    82    2
     9    31    32    1
    10    42    41    2
    11    89    88    1
    12    41    40    1
    13    90    88    1
    14    34    33    2
    15    82    81    1
    16    88    87    2
    17    35    32    1
    18    51    52    1
    19   130   129    1
    20   130   131    2
    21   128   129    1
    22   129   132    1
    23    32    33    1
    24    33    39   am
    25    52    53    1
    26    87    86    1
    27    46    44   ar
    28    86    85    1
    29    39    40    1
    30    85    84    1
    31    40    43    1
    32    81    84    1
    33    81    80    1
    34   124   123    2
    35    44    43    1
    36    44    45   ar
    37   123   122    1
    38    53    54    1
    39   122   125    1
    40   122   121    1
    41    70    67    1
    42   133   134    1
    43   135   136    2
    44   135   134    1
    45    74    73    2
    46   125   126    1
    47    58    57    2
    48   121   127    1
    49   134   137    1
    50     6     5    1
    51   137   138    1
    52   141   142    1
    53   139   138    2
    54    67    66    1
    55    67    68    1
    56   126   127    1
    57    73    72    1
    58   120   118    1
    59    57    66   am
    60    57    56    1
    61   138   140   am
    62    55    56    1
    63    71    68   am
    64    71    72    1
    65    68    69    2
    66   117   118    2
    67   117   116    1
    68     5     7    1
    69     5     2    1
    70   115   116    1
    71   115   114    1
    72   118   119    1
    73   111   112    1
    74   111   114    1
    75   111   110    1
    76    72    75    1
    77   142   145    1
    78   142   143    1
    79   112   113    2
    80     1     2    1
    81    56    59    1
    82     2     3    1
    83    75    76    1
    84   145   146    1
    85    78    77   ar
    86   143   144    2
    87    77    76    1
    88    77    79   ar
    89    59    60    1
    90     3     4    2
    91     3     8   am
    92   146   148   ar
    93   146   147   ar
    94    60    61   ar
    95    60    62   ar
    96   148   150   ar
    97     8     9    1
    98   147   149   ar
    99   109   107    1
   100    61    63   ar
   101   107   108    1
   102   107   106    2
   103    62    64   ar
   104   181   179   am
   105   189   188    2
   106   106   105    1
   107   184   183    1
   108   184   185    2
   109   190   188   am
   110   188   187    1
   111    11    10    2
   112   150   151   ar
   113     9    10    1
   114     9    12    1
   115   149   151   ar
   116    63    65   ar
   117   183   182    1
   118   183   186    1
   119   105   104    1
   120   179   180    2
   121   179   178    1
   122   187   186    1
   123    64    65   ar
   124   159   157   am
   125   158   157    2
   126   178   175    1
   127   175   176    1
   128   175   174    1
   129   157   156    1
   130   104   103    1
   131   176   177    2
   132    20    19    2
   133   103   100    1
   134    30    28   ar
   135   152   153    1
   136    98    96   am
   137    27    26    1
   138    27    28    1
   139    26    23    1
   140   156   153    1
   141   153   154    1
   142    96    95    1
   143    96    97    2
   144    95    92    1
   145    21    19   am
   146    28    29   ar
   147    19    18    1
   148   166   165    1
   149   166   160    1
   150   173   171    1
   151    25    24    2
   152    24    23    1
   153    23    22    1
   154   100    99    1
   155   100   101    1
   156   165   164    1
   157   154   160   am
   158   154   155    2
   159   172   171    1
   160    94    93    2
   161   160   161    1
   162    18    17    1
   163    92    91    1
   164    92    93    1
   165   171   168    1
   166   101   102    2
   167    17    14    1
   168   164   161    1
   169   161   162    1
   170   168   169    1
   171   168   167    1
   172   170   169    2
   173    13    14    1
   174    14    15    1
   175   163   162    2
   176    16    15    2
