@<TRIPOS>MOLECULE
tmp/4mnsA00.pdb
 170 157 0 0 0
SMALL
GASTEIGER

@<TRIPOS>ATOM
      1  N          9.7320   10.0100   17.5000 N.3    22  PHE22      -0.1227
      2  CA         8.7320    9.2230   16.7860 C.3    22  PHE22       0.1736
      3  C          7.3300    9.4150   17.3660 C.2    22  PHE22       0.2595
      4  O          6.3580    9.5260   16.6310 O.2    22  PHE22      -0.2718
      5  CB         9.1430    7.7390   16.8180 C.3    22  PHE22       0.0547
      6  CG         8.1390    6.8040   16.2050 C.ar   22  PHE22      -0.0202
      7  CD1        7.9410    6.7490   14.8300 C.ar   22  PHE22      -0.0042
      8  CD2        7.4190    5.9430   17.0090 C.ar   22  PHE22      -0.0042
      9  CE1        7.0190    5.8700   14.2850 C.ar   22  PHE22      -0.0003
     10  CE2        6.5000    5.0710   16.4770 C.ar   22  PHE22      -0.0003
     11  CZ         6.2980    5.0300   15.1190 C.ar   22  PHE22      -0.0000
     12  N          7.2090    9.4340   18.6870 N.am   23  ILE23      -0.1980
     13  CA         5.8940    9.5510   19.3090 C.3    23  ILE23       0.1595
     14  C          5.4900   10.9890   19.4780 C.2    23  ILE23       0.2287
     15  O          4.3830   11.3460   19.1140 O.2    23  ILE23      -0.2864
     16  CB         5.8520    8.8460   20.6750 C.3    23  ILE23       0.0276
     17  CG1        6.1110    7.3450   20.4950 C.3    23  ILE23       0.0022
     18  CG2        4.5280    9.1040   21.3940 C.3    23  ILE23       0.0022
     19  CD1        5.0880    6.6130   19.6390 C.3    23  ILE23       0.0001
     20  N          4.2070   14.6840   14.1750 N.3    27  ASP27      -0.1239
     21  CA         3.4250   15.6390   13.3990 C.3    27  ASP27       0.1674
     22  C          4.3230   16.4090   12.4500 C.2    27  ASP27       0.2266
     23  O          3.8920   16.7860   11.3670 O.2    27  ASP27      -0.2867
     24  CB         2.6960   16.6200   14.3010 C.3    27  ASP27       0.1410
     25  CG         1.6730   15.9580   15.1940 C.2    27  ASP27       0.3668
     26  OD1        1.3910   14.7310   15.0810 O.co2  27  ASP27      -0.2456
     27  OD2        1.1250   16.6880   16.0450 O.co2  27  ASP27      -0.2456
     28  N          6.7150   12.9230   10.3690 N.3    30  PHE30      -0.1241
     29  CA         6.1280   11.9770    9.4160 C.3    30  PHE30       0.1605
     30  C          5.9730   12.5490    7.9980 C.2    30  PHE30       0.2264
     31  O          6.3960   11.9120    7.0450 O.2    30  PHE30      -0.2867
     32  CB         4.8180   11.3730    9.9120 C.3    30  PHE30       0.0534
     33  CG         4.9530   10.5500   11.1650 C.ar   30  PHE30      -0.0203
     34  CD1        6.0950    9.7920   11.4500 C.ar   30  PHE30      -0.0042
     35  CD2        3.8890   10.4720   12.0470 C.ar   30  PHE30      -0.0042
     36  CE1        6.1700    9.0380   12.6070 C.ar   30  PHE30      -0.0003
     37  CE2        3.9630    9.7090   13.2030 C.ar   30  PHE30      -0.0003
     38  CZ         5.1060    8.9910   13.4840 C.ar   30  PHE30      -0.0000
     39  N          2.4800    9.6860    4.6750 N.3    38  ILE38      -0.1245
     40  CA         1.6650   10.7360    5.2600 C.3    38  ILE38       0.1561
     41  C          2.0030   12.0530    4.5860 C.2    38  ILE38       0.2260
     42  O          3.1570   12.4750    4.5710 O.2    38  ILE38      -0.2867
     43  CB         1.8830   10.8330    6.7860 C.3    38  ILE38       0.0252
     44  CG1        1.2350    9.6120    7.4870 C.3    38  ILE38       0.0019
     45  CG2        1.3280   12.1450    7.3240 C.3    38  ILE38       0.0019
     46  CD1        1.4530    9.5460    8.9820 C.3    38  ILE38       0.0001
     47  N          0.1590   16.5170    8.5630 N.3    41  VAL41      -0.1245
     48  CA        -0.4860   16.3950    9.8450 C.3    41  VAL41       0.1561
     49  C         -0.8450   17.8110   10.2960 C.2    41  VAL41       0.2260
     50  O         -0.0040   18.7080   10.3090 O.2    41  VAL41      -0.2867
     51  CB         0.3960   15.7250   10.9070 C.3    41  VAL41       0.0252
     52  CG1       -0.3670   15.6090   12.2170 C.3    41  VAL41       0.0019
     53  CG2        0.8690   14.3500   10.4480 C.3    41  VAL41       0.0019
     54  N         -6.0520   15.8070   15.9070 N.3    54  LYS54      -0.1245
     55  CA        -5.2380   16.1300   14.7400 C.3    54  LYS54       0.1561
     56  C         -5.7610   15.3750   13.5290 C.2    54  LYS54       0.2260
     57  O         -6.3860   14.3170   13.6560 O.2    54  LYS54      -0.2867
     58  CB        -3.7610   15.8190   14.9930 C.3    54  LYS54       0.0271
     59  CG        -3.4500   14.3440   15.1410 C.3    54  LYS54       0.0035
     60  CD        -1.9790   14.0540   15.3910 C.3    54  LYS54       0.0206
     61  CE        -1.5660   14.2060   16.8380 C.3    54  LYS54       0.1093
     62  NZ        -0.1820   13.6530   17.0110 N.3    54  LYS54      -0.1314
     63  N         -4.5870   13.6430   10.0350 N.3    56  ILE56      -0.1245
     64  CA        -3.4970   13.0450    9.2760 C.3    56  ILE56       0.1561
     65  C         -4.0310   12.7920    7.8810 C.2    56  ILE56       0.2260
     66  O         -5.0050   12.0730    7.7050 O.2    56  ILE56      -0.2867
     67  CB        -3.0220   11.7370    9.9340 C.3    56  ILE56       0.0252
     68  CG1       -2.5070   12.0090   11.3520 C.3    56  ILE56       0.0019
     69  CG2       -1.9140   11.0840    9.1310 C.3    56  ILE56       0.0019
     70  CD1       -3.5390   11.7850   12.4240 C.3    56  ILE56       0.0001
     71  N         -3.3180   11.4700    3.9030 N.3    58  PHE58      -0.1241
     72  CA        -2.5410   10.4730    3.1810 C.3    58  PHE58       0.1605
     73  C         -2.4000   10.8710    1.7240 C.2    58  PHE58       0.2264
     74  O         -3.2960   11.4960    1.1570 O.2    58  PHE58      -0.2867
     75  CB        -3.2110    9.0980    3.2840 C.3    58  PHE58       0.0534
     76  CG        -3.4770    8.6790    4.6920 C.ar   58  PHE58      -0.0203
     77  CD1       -2.4250    8.4110    5.5480 C.ar   58  PHE58      -0.0042
     78  CD2       -4.7720    8.5980    5.1670 C.ar   58  PHE58      -0.0042
     79  CE1       -2.6610    8.0280    6.8540 C.ar   58  PHE58      -0.0003
     80  CE2       -5.0180    8.2330    6.4680 C.ar   58  PHE58      -0.0003
     81  CZ        -3.9620    7.9600    7.3210 C.ar   58  PHE58      -0.0000
     82  N         -7.3930   10.5580    8.4240 N.3    67  VAL67      -0.1245
     83  CA        -8.0010   10.1740    9.6890 C.3    67  VAL67       0.1561
     84  C         -7.8760   11.3390   10.6410 C.2    67  VAL67       0.2260
     85  O         -6.9510   12.1600   10.5300 O.2    67  VAL67      -0.2867
     86  CB        -7.3690    8.9370   10.3800 C.3    67  VAL67       0.0252
     87  CG1       -7.6910    7.6540    9.6370 C.3    67  VAL67       0.0019
     88  CG2       -5.8650    9.0830   10.6010 C.3    67  VAL67       0.0019
     89  N         -7.3150   11.7430   14.6600 N.3    69  ASP69      -0.1239
     90  CA        -6.8570   11.0470   15.8410 C.3    69  ASP69       0.1674
     91  C         -6.9850   11.9630   17.0630 C.2    69  ASP69       0.2266
     92  O         -6.8590   13.1920   16.9720 O.2    69  ASP69      -0.2867
     93  CB        -5.3920   10.6080   15.7000 C.3    69  ASP69       0.1410
     94  CG        -5.1830    9.4630   14.7250 C.2    69  ASP69       0.3668
     95  OD1       -6.1250    8.9740   14.0820 O.co2  69  ASP69      -0.2456
     96  OD2       -4.0040    9.0750   14.6020 O.co2  69  ASP69      -0.2456
     97  N          2.0860    6.1530   25.3030 N.3    81  TYR81      -0.1241
     98  CA         1.2360    7.0530   24.5310 C.3    81  TYR81       0.1605
     99  C         -0.0400    6.3110   24.1550 C.2    81  TYR81       0.2264
    100  O          0.0240    5.2400   23.5680 O.2    81  TYR81      -0.2867
    101  CB         1.9810    7.4900   23.2780 C.3    81  TYR81       0.0534
    102  CG         1.2230    8.4120   22.3260 C.ar   81  TYR81      -0.0201
    103  CD1        0.6930    9.6250   22.7510 C.ar   81  TYR81      -0.0009
    104  CD2        1.0630    8.0890   20.9870 C.ar   81  TYR81      -0.0009
    105  CE1        0.0270   10.4720   21.8740 C.ar   81  TYR81       0.0417
    106  CE2        0.4100    8.9310   20.1140 C.ar   81  TYR81       0.0417
    107  CZ        -0.1120   10.1140   20.5530 C.ar   81  TYR81       0.1957
    108  OH        -0.7680   10.9520   19.6650 O.3    81  TYR81      -0.2866
    109  N         -3.7410    6.8920   22.1920 N.3    83  TYR83      -0.1241
    110  CA        -4.4660    7.7450   21.2680 C.3    83  TYR83       0.1605
    111  C         -5.5050    6.9040   20.5590 C.2    83  TYR83       0.2264
    112  O         -5.4110    5.6900   20.5310 O.2    83  TYR83      -0.2867
    113  CB        -3.5120    8.3940   20.2470 C.3    83  TYR83       0.0534
    114  CG        -2.9890    7.4590   19.1910 C.ar   83  TYR83      -0.0201
    115  CD1       -1.9160    6.6130   19.4430 C.ar   83  TYR83      -0.0009
    116  CD2       -3.5650    7.4210   17.9190 C.ar   83  TYR83      -0.0009
    117  CE1       -1.4360    5.7580   18.4580 C.ar   83  TYR83       0.0417
    118  CE2       -3.1040    6.5580   16.9370 C.ar   83  TYR83       0.0417
    119  CZ        -2.0350    5.7330   17.2100 C.ar   83  TYR83       0.1957
    120  OH        -1.5700    4.8810   16.2350 O.3    83  TYR83      -0.2866
    121  N          0.7350    2.5870   22.9710 N.3   102  ILE102     -0.1245
    122  CA         2.1200    2.3660   22.5860 C.3   102  ILE102      0.1561
    123  C          2.9990    2.5740   23.8050 C.2   102  ILE102      0.2260
    124  O          2.8200    3.5500   24.5420 O.2   102  ILE102     -0.2867
    125  CB         2.5420    3.3680   21.5030 C.3   102  ILE102      0.0252
    126  CG1        1.4630    3.4430   20.4160 C.3   102  ILE102      0.0019
    127  CG2        3.8990    2.9960   20.9030 C.3   102  ILE102      0.0019
    128  CD1        1.7650    4.4650   19.3430 C.3   102  ILE102      0.0001
    129  N          9.1460   -1.2460   20.7620 N.3   114  LEU114     -0.1245
    130  CA         7.8280   -0.6170   20.8100 C.3   114  LEU114      0.1561
    131  C          6.7590   -1.6800   20.9410 C.2   114  LEU114      0.2260
    132  O          6.6420   -2.5510   20.0730 O.2   114  LEU114     -0.2867
    133  CB         7.5540    0.1880   19.5620 C.3   114  LEU114      0.0270
    134  CG         8.5720    1.2610   19.2740 C.3   114  LEU114      0.0019
    135  CD1        9.7190    0.7630   18.4270 C.3   114  LEU114      0.0001
    136  CD2        7.8980    2.4300   18.6030 C.3   114  LEU114      0.0001
    137  N          2.9480   -2.2080   20.8160 N.3   116  ILE116     -0.1245
    138  CA         1.8420   -1.5300   20.1530 C.3   116  ILE116      0.1561
    139  C          0.6030   -2.4010   20.2410 C.2   116  ILE116      0.2260
    140  O          0.6340   -3.5690   19.8620 O.2   116  ILE116     -0.2867
    141  CB         2.1830   -1.3040   18.6650 C.3   116  ILE116      0.0252
    142  CG1        3.4340   -0.4300   18.5590 C.3   116  ILE116      0.0019
    143  CG2        1.0140   -0.7020   17.8990 C.3   116  ILE116      0.0019
    144  CD1        4.2040   -0.6340   17.2810 C.3   116  ILE116      0.0001
    145  N         -2.3600   -1.3630    8.6280 N.3   136  SER136     -0.1217
    146  CA        -1.8210   -0.8200    9.8640 C.3   136  SER136      0.1889
    147  C         -0.3820   -1.2910   10.1120 C.2   136  SER136      0.2288
    148  O          0.4730   -0.5150   10.4850 O.2   136  SER136     -0.2866
    149  CB        -2.7140   -1.2020   11.0200 C.3   136  SER136      0.2089
    150  OG        -2.2690   -0.5980   12.2090 O.3   136  SER136     -0.2183
    151  N          1.8850    0.6280    7.5830 N.3   139  MET139     -0.1230
    152  CA         2.0690    2.0310    7.9500 C.3   139  MET139      0.1702
    153  C          3.0490    2.1770    9.1170 C.2   139  MET139      0.2592
    154  O          3.9460    3.0130    9.0920 O.2   139  MET139     -0.2718
    155  CB         0.7190    2.6670    8.3130 C.3   139  MET139      0.0401
    156  CG         0.8010    4.1370    8.7130 C.3   139  MET139      0.0596
    157  SD         1.3030    5.2460    7.3770 S.3   139  MET139     -0.1393
    158  CE        -0.1840    5.2570    6.3720 C.3   139  MET139      0.0692
    159  N          2.8640    1.3600   10.1400 N.am  140  GLY140     -0.1957
    160  CA         3.7140    1.4450   11.3090 C.3   140  GLY140      0.1869
    161  C          5.1710    1.2050   10.9450 C.2   140  GLY140      0.2309
    162  O          6.0560    1.9020   11.4230 O.2   140  GLY140     -0.2863
    163  N          6.6160    4.2770    8.8190 N.3   143  LEU143     -0.1245
    164  CA         6.8530    5.4660    9.6130 C.3   143  LEU143      0.1561
    165  C          8.0230    5.2940   10.5760 C.2   143  LEU143      0.2260
    166  O          8.8820    6.1690   10.6880 O.2   143  LEU143     -0.2867
    167  CB         5.6000    5.8550   10.3860 C.3   143  LEU143      0.0270
    168  CG         4.3750    6.2540    9.5680 C.3   143  LEU143      0.0019
    169  CD1        3.2160    6.5840   10.5020 C.3   143  LEU143      0.0001
    170  CD2        4.7020    7.4090    8.6300 C.3   143  LEU143      0.0001
@<TRIPOS>BOND
     1    74    73    2
     2    73    72    1
     3    72    75    1
     4    72    71    1
     5    75    76    1
     6    42    41    2
     7    41    40    1
     8    39    40    1
     9    76    78   ar
    10    76    77   ar
    11    78    80   ar
    12    40    43    1
    13    77    79   ar
    14   158   157    1
    15    80    81   ar
    16    43    45    1
    17    43    44    1
    18    79    81   ar
    19    31    30    2
    20   157   156    1
    21    44    46    1
    22   151   152    1
    23    66    65    2
    24    65    64    1
    25   152   155    1
    26   152   153    1
    27    30    29    1
    28   155   156    1
    29    82    83    1
    30    47    48    1
    31   145   146    1
    32   170   168    1
    33   163   164    1
    34   154   153    2
    35   153   159   am
    36    69    67    1
    37    64    67    1
    38    64    63    1
    39    29    32    1
    40    29    28    1
    41   168   167    1
    42   168   169    1
    43   164   167    1
    44   164   165    1
    45    87    86    1
    46    83    86    1
    47    83    84    1
    48    48    49    1
    49    48    51    1
    50   146   147    1
    51   146   149    1
    52    32    33    1
    53    67    68    1
    54   147   148    2
    55   159   160    1
    56    49    50    2
    57    86    88    1
    58    53    51    1
    59    85    84    2
    60   165   166    2
    61    51    52    1
    62   161   160    1
    63   161   162    2
    64   149   150    1
    65    33    34   ar
    66    33    35   ar
    67    68    70    1
    68    23    22    2
    69    34    36   ar
    70    35    37   ar
    71    22    21    1
    72    36    38   ar
    73    37    38   ar
    74    21    20    1
    75    21    24    1
    76    56    57    2
    77    56    55    1
    78    95    94   ar
    79     9     7   ar
    80     9    11   ar
    81    24    25    1
    82    96    94   ar
    83    89    90    1
    84    94    93    1
    85    55    58    1
    86    55    54    1
    87     7     6   ar
    88    58    59    1
    89    26    25   ar
    90    11    10   ar
    91    59    60    1
    92    25    27   ar
    93    60    61    1
    94    93    90    1
    95    90    91    1
    96     6     5    1
    97     6     8   ar
    98   120   119    1
    99    10     8   ar
   100     4     3    2
   101     2     5    1
   102     2     3    1
   103     2     1    1
   104    61    62    1
   105   118   119   ar
   106   118   116   ar
   107    92    91    2
   108   119   117   ar
   109   144   142    1
   110     3    12   am
   111   143   141    1
   112   116   114   ar
   113   135   134    1
   114   117   115   ar
   115   142   141    1
   116   136   134    1
   117   141   138    1
   118    12    13    1
   119    15    14    2
   120   114   115   ar
   121   114   113    1
   122   134   133    1
   123    13    14    1
   124    13    16    1
   125   128   126    1
   126   133   130    1
   127    19    17    1
   128   108   107    1
   129   140   139    2
   130   132   131    2
   131   106   107   ar
   132   106   104   ar
   133   138   139    1
   134   138   137    1
   135   113   110    1
   136   126   125    1
   137    17    16    1
   138   112   111    2
   139   107   105   ar
   140   111   110    1
   141    16    18    1
   142   129   130    1
   143   130   131    1
   144   127   125    1
   145   104   102   ar
   146   110   109    1
   147   125   122    1
   148   105   103   ar
   149   102   103   ar
   150   102   101    1
   151   122   121    1
   152   122   123    1
   153   101    98    1
   154   100    99    2
   155   123   124    2
   156    99    98    1
   157    98    97    1
