@<TRIPOS>MOLECULE
tmp/4mnyA00.pdb
 227 225 0 0 0
SMALL
GASTEIGER

@<TRIPOS>ATOM
      1  N        -18.3160    0.7620  -25.7220 N.3    46  HIS46      -0.1241
      2  CA       -19.7870    0.6650  -25.9040 C.3    46  HIS46       0.1621
      3  C        -20.2220   -0.7070  -26.4390 C.2    46  HIS46       0.2264
      4  O        -21.3580   -1.1100  -26.2210 O.2    46  HIS46      -0.2867
      5  CB       -20.3420    1.8060  -26.7630 C.3    46  HIS46       0.0745
      6  CG       -20.3150    1.5490  -28.2410 C.ar   46  HIS46       0.0817
      7  ND1      -19.3860    2.1240  -29.0810 N.ar   46  HIS46      -0.2268
      8  CD2      -21.1230    0.8030  -29.0300 C.ar   46  HIS46       0.1154
      9  CE1      -19.6240    1.7450  -30.3220 C.ar   46  HIS46       0.1986
     10  NE2      -20.6760    0.9430  -30.3210 N.ar   46  HIS46      -0.2212
     11  N        -20.3610   -2.7850  -22.7760 N.3    49  ILE49      -0.1231
     12  CA       -20.8430   -2.1680  -21.5400 C.3    49  ILE49       0.1692
     13  C        -22.1570   -2.7640  -21.0220 C.2    49  ILE49       0.2592
     14  O        -22.3920   -2.7680  -19.8190 O.2    49  ILE49      -0.2718
     15  CB       -20.9680   -0.6310  -21.7170 C.3    49  ILE49       0.0266
     16  CG1      -21.1760    0.0760  -20.3670 C.3    49  ILE49       0.0019
     17  CG2      -22.0510   -0.2720  -22.7280 C.3    49  ILE49       0.0020
     18  CD1      -19.8800    0.4490  -19.6840 C.3    49  ILE49       0.0001
     19  N        -23.0040   -3.2820  -21.9070 N.am   50  ASP50      -0.1960
     20  CA       -24.2420   -3.9320  -21.4550 C.3    50  ASP50       0.1840
     21  C        -24.0450   -5.3990  -21.0580 C.2    50  ASP50       0.2622
     22  O        -24.8850   -5.9690  -20.3690 O.2    50  ASP50      -0.2715
     23  CB       -25.3410   -3.8070  -22.5140 C.3    50  ASP50       0.1450
     24  CG       -25.7880   -2.3750  -22.7150 C.2    50  ASP50       0.3671
     25  OD1      -25.8060   -1.6030  -21.7270 O.co2  50  ASP50      -0.2456
     26  OD2      -26.1200   -2.0190  -23.8640 O.co2  50  ASP50      -0.2456
     27  N        -22.9480   -6.0010  -21.5020 N.am   51  TYR51      -0.1974
     28  CA       -22.6630   -7.4080  -21.2390 C.3    51  TYR51       0.1639
     29  C        -21.1710   -7.6130  -20.9720 C.2    51  TYR51       0.2290
     30  O        -20.4900   -8.2750  -21.7490 O.2    51  TYR51      -0.2864
     31  CB       -23.1180   -8.2680  -22.4290 C.3    51  TYR51       0.0560
     32  CG       -24.6170   -8.2700  -22.6320 C.ar   51  TYR51      -0.0198
     33  CD1      -25.4290   -9.1370  -21.9170 C.ar   51  TYR51      -0.0009
     34  CD2      -25.2210   -7.3970  -23.5350 C.ar   51  TYR51      -0.0009
     35  CE1      -26.8040   -9.1400  -22.0900 C.ar   51  TYR51       0.0417
     36  CE2      -26.5910   -7.3890  -23.7130 C.ar   51  TYR51       0.0417
     37  CZ       -27.3770   -8.2620  -22.9880 C.ar   51  TYR51       0.1957
     38  OH       -28.7370   -8.2560  -23.1650 O.3    51  TYR51      -0.2866
     39  N        -15.9960    6.0320  -19.2770 N.3    87  TYR87      -0.1241
     40  CA       -16.8540    5.9190  -20.4410 C.3    87  TYR87       0.1605
     41  C        -18.1530    6.6420  -20.1250 C.2    87  TYR87       0.2264
     42  O        -18.6670    6.5520  -19.0140 O.2    87  TYR87      -0.2867
     43  CB       -17.1530    4.4640  -20.8000 C.3    87  TYR87       0.0534
     44  CG       -18.2470    4.3380  -21.8440 C.ar   87  TYR87      -0.0201
     45  CD1      -17.9590    4.4690  -23.2010 C.ar   87  TYR87      -0.0009
     46  CD2      -19.5800    4.1160  -21.4710 C.ar   87  TYR87      -0.0009
     47  CE1      -18.9570    4.3670  -24.1550 C.ar   87  TYR87       0.0417
     48  CE2      -20.5830    4.0210  -22.4180 C.ar   87  TYR87       0.0417
     49  CZ       -20.2680    4.1470  -23.7590 C.ar   87  TYR87       0.1957
     50  OH       -21.2640    4.0410  -24.7010 O.3    87  TYR87      -0.2866
     51  N        -27.4210   10.4010  -26.0540 N.3    91  THR91      -0.1203
     52  CA       -28.1870    9.6150  -27.0280 C.3    91  THR91       0.1994
     53  C        -27.4700    9.4770  -28.3740 C.2    91  THR91       0.2617
     54  O        -27.9720    8.7800  -29.2680 O.2    91  THR91      -0.2717
     55  CB       -29.5920   10.2010  -27.2840 C.3    91  THR91       0.1784
     56  OG1      -29.4790   11.5860  -27.6380 O.3    91  THR91      -0.2211
     57  CG2      -30.4790   10.0380  -26.0420 C.3    91  THR91       0.0376
     58  N        -26.3000   10.1110  -28.5030 N.am   92  LEU92      -0.1979
     59  CA       -25.5590   10.1590  -29.7550 C.3    92  LEU92       0.1596
     60  C        -24.0680    9.8400  -29.5980 C.2    92  LEU92       0.2287
     61  O        -23.5850    8.9210  -30.2230 O.2    92  LEU92      -0.2864
     62  CB       -25.7050   11.5380  -30.3910 C.3    92  LEU92       0.0297
     63  CG       -24.9920   11.7780  -31.7180 C.3    92  LEU92       0.0022
     64  CD1      -25.4490   10.8040  -32.7920 C.3    92  LEU92       0.0001
     65  CD2      -25.1890   13.2200  -32.1720 C.3    92  LEU92       0.0001
     66  N        -20.3640    8.9170  -27.8210 N.3    94  HIS94      -0.1241
     67  CA       -19.7100    8.0590  -26.8530 C.3    94  HIS94       0.1621
     68  C        -18.4120    8.7620  -26.4900 C.2    94  HIS94       0.2264
     69  O        -17.6980    9.2110  -27.3720 O.2    94  HIS94      -0.2867
     70  CB       -19.3800    6.6930  -27.4570 C.3    94  HIS94       0.0745
     71  CG       -20.5480    5.9960  -28.0880 C.ar   94  HIS94       0.0817
     72  ND1      -21.8540    6.2300  -27.7180 N.ar   94  HIS94      -0.2268
     73  CD2      -20.5990    5.0580  -29.0600 C.ar   94  HIS94       0.1154
     74  CE1      -22.6580    5.4730  -28.4400 C.ar   94  HIS94       0.1986
     75  NE2      -21.9230    4.7550  -29.2670 N.ar   94  HIS94      -0.2212
     76  N        -22.9940   -3.4060  -41.0970 N.3   142  LYS142     -0.1245
     77  CA       -24.0370   -3.3570  -42.1100 C.3   142  LYS142      0.1561
     78  C        -23.5970   -2.6200  -43.3700 C.2   142  LYS142      0.2260
     79  O        -22.8600   -1.6390  -43.2850 O.2   142  LYS142     -0.2867
     80  CB       -25.2910   -2.6980  -41.5290 C.3   142  LYS142      0.0271
     81  CG       -25.8870   -3.4510  -40.3520 C.3   142  LYS142      0.0035
     82  CD       -27.1300   -2.7390  -39.8230 C.3   142  LYS142      0.0206
     83  CE       -27.6270   -3.3600  -38.5330 C.3   142  LYS142      0.1093
     84  NZ       -28.4550   -4.5720  -38.7670 N.3   142  LYS142     -0.1314
     85  N        -27.8960    0.9710  -43.6110 N.3   145  SER145     -0.1202
     86  CA       -28.5540    1.1650  -42.3100 C.3   145  SER145      0.2020
     87  C        -29.8400    0.3380  -42.2230 C.2   145  SER145      0.2619
     88  O        -30.2490   -0.0860  -41.1380 O.2   145  SER145     -0.2717
     89  CB       -28.8630    2.6460  -42.0770 C.3   145  SER145      0.2103
     90  OG       -27.6790    3.3830  -41.7790 O.3   145  SER145     -0.2182
     91  N        -30.4570    0.1050  -43.3780 N.am  146  THR146     -0.1938
     92  CA       -31.7150   -0.6530  -43.4770 C.3   146  THR146      0.2028
     93  C        -31.5530   -2.1810  -43.5860 C.2   146  THR146      0.2642
     94  O        -32.5410   -2.9160  -43.6530 O.2   146  THR146     -0.2714
     95  CB       -32.5250   -0.1860  -44.6990 C.3   146  THR146      0.1808
     96  OG1      -31.7780   -0.4310  -45.8930 O.3   146  THR146     -0.2208
     97  CG2      -32.8520    1.3010  -44.6090 C.3   146  THR146      0.0379
     98  N        -30.3180   -2.6590  -43.6400 N.am  147  ASP147     -0.1957
     99  CA       -30.0550   -4.1030  -43.6810 C.3   147  ASP147      0.1840
    100  C        -30.2180   -4.7080  -42.2990 C.2   147  ASP147      0.2622
    101  O        -29.6510   -4.2130  -41.3310 O.2   147  ASP147     -0.2715
    102  CB       -28.6390   -4.3850  -44.1770 C.3   147  ASP147      0.1450
    103  CG       -28.5000   -4.2520  -45.6820 C.2   147  ASP147      0.3671
    104  OD1      -29.5050   -4.0270  -46.4050 O.co2 147  ASP147     -0.2456
    105  OD2      -27.3590   -4.3850  -46.1390 O.co2 147  ASP147     -0.2456
    106  N        -31.0190   -5.7700  -42.2010 N.am  148  TYR148     -0.1974
    107  CA       -31.1410   -6.4880  -40.9510 C.3   148  TYR148      0.1639
    108  C        -29.8900   -7.3260  -40.6480 C.2   148  TYR148      0.2290
    109  O        -29.4670   -7.4320  -39.4900 O.2   148  TYR148     -0.2864
    110  CB       -32.4020   -7.3740  -40.9490 C.3   148  TYR148      0.0560
    111  CG       -32.5100   -8.1450  -39.6730 C.ar  148  TYR148     -0.0198
    112  CD1      -32.8600   -7.5080  -38.4840 C.ar  148  TYR148     -0.0009
    113  CD2      -32.1960   -9.4970  -39.6310 C.ar  148  TYR148     -0.0009
    114  CE1      -32.9050   -8.2030  -37.2940 C.ar  148  TYR148      0.0417
    115  CE2      -32.2630  -10.2010  -38.4460 C.ar  148  TYR148      0.0417
    116  CZ       -32.6170   -9.5490  -37.2870 C.ar  148  TYR148      0.1957
    117  OH       -32.6780  -10.2460  -36.1140 O.3   148  TYR148     -0.2866
    118  N        -18.7450    4.8760  -45.5710 N.3   192  ASP192     -0.1225
    119  CA       -18.6880    5.1830  -44.1370 C.3   192  ASP192      0.1805
    120  C        -18.6350    3.9000  -43.3410 C.2   192  ASP192      0.2598
    121  O        -18.8680    2.8280  -43.8730 O.2   192  ASP192     -0.2718
    122  CB       -19.9640    5.9590  -43.7370 C.3   192  ASP192      0.1424
    123  CG       -19.8020    6.8240  -42.4800 C.2   192  ASP192      0.3668
    124  OD1      -18.7180    6.8900  -41.8560 O.co2 192  ASP192     -0.2456
    125  OD2      -20.8110    7.4610  -42.1150 O.co2 192  ASP192     -0.2456
    126  N        -18.3800    4.0330  -42.0460 N.am  193  SER193     -0.1938
    127  CA       -18.6660    2.9800  -41.0880 C.3   193  SER193      0.2055
    128  C        -20.1700    2.8930  -40.9000 C.2   193  SER193      0.2643
    129  O        -20.9050    3.8120  -41.2470 O.2   193  SER193     -0.2714
    130  CB       -18.0260    3.2750  -39.7300 C.3   193  SER193      0.2130
    131  OG       -16.6070    3.2120  -39.7900 O.3   193  SER193     -0.2179
    132  N        -20.6050    1.7840  -40.3210 N.am  194  CYS194     -0.1953
    133  CA       -21.9860    1.6280  -39.9110 C.3   194  CYS194      0.1843
    134  C        -22.0800    0.6970  -38.7030 C.2   194  CYS194      0.2625
    135  O        -21.0710    0.1880  -38.2040 O.2   194  CYS194     -0.2714
    136  CB       -22.8280    1.1330  -41.0850 C.3   194  CYS194      0.0997
    137  SG       -24.5960    1.4960  -40.9490 S.3   194  CYS194     -0.0797
    138  N        -23.3030    0.5020  -38.2270 N.am  195  GLN195     -0.1977
    139  CA       -23.6080   -0.4230  -37.1390 C.3   195  GLN195      0.1601
    140  C        -22.9660   -1.7700  -37.4170 C.2   195  GLN195      0.2287
    141  O        -23.1540   -2.3250  -38.5010 O.2   195  GLN195     -0.2864
    142  CB       -25.1370   -0.6060  -37.0440 C.3   195  GLN195      0.0394
    143  CG       -25.5960   -1.5990  -35.9900 C.3   195  GLN195      0.0908
    144  CD       -25.4500   -1.0910  -34.5660 C.2   195  GLN195      0.2608
    145  OE1      -25.0930    0.0710  -34.3180 O.2   195  GLN195     -0.2717
    146  NE2      -25.7470   -1.9580  -33.6150 N.am  195  GLN195     -0.0878
    147  N        -18.2320   -0.8630  -35.1730 N.3   198  SER198     -0.1217
    148  CA       -17.6820   -0.3120  -33.9320 C.3   198  SER198      0.1889
    149  C        -16.5230   -1.1660  -33.4090 C.2   198  SER198      0.2288
    150  O        -16.5310   -2.4030  -33.5210 O.2   198  SER198     -0.2866
    151  CB       -18.7400   -0.2190  -32.8440 C.3   198  SER198      0.2089
    152  OG       -19.7520    0.7090  -33.1920 O.3   198  SER198     -0.2183
    153  N        -13.4120    2.8130  -34.3570 N.3   216  VAL216     -0.1231
    154  CA       -14.7710    3.1800  -34.7920 C.3   216  VAL216      0.1692
    155  C        -15.6570    3.3280  -33.5420 C.2   216  VAL216      0.2593
    156  O        -15.7570    2.3920  -32.7640 O.2   216  VAL216     -0.2718
    157  CB       -15.4020    2.1220  -35.7270 C.3   216  VAL216      0.0266
    158  CG1      -16.8170    2.5400  -36.1330 C.3   216  VAL216      0.0020
    159  CG2      -14.5650    1.8810  -36.9780 C.3   216  VAL216      0.0020
    160  N        -16.2970    4.4880  -33.3640 N.am  217  SER217     -0.1938
    161  CA       -17.0330    4.7850  -32.1080 C.3   217  SER217      0.2055
    162  C        -18.5240    5.1320  -32.2610 C.2   217  SER217      0.2643
    163  O        -19.3670    4.4850  -31.6660 O.2   217  SER217     -0.2714
    164  CB       -16.3340    5.9130  -31.3550 C.3   217  SER217      0.2130
    165  OG       -16.9600    6.1700  -30.1110 O.3   217  SER217     -0.2179
    166  N        -18.8400    6.1680  -33.0260 N.am  218  TRP218     -0.1959
    167  CA       -20.2280    6.5760  -33.2150 C.3   218  TRP218      0.1771
    168  C        -20.4270    7.4710  -34.4270 C.2   218  TRP218      0.2620
    169  O        -19.4770    7.9880  -35.0100 O.2   218  TRP218     -0.2715
    170  CB       -20.7460    7.2890  -31.9660 C.3   218  TRP218      0.0590
    171  CG       -20.0310    8.5760  -31.6260 C.ar  218  TRP218      0.0006
    172  CD1      -18.8600    8.7110  -30.9210 C.ar  218  TRP218      0.0946
    173  CD2      -20.4370    9.9060  -31.9730 C.ar  218  TRP218      0.0152
    174  NE1      -18.5280   10.0370  -30.8010 N.ar  218  TRP218     -0.2442
    175  CE2      -19.4810   10.7920  -31.4340 C.ar  218  TRP218      0.0810
    176  CE3      -21.5160   10.4370  -32.6800 C.ar  218  TRP218      0.0012
    177  CZ2      -19.5730   12.1800  -31.5880 C.ar  218  TRP218      0.0191
    178  CZ3      -21.6030   11.8170  -32.8320 C.ar  218  TRP218      0.0001
    179  CH2      -20.6400   12.6690  -32.2820 C.ar  218  TRP218      0.0015
    180  N        -21.6950    7.6290  -34.7980 N.am  219  GLY219     -0.1940
    181  CA       -22.0960    8.5690  -35.8140 C.3   219  GLY219      0.2014
    182  C        -23.5910    8.7610  -35.6880 C.2   219  GLY219      0.2639
    183  O        -24.2790    7.9550  -35.0520 O.2   219  GLY219     -0.2714
    184  N        -24.0900    9.8380  -36.2790 N.am  220  ARG220     -0.1963
    185  CA       -25.5350   10.0440  -36.3530 C.3   220  ARG220      0.1729
    186  C        -26.2000    9.0220  -37.2710 C.2   220  ARG220      0.2617
    187  O        -27.3710    8.6450  -37.0580 O.2   220  ARG220     -0.2715
    188  CB       -25.8480   11.4690  -36.8160 C.3   220  ARG220      0.0348
    189  CG       -27.3470   11.7940  -36.9390 C.3   220  ARG220      0.0492
    190  CD       -28.0790   11.6160  -35.6230 C.3   220  ARG220      0.2205
    191  NE       -29.4970   11.9310  -35.7500 N.pl3 220  ARG220     -0.0865
    192  CZ       -30.4320   11.0980  -36.2030 C.cat 220  ARG220      0.5346
    193  NH1      -31.6960   11.5040  -36.2480 N.pl3 220  ARG220      0.1354
    194  NH2      -30.1250    9.8720  -36.6120 N.pl3 220  ARG220      0.1354
    195  N        -25.4720    8.5900  -38.2920 N.am  221  GLY221     -0.1940
    196  CA       -25.9830    7.6480  -39.2780 C.3   221  GLY221      0.2014
    197  C        -24.8490    6.9300  -39.9650 C.2   221  GLY221      0.2639
    198  O        -23.7800    6.7730  -39.3890 O.2   221  GLY221     -0.2714
    199  N        -25.1010    6.4760  -41.1890 N.am  222  CYS222     -0.1967
    200  CA       -24.1050    5.7980  -41.9980 C.3   222  CYS222      0.1712
    201  C        -24.1330    6.4440  -43.3760 C.2   222  CYS222      0.2296
    202  O        -25.1480    6.4000  -44.0540 O.2   222  CYS222     -0.2864
    203  CB       -24.4180    4.3030  -42.0890 C.3   222  CYS222      0.0983
    204  SG       -24.6690    3.4940  -40.4880 S.3   222  CYS222     -0.0798
    205  N        -18.3500    9.9240  -39.6890 N.3   229  GLY229     -0.1210
    206  CA       -18.0090    8.8940  -38.7330 C.3   229  GLY229      0.1956
    207  C        -17.1130    9.5030  -37.6740 C.2   229  GLY229      0.2612
    208  O        -16.3110   10.3990  -37.9710 O.2   229  GLY229     -0.2717
    209  N        -17.2810    9.0460  -36.4370 N.am  230  VAL230     -0.1965
    210  CA       -16.5020    9.5350  -35.3050 C.3   230  VAL230      0.1727
    211  C        -15.7550    8.3730  -34.6730 C.2   230  VAL230      0.2616
    212  O        -16.3100    7.2990  -34.4280 O.2   230  VAL230     -0.2715
    213  CB       -17.3520   10.2500  -34.2370 C.3   230  VAL230      0.0290
    214  CG1      -16.4360   10.9630  -33.2460 C.3   230  VAL230      0.0023
    215  CG2      -18.2770   11.2540  -34.8970 C.3   230  VAL230      0.0023
    216  N        -14.4780    8.6250  -34.4240 N.am  231  TYR231     -0.1974
    217  CA       -13.5220    7.6120  -34.0110 C.3   231  TYR231      0.1639
    218  C        -12.8310    8.0650  -32.7350 C.2   231  TYR231      0.2290
    219  O        -12.5470    9.2550  -32.5560 O.2   231  TYR231     -0.2864
    220  CB       -12.4990    7.4020  -35.1250 C.3   231  TYR231      0.0560
    221  CG       -13.1210    6.9750  -36.4320 C.ar  231  TYR231     -0.0198
    222  CD1      -13.7460    7.9040  -37.2710 C.ar  231  TYR231     -0.0009
    223  CD2      -13.1330    5.6400  -36.8150 C.ar  231  TYR231     -0.0009
    224  CE1      -14.3350    7.5140  -38.4620 C.ar  231  TYR231      0.0417
    225  CE2      -13.7290    5.2410  -37.9980 C.ar  231  TYR231      0.0417
    226  CZ       -14.3320    6.1800  -38.8150 C.ar  231  TYR231      0.1957
    227  OH       -14.9290    5.7860  -39.9840 O.3   231  TYR231     -0.2866
@<TRIPOS>BOND
     1   104   103   ar
     2   105   103   ar
     3    96    95    1
     4   103   102    1
     5   118   119    1
     6    95    97    1
     7    95    92    1
     8   102    99    1
     9   119   122    1
    10   119   120    1
    11   202   201    2
    12   121   120    2
    13   122   123    1
    14    99    98    1
    15    99   100    1
    16    94    93    2
    17    98    93   am
    18    85    86    1
    19    93    92    1
    20    92    91    1
    21    91    87   am
    22   201   200    1
    23    78    79    2
    24    78    77    1
    25   120   126   am
    26   123   125   ar
    27   123   124   ar
    28    86    87    1
    29    86    89    1
    30   100   106   am
    31   100   101    2
    32    87    88    2
    33   106   107    1
    34    77    80    1
    35    77    76    1
    36   203   200    1
    37   203   204    1
    38    89    90    1
    39   126   127    1
    40   200   199    1
    41    80    81    1
    42   129   128    2
    43   199   197   am
    44   127   128    1
    45   127   130    1
    46   136   137    1
    47   136   133    1
    48   107   110    1
    49   107   108    1
    50   137   204    1
    51   110   111    1
    52   128   132   am
    53   108   109    2
    54    81    82    1
    55   132   133    1
    56   227   226    1
    57   197   198    2
    58   197   196    1
    59   133   134    1
    60    82    83    1
    61   131   130    1
    62   205   206    1
    63   111   113   ar
    64   111   112   ar
    65   113   115   ar
    66   196   195    1
    67   226   224   ar
    68   226   225   ar
    69    84    83    1
    70   206   207    1
    71   134   138   am
    72   134   135    2
    73   141   140    2
    74   112   114   ar
    75   224   222   ar
    76   115   116   ar
    77   195   186   am
    78   138   139    1
    79   225   223   ar
    80   208   207    2
    81   207   209   am
    82   140   139    1
    83   114   116   ar
    84   116   117    1
    85   222   221   ar
    86   186   187    2
    87   186   185    1
    88   139   142    1
    89   142   143    1
    90   159   157    1
    91   189   188    1
    92   189   190    1
    93   188   185    1
    94   223   221   ar
    95   194   192    1
    96   209   210    1
    97   221   220    1
    98   185   184    1
    99   184   182   am
   100   193   192    1
   101   192   191    2
   102   158   157    1
   103   143   144    1
   104   181   182    1
   105   181   180    1
   106   191   190    1
   107   157   154    1
   108   182   183    2
   109   210   211    1
   110   210   213    1
   111   147   148    1
   112   220   217    1
   113   169   168    2
   114   215   213    1
   115   180   168   am
   116   154   153    1
   117   154   155    1
   118   211   212    2
   119   211   216   am
   120   144   145    2
   121   144   146   am
   122   168   167    1
   123   216   217    1
   124   213   214    1
   125   217   218    1
   126   148   149    1
   127   148   151    1
   128   155   160   am
   129   155   156    2
   130   150   149    2
   131   160   161    1
   132   167   166    1
   133   167   170    1
   134   152   151    1
   135   166   162   am
   136   178   176   ar
   137   178   179   ar
   138    64    63    1
   139   218   219    2
   140   176   173   ar
   141   179   177   ar
   142   162   161    1
   143   162   163    2
   144    65    63    1
   145   161   164    1
   146   173   171   ar
   147   173   175   ar
   148   170   171    1
   149    63    62    1
   150   171   172   ar
   151   177   175   ar
   152   175   174   ar
   153   164   165    1
   154   172   174   ar
   155    62    59    1
   156     9    10   ar
   157     9     7   ar
   158    10     8   ar
   159    61    60    2
   160    59    60    1
   161    59    58    1
   162    54    53    2
   163    75    73   ar
   164    75    74   ar
   165     7     6   ar
   166    73    71   ar
   167     8     6   ar
   168    58    53   am
   169    74    72   ar
   170    53    52    1
   171     6     5    1
   172    71    72   ar
   173    71    70    1
   174    66    67    1
   175    56    55    1
   176    70    67    1
   177    69    68    2
   178    55    52    1
   179    55    57    1
   180    52    51    1
   181    67    68    1
   182     5     2    1
   183     3     4    2
   184     3     2    1
   185     2     1    1
   186    50    49    1
   187    47    49   ar
   188    47    45   ar
   189    26    24   ar
   190    49    48   ar
   191    36    34   ar
   192    36    37   ar
   193    34    32   ar
   194    45    44   ar
   195    38    37    1
   196    37    35   ar
   197    11    12    1
   198    17    15    1
   199    24    23    1
   200    24    25   ar
   201    32    31    1
   202    32    33   ar
   203    23    20    1
   204    31    28    1
   205    48    46   ar
   206    35    33   ar
   207    19    20    1
   208    19    13   am
   209    44    46   ar
   210    44    43    1
   211    30    29    2
   212    15    12    1
   213    15    16    1
   214    12    13    1
   215    27    28    1
   216    27    21   am
   217    20    21    1
   218    28    29    1
   219    21    22    2
   220    13    14    2
   221    43    40    1
   222    40    41    1
   223    40    39    1
   224    16    18    1
   225    41    42    2
