@<TRIPOS>MOLECULE
tmp/4mnyA01.pdb
 82 80 0 0 0
SMALL
GASTEIGER

@<TRIPOS>ATOM
      1  N        -22.9940   -3.4060  -41.0970 N.3   142  LYS142     -0.1245
      2  CA       -24.0370   -3.3570  -42.1100 C.3   142  LYS142      0.1561
      3  C        -23.5970   -2.6200  -43.3700 C.2   142  LYS142      0.2260
      4  O        -22.8600   -1.6390  -43.2850 O.2   142  LYS142     -0.2867
      5  CB       -25.2910   -2.6980  -41.5290 C.3   142  LYS142      0.0271
      6  CG       -25.8870   -3.4510  -40.3520 C.3   142  LYS142      0.0035
      7  CD       -27.1300   -2.7390  -39.8230 C.3   142  LYS142      0.0206
      8  CE       -27.6270   -3.3600  -38.5330 C.3   142  LYS142      0.1093
      9  NZ       -28.4550   -4.5720  -38.7670 N.3   142  LYS142     -0.1314
     10  N        -27.8960    0.9710  -43.6110 N.3   145  SER145     -0.1202
     11  CA       -28.5540    1.1650  -42.3100 C.3   145  SER145      0.2020
     12  C        -29.8400    0.3380  -42.2230 C.2   145  SER145      0.2619
     13  O        -30.2490   -0.0860  -41.1380 O.2   145  SER145     -0.2717
     14  CB       -28.8630    2.6460  -42.0770 C.3   145  SER145      0.2103
     15  OG       -27.6790    3.3830  -41.7790 O.3   145  SER145     -0.2182
     16  N        -30.4570    0.1050  -43.3780 N.am  146  THR146     -0.1938
     17  CA       -31.7150   -0.6530  -43.4770 C.3   146  THR146      0.2028
     18  C        -31.5530   -2.1810  -43.5860 C.2   146  THR146      0.2642
     19  O        -32.5410   -2.9160  -43.6530 O.2   146  THR146     -0.2714
     20  CB       -32.5250   -0.1860  -44.6990 C.3   146  THR146      0.1808
     21  OG1      -31.7780   -0.4310  -45.8930 O.3   146  THR146     -0.2208
     22  CG2      -32.8520    1.3010  -44.6090 C.3   146  THR146      0.0379
     23  N        -30.3180   -2.6590  -43.6400 N.am  147  ASP147     -0.1957
     24  CA       -30.0550   -4.1030  -43.6810 C.3   147  ASP147      0.1840
     25  C        -30.2180   -4.7080  -42.2990 C.2   147  ASP147      0.2622
     26  O        -29.6510   -4.2130  -41.3310 O.2   147  ASP147     -0.2715
     27  CB       -28.6390   -4.3850  -44.1770 C.3   147  ASP147      0.1450
     28  CG       -28.5000   -4.2520  -45.6820 C.2   147  ASP147      0.3671
     29  OD1      -29.5050   -4.0270  -46.4050 O.co2 147  ASP147     -0.2456
     30  OD2      -27.3590   -4.3850  -46.1390 O.co2 147  ASP147     -0.2456
     31  N        -31.0190   -5.7700  -42.2010 N.am  148  TYR148     -0.1974
     32  CA       -31.1410   -6.4880  -40.9510 C.3   148  TYR148      0.1639
     33  C        -29.8900   -7.3260  -40.6480 C.2   148  TYR148      0.2290
     34  O        -29.4670   -7.4320  -39.4900 O.2   148  TYR148     -0.2864
     35  CB       -32.4020   -7.3740  -40.9490 C.3   148  TYR148      0.0560
     36  CG       -32.5100   -8.1450  -39.6730 C.ar  148  TYR148     -0.0198
     37  CD1      -32.8600   -7.5080  -38.4840 C.ar  148  TYR148     -0.0009
     38  CD2      -32.1960   -9.4970  -39.6310 C.ar  148  TYR148     -0.0009
     39  CE1      -32.9050   -8.2030  -37.2940 C.ar  148  TYR148      0.0417
     40  CE2      -32.2630  -10.2010  -38.4460 C.ar  148  TYR148      0.0417
     41  CZ       -32.6170   -9.5490  -37.2870 C.ar  148  TYR148      0.1957
     42  OH       -32.6780  -10.2460  -36.1140 O.3   148  TYR148     -0.2866
     43  N        -20.6050    1.7840  -40.3210 N.3   194  CYS194     -0.1221
     44  CA       -21.9860    1.6280  -39.9110 C.3   194  CYS194      0.1808
     45  C        -22.0800    0.6970  -38.7030 C.2   194  CYS194      0.2601
     46  O        -21.0710    0.1880  -38.2040 O.2   194  CYS194     -0.2717
     47  CB       -22.8280    1.1330  -41.0850 C.3   194  CYS194      0.0970
     48  SG       -24.5960    1.4960  -40.9490 S.3   194  CYS194     -0.0800
     49  N        -23.3030    0.5020  -38.2270 N.am  195  GLN195     -0.1979
     50  CA       -23.6080   -0.4230  -37.1390 C.3   195  GLN195      0.1601
     51  C        -22.9660   -1.7700  -37.4170 C.2   195  GLN195      0.2287
     52  O        -23.1540   -2.3250  -38.5010 O.2   195  GLN195     -0.2864
     53  CB       -25.1370   -0.6060  -37.0440 C.3   195  GLN195      0.0394
     54  CG       -25.5960   -1.5990  -35.9900 C.3   195  GLN195      0.0908
     55  CD       -25.4500   -1.0910  -34.5660 C.2   195  GLN195      0.2608
     56  OE1      -25.0930    0.0710  -34.3180 O.2   195  GLN195     -0.2717
     57  NE2      -25.7470   -1.9580  -33.6150 N.am  195  GLN195     -0.0878
     58  N        -21.6950    7.6290  -34.7980 N.3   219  GLY219     -0.1210
     59  CA       -22.0960    8.5690  -35.8140 C.3   219  GLY219      0.1956
     60  C        -23.5910    8.7610  -35.6880 C.2   219  GLY219      0.2612
     61  O        -24.2790    7.9550  -35.0520 O.2   219  GLY219     -0.2717
     62  N        -24.0900    9.8380  -36.2790 N.am  220  ARG220     -0.1965
     63  CA       -25.5350   10.0440  -36.3530 C.3   220  ARG220      0.1729
     64  C        -26.2000    9.0220  -37.2710 C.2   220  ARG220      0.2617
     65  O        -27.3710    8.6450  -37.0580 O.2   220  ARG220     -0.2715
     66  CB       -25.8480   11.4690  -36.8160 C.3   220  ARG220      0.0348
     67  CG       -27.3470   11.7940  -36.9390 C.3   220  ARG220      0.0492
     68  CD       -28.0790   11.6160  -35.6230 C.3   220  ARG220      0.2205
     69  NE       -29.4970   11.9310  -35.7500 N.pl3 220  ARG220     -0.0865
     70  CZ       -30.4320   11.0980  -36.2030 C.cat 220  ARG220      0.5346
     71  NH1      -31.6960   11.5040  -36.2480 N.pl3 220  ARG220      0.1354
     72  NH2      -30.1250    9.8720  -36.6120 N.pl3 220  ARG220      0.1354
     73  N        -25.4720    8.5900  -38.2920 N.am  221  GLY221     -0.1940
     74  CA       -25.9830    7.6480  -39.2780 C.3   221  GLY221      0.2014
     75  C        -24.8490    6.9300  -39.9650 C.2   221  GLY221      0.2639
     76  O        -23.7800    6.7730  -39.3890 O.2   221  GLY221     -0.2714
     77  N        -25.1010    6.4760  -41.1890 N.am  222  CYS222     -0.1967
     78  CA       -24.1050    5.7980  -41.9980 C.3   222  CYS222      0.1712
     79  C        -24.1330    6.4440  -43.3760 C.2   222  CYS222      0.2296
     80  O        -25.1480    6.4000  -44.0540 O.2   222  CYS222     -0.2864
     81  CB       -24.4180    4.3030  -42.0890 C.3   222  CYS222      0.0983
     82  SG       -24.6690    3.4940  -40.4880 S.3   222  CYS222     -0.0798
@<TRIPOS>BOND
     1    29    28   ar
     2    30    28   ar
     3    21    20    1
     4    28    27    1
     5    20    22    1
     6    20    17    1
     7    27    24    1
     8    80    79    2
     9    24    23    1
    10    24    25    1
    11    19    18    2
    12    23    18   am
    13    10    11    1
    14    18    17    1
    15    17    16    1
    16    16    12   am
    17    79    78    1
    18     3     4    2
    19     3     2    1
    20    11    12    1
    21    11    14    1
    22    25    31   am
    23    25    26    2
    24    12    13    2
    25    31    32    1
    26     2     5    1
    27     2     1    1
    28    81    78    1
    29    81    82    1
    30    14    15    1
    31    78    77    1
    32     5     6    1
    33    77    75   am
    34    47    48    1
    35    47    44    1
    36    32    35    1
    37    32    33    1
    38    35    36    1
    39    48    82    1
    40    33    34    2
    41     6     7    1
    42    43    44    1
    43    75    76    2
    44    75    74    1
    45    44    45    1
    46     7     8    1
    47    36    38   ar
    48    36    37   ar
    49    38    40   ar
    50    74    73    1
    51     9     8    1
    52    45    49   am
    53    45    46    2
    54    52    51    2
    55    37    39   ar
    56    40    41   ar
    57    73    64   am
    58    49    50    1
    59    51    50    1
    60    39    41   ar
    61    41    42    1
    62    64    65    2
    63    64    63    1
    64    50    53    1
    65    53    54    1
    66    67    66    1
    67    67    68    1
    68    66    63    1
    69    72    70    1
    70    63    62    1
    71    62    60   am
    72    71    70    1
    73    70    69    2
    74    54    55    1
    75    59    60    1
    76    59    58    1
    77    69    68    1
    78    60    61    2
    79    55    56    2
    80    55    57   am
