@<TRIPOS>MOLECULE
tmp/4mo4C00.pdb
 138 130 0 0 0
SMALL
GASTEIGER

@<TRIPOS>ATOM
      1  N         40.4120   -0.5320  -15.0680 N.3    11  SER11      -0.1217
      2  CA        39.9370   -0.8390  -16.4220 C.3    11  SER11       0.1889
      3  C         38.6930   -1.7430  -16.4440 C.2    11  SER11       0.2288
      4  O         37.9190   -1.7190  -17.4040 O.2    11  SER11      -0.2866
      5  CB        41.0570   -1.4700  -17.2500 C.3    11  SER11       0.2089
      6  OG        41.2390   -2.8270  -16.9070 O.3    11  SER11      -0.2183
      7  N         37.9690   -4.9760  -16.8310 N.3    13  ASP13      -0.1239
      8  CA        37.7350   -6.0690  -17.7710 C.3    13  ASP13       0.1674
      9  C         37.4630   -7.3910  -17.0410 C.2    13  ASP13       0.2266
     10  O         36.6080   -8.1820  -17.4460 O.2    13  ASP13      -0.2867
     11  CB        38.9050   -6.2040  -18.7590 C.3    13  ASP13       0.1410
     12  CG        40.2420   -6.4340  -18.0620 C.2    13  ASP13       0.3668
     13  OD1       40.3400   -6.1400  -16.8530 O.co2  13  ASP13      -0.2456
     14  OD2       41.1990   -6.8910  -18.7280 O.co2  13  ASP13      -0.2456
     15  N         41.9570  -10.6120  -11.7500 N.3    16  ASP16      -0.1239
     16  CA        43.1530  -11.4320  -11.7160 C.3    16  ASP16       0.1674
     17  C         43.2170  -12.1390  -10.3810 C.2    16  ASP16       0.2266
     18  O         43.0310  -11.5200   -9.3280 O.2    16  ASP16      -0.2867
     19  CB        44.4220  -10.5860  -11.8630 C.3    16  ASP16       0.1410
     20  CG        44.5830   -9.9590  -13.2480 C.2    16  ASP16       0.3668
     21  OD1       43.8240  -10.2910  -14.1820 O.co2  16  ASP16      -0.2456
     22  OD2       45.5030   -9.1280  -13.3980 O.co2  16  ASP16      -0.2456
     23  N         58.0830   -1.5290  -16.1000 N.3   161  ASN161     -0.1240
     24  CA        56.7900   -2.0710  -16.4810 C.3   161  ASN161      0.1653
     25  C         56.3760   -1.4830  -17.8130 C.2   161  ASN161      0.2266
     26  O         56.1970   -0.2670  -17.9230 O.2   161  ASN161     -0.2867
     27  CB        55.7360   -1.7620  -15.4280 C.3   161  ASN161      0.1155
     28  CG        54.3410   -2.0930  -15.9110 C.2   161  ASN161      0.2627
     29  OD1       54.0270   -3.2520  -16.1780 O.2   161  ASN161     -0.2716
     30  ND2       53.5080   -1.0730  -16.0600 N.am  161  ASN161     -0.0877
     31  N         53.4230   -1.5000  -19.9850 N.3   163  GLY163     -0.1210
     32  CA        52.0240   -1.7760  -20.2410 C.3   163  GLY163      0.1956
     33  C         51.5970   -0.9160  -21.3940 C.2   163  GLY163      0.2612
     34  O         52.3710   -0.7560  -22.3370 O.2   163  GLY163     -0.2717
     35  N         50.4000   -0.3380  -21.3240 N.am  164  GLY164     -0.1956
     36  CA        50.0060    0.6400  -22.3240 C.3   164  GLY164      0.1869
     37  C         51.0370    1.7490  -22.2960 C.2   164  GLY164      0.2309
     38  O         51.5500    2.1820  -23.3370 O.2   164  GLY164     -0.2863
     39  N         53.0520   -0.0760  -24.9470 N.3   186  ASN186     -0.1240
     40  CA        52.3970   -0.7920  -26.0240 C.3   186  ASN186      0.1653
     41  C         51.2880    0.0100  -26.6990 C.2   186  ASN186      0.2266
     42  O         50.7960   -0.3890  -27.7520 O.2   186  ASN186     -0.2867
     43  CB        51.8320   -2.1100  -25.5060 C.3   186  ASN186      0.1155
     44  CG        52.9160   -3.0720  -25.0770 C.2   186  ASN186      0.2627
     45  OD1       53.8650   -3.3090  -25.8210 O.2   186  ASN186     -0.2716
     46  ND2       52.7770   -3.6400  -23.8870 N.am  186  ASN186     -0.0877
     47  N         49.9040   -0.9950  -30.3570 N.3   190  ASP190     -0.1239
     48  CA        48.6360   -1.7230  -30.3030 C.3   190  ASP190      0.1674
     49  C         47.5980   -1.0400  -31.1720 C.2   190  ASP190      0.2266
     50  O         46.9240   -1.6860  -31.9750 O.2   190  ASP190     -0.2867
     51  CB        48.0900   -1.7860  -28.8640 C.3   190  ASP190      0.1410
     52  CG        48.7480   -2.8690  -28.0020 C.2   190  ASP190      0.3668
     53  OD1       49.6890   -3.5500  -28.4580 O.co2 190  ASP190     -0.2456
     54  OD2       48.3070   -3.0210  -26.8370 O.co2 190  ASP190     -0.2456
     55  N         44.9910   -7.2930  -32.1750 N.3   200  HIS200     -0.1226
     56  CA        44.9360   -6.6360  -30.8750 C.3   200  HIS200      0.1752
     57  C         46.2870   -6.0590  -30.4860 C.2   200  HIS200      0.2596
     58  O         46.3750   -5.0170  -29.8350 O.2   200  HIS200     -0.2718
     59  CB        44.4750   -7.6250  -29.8030 C.3   200  HIS200      0.0759
     60  CG        44.0200   -6.9730  -28.5410 C.ar  200  HIS200      0.0818
     61  ND1       42.7200   -6.5790  -28.3310 N.ar  200  HIS200     -0.2268
     62  CD2       44.6880   -6.6830  -27.4030 C.ar  200  HIS200      0.1154
     63  CE1       42.5900   -6.1080  -27.1050 C.ar  200  HIS200      0.1986
     64  NE2       43.7700   -6.1630  -26.5180 N.ar  200  HIS200     -0.2212
     65  N         47.3370   -6.7650  -30.8820 N.am  201  PHE201     -0.1962
     66  CA        48.6980   -6.3270  -30.6490 C.3   201  PHE201      0.1771
     67  C         49.6290   -6.9420  -31.6840 C.2   201  PHE201      0.2620
     68  O         49.2060   -7.7740  -32.4930 O.2   201  PHE201     -0.2715
     69  CB        49.1360   -6.6480  -29.2160 C.3   201  PHE201      0.0574
     70  CG        49.1480   -8.1230  -28.8810 C.ar  201  PHE201     -0.0200
     71  CD1       50.2710   -8.9070  -29.1270 C.ar  201  PHE201     -0.0042
     72  CD2       48.0300   -8.7230  -28.3160 C.ar  201  PHE201     -0.0042
     73  CE1       50.2810  -10.2560  -28.8080 C.ar  201  PHE201     -0.0003
     74  CE2       48.0310  -10.0740  -27.9960 C.ar  201  PHE201     -0.0003
     75  CZ        49.1600  -10.8400  -28.2470 C.ar  201  PHE201     -0.0000
     76  N         50.8860   -6.5170  -31.6520 N.am  202  ASP202     -0.1957
     77  CA        51.8950   -6.9480  -32.6120 C.3   202  ASP202      0.1840
     78  C         52.6910   -8.0700  -31.9690 C.2   202  ASP202      0.2622
     79  O         53.6410   -7.8110  -31.2400 O.2   202  ASP202     -0.2715
     80  CB        52.8080   -5.7550  -32.9460 C.3   202  ASP202      0.1450
     81  CG        53.8520   -6.0620  -34.0240 C.2   202  ASP202      0.3671
     82  OD1       53.9320   -7.2120  -34.5230 O.co2 202  ASP202     -0.2456
     83  OD2       54.6350   -5.1310  -34.3470 O.co2 202  ASP202     -0.2456
     84  N         52.3080   -9.3120  -32.2510 N.am  203  ARG203     -0.1963
     85  CA        52.9190  -10.4610  -31.5840 C.3   203  ARG203      0.1729
     86  C         54.4210  -10.5570  -31.8320 C.2   203  ARG203      0.2616
     87  O         54.8790  -10.5780  -32.9870 O.2   203  ARG203     -0.2715
     88  CB        52.2340  -11.7640  -31.9840 C.3   203  ARG203      0.0348
     89  CG        52.8490  -12.9710  -31.2930 C.3   203  ARG203      0.0492
     90  CD        52.0440  -14.2200  -31.5300 C.3   203  ARG203      0.2205
     91  NE        50.7200  -14.0830  -30.9360 N.pl3 203  ARG203     -0.0865
     92  CZ        50.4510  -14.3060  -29.6540 C.cat 203  ARG203      0.5346
     93  NH1       51.4180  -14.6740  -28.8230 N.pl3 203  ARG203      0.1354
     94  NH2       49.2140  -14.1560  -29.2010 N.pl3 203  ARG203      0.1354
     95  N         55.1670  -10.5860  -30.7280 N.am  204  ASP204     -0.1971
     96  CA        56.6240  -10.6480  -30.7260 C.3   204  ASP204      0.1709
     97  C         57.2510   -9.4140  -31.3780 C.2   204  ASP204      0.2293
     98  O         58.4580   -9.3910  -31.6400 O.2   204  ASP204     -0.2864
     99  CB        57.1340  -11.9490  -31.3760 C.3   204  ASP204      0.1436
    100  CG        56.5910  -13.2090  -30.7040 C.2   204  ASP204      0.3671
    101  OD1       56.1370  -13.1510  -29.5400 O.co2 204  ASP204     -0.2456
    102  OD2       56.6200  -14.2760  -31.3540 O.co2 204  ASP204     -0.2456
    103  N         55.1630   -6.4880  -17.2590 N.3   281  GLY281     -0.1210
    104  CA        54.0860   -6.0390  -18.1260 C.3   281  GLY281      0.1956
    105  C         54.1190   -6.7760  -19.4590 C.2   281  GLY281      0.2612
    106  O         55.0560   -7.5170  -19.7510 O.2   281  GLY281     -0.2717
    107  N         53.1000   -6.5650  -20.2860 N.am  282  GLY282     -0.1956
    108  CA        52.9550   -7.3290  -21.5180 C.3   282  GLY282      0.1869
    109  C         54.0550   -7.0460  -22.5240 C.2   282  GLY282      0.2309
    110  O         54.3120   -7.8450  -23.4260 O.2   282  GLY282     -0.2863
    111  N         56.9740   -9.4010  -23.4650 N.3   285  PHE285     -0.1227
    112  CA        56.8180  -10.4560  -24.4520 C.3   285  PHE285      0.1736
    113  C         57.0940   -9.9740  -25.8570 C.2   285  PHE285      0.2595
    114  O         57.1330  -10.7650  -26.7850 O.2   285  PHE285     -0.2718
    115  CB        55.4240  -11.0650  -24.3920 C.3   285  PHE285      0.0547
    116  CG        55.1160  -11.7130  -23.0810 C.ar  285  PHE285     -0.0202
    117  CD1       55.9090  -12.7480  -22.6080 C.ar  285  PHE285     -0.0042
    118  CD2       54.0340  -11.3000  -22.3390 C.ar  285  PHE285     -0.0042
    119  CE1       55.6240  -13.3610  -21.3910 C.ar  285  PHE285     -0.0003
    120  CE2       53.7440  -11.9050  -21.1210 C.ar  285  PHE285     -0.0003
    121  CZ        54.5460  -12.9350  -20.6590 C.ar  285  PHE285     -0.0000
    122  N         57.2610   -8.6680  -26.0080 N.am  286  ASN286     -0.1974
    123  CA        57.5740   -8.1200  -27.3220 C.3   286  ASN286      0.1688
    124  C         59.0590   -8.2840  -27.5950 C.2   286  ASN286      0.2292
    125  O         59.8720   -7.4590  -27.1700 O.2   286  ASN286     -0.2864
    126  CB        57.1260   -6.6610  -27.4300 C.3   286  ASN286      0.1181
    127  CG        57.3110   -6.1010  -28.8290 C.2   286  ASN286      0.2629
    128  OD1       58.3240   -6.3690  -29.4920 O.2   286  ASN286     -0.2716
    129  ND2       56.3250   -5.3460  -29.3030 N.am  286  ASN286     -0.0877
    130  N         51.1690   -7.3440  -10.5430 N.3   316  GLU316     -0.1245
    131  CA        50.1960   -6.7020   -9.6340 C.3   316  GLU316      0.1567
    132  C         49.4790   -7.6700   -8.7070 C.2   316  GLU316      0.2260
    133  O         49.3570   -7.4260   -7.4970 O.2   316  GLU316     -0.2867
    134  CB        49.1240   -5.9470  -10.4200 C.3   316  GLU316      0.0388
    135  CG        49.5770   -4.6830  -11.0950 C.3   316  GLU316      0.1160
    136  CD        48.4860   -4.0960  -11.9670 C.2   316  GLU316      0.3649
    137  OE1       48.1040   -4.7480  -12.9610 O.co2 316  GLU316     -0.2457
    138  OE2       48.0010   -2.9910  -11.6500 O.co2 316  GLU316     -0.2457
@<TRIPOS>BOND
     1    82    81   ar
     2    83    81   ar
     3    81    80    1
     4    87    86    2
     5    80    77    1
     6    77    78    1
     7    77    76    1
     8    68    67    2
     9    84    78   am
    10    84    85    1
    11    55    56    1
    12    88    85    1
    13    88    89    1
    14    50    49    2
    15    78    79    2
    16    86    85    1
    17    86    95   am
    18    67    76   am
    19    67    66    1
    20    98    97    2
    21    90    89    1
    22    90    91    1
    23    97    96    1
    24    99    96    1
    25    99   100    1
    26   102   100   ar
    27    49    48    1
    28    91    92    2
    29    65    66    1
    30    65    57   am
    31    56    57    1
    32    56    59    1
    33    95    96    1
    34   100   101   ar
    35    66    69    1
    36    57    58    2
    37    47    48    1
    38    48    51    1
    39    59    60    1
    40    92    94    1
    41    92    93    1
    42   128   127    2
    43   129   127   am
    44    69    70    1
    45    71    70   ar
    46    71    73   ar
    47    70    72   ar
    48    51    52    1
    49   127   126    1
    50    73    75   ar
    51    60    61   ar
    52    60    62   ar
    53    53    52   ar
    54    61    63   ar
    55    72    74   ar
    56    75    74   ar
    57    52    54   ar
    58    42    41    2
    59   124   123    1
    60   124   125    2
    61   126   123    1
    62    62    64   ar
    63   123   122    1
    64    63    64   ar
    65   114   113    2
    66    41    40    1
    67    40    43    1
    68    40    39    1
    69   122   113   am
    70   113   112    1
    71    45    44    2
    72    43    44    1
    73    44    46   am
    74   112   115    1
    75   112   111    1
    76   115   116    1
    77   110   109    2
    78    38    37    2
    79   116   117   ar
    80   116   118   ar
    81   117   119   ar
    82   109   108    1
    83   118   120   ar
    84    34    33    2
    85    36    37    1
    86    36    35    1
    87   108   107    1
    88    33    35   am
    89    33    32    1
    90   119   121   ar
    91   120   121   ar
    92   107   105   am
    93    32    31    1
    94   106   105    2
    95   105   104    1
    96    11    12    1
    97    11     8    1
    98    14    12   ar
    99   104   103    1
   100    12    13   ar
   101    26    25    2
   102    25    24    1
   103     8     9    1
   104     8     7    1
   105    10     9    2
   106     4     3    2
   107     5     6    1
   108     5     2    1
   109    24    23    1
   110    24    27    1
   111     3     2    1
   112     2     1    1
   113    29    28    2
   114    30    28   am
   115    28    27    1
   116    21    20   ar
   117    22    20   ar
   118    20    19    1
   119   137   136   ar
   120   136   138   ar
   121   136   135    1
   122    19    16    1
   123    15    16    1
   124    16    17    1
   125   135   134    1
   126   130   131    1
   127   134   131    1
   128    17    18    2
   129   131   132    1
   130   132   133    2
