@<TRIPOS>MOLECULE
tmp/4mo5A01.pdb
 143 134 0 0 0
SMALL
GASTEIGER

@<TRIPOS>ATOM
      1  N          4.4960  -44.6210   23.6650 N.3    11  SER11      -0.1217
      2  CA         4.1520  -45.8160   24.4460 C.3    11  SER11       0.1889
      3  C          3.9650  -47.0290   23.5260 C.2    11  SER11       0.2288
      4  O          4.0850  -48.1800   23.9570 O.2    11  SER11      -0.2866
      5  CB         2.8840  -45.5910   25.2660 C.3    11  SER11       0.2089
      6  OG         1.7320  -45.6580   24.4440 O.3    11  SER11      -0.2183
      7  N          1.4240  -48.4530   22.1280 N.3    13  ASP13      -0.1239
      8  CA         0.3130  -49.3910   22.2540 C.3    13  ASP13       0.1674
      9  C         -0.4780  -49.5140   20.9440 C.2    13  ASP13       0.2266
     10  O         -0.8530  -50.6160   20.5270 O.2    13  ASP13      -0.2867
     11  CB        -0.5930  -49.0360   23.4370 C.3    13  ASP13       0.1410
     12  CG        -1.2420  -47.6720   23.2950 C.2    13  ASP13       0.3668
     13  OD1       -0.7590  -46.8520   22.4870 O.co2  13  ASP13      -0.2456
     14  OD2       -2.2410  -47.4180   24.0080 O.co2  13  ASP13      -0.2456
     15  N         -3.8430  -43.7380   17.1120 N.3    16  ASP16      -0.1239
     16  CA        -5.1200  -43.0150   17.1550 C.3    16  ASP16       0.1674
     17  C         -5.3850  -42.4620   15.7650 C.2    16  ASP16       0.2266
     18  O         -4.5290  -41.7930   15.1960 O.2    16  ASP16      -0.2867
     19  CB        -5.0820  -41.8540   18.1680 C.3    16  ASP16       0.1410
     20  CG        -5.0640  -42.3190   19.5990 C.2    16  ASP16       0.3668
     21  OD1       -5.4180  -43.4890   19.8650 O.co2  16  ASP16      -0.2456
     22  OD2       -4.7110  -41.5000   20.4770 O.co2  16  ASP16      -0.2456
     23  N         -4.0690  -30.4300   30.3720 N.3   161  ASN161     -0.1240
     24  CA        -4.1070  -31.8270   29.9680 C.3   161  ASN161      0.1653
     25  C         -3.6870  -32.6830   31.1490 C.2   161  ASN161      0.2266
     26  O         -2.5770  -32.5200   31.6700 O.2   161  ASN161     -0.2867
     27  CB        -3.1800  -32.0840   28.7780 C.3   161  ASN161      0.1155
     28  CG        -3.0810  -33.5600   28.4330 C.2   161  ASN161      0.2627
     29  OD1       -3.9880  -34.1280   27.8210 O.2   161  ASN161     -0.2716
     30  ND2       -1.9810  -34.1920   28.8310 N.am  161  ASN161     -0.0877
     31  N         -2.9050  -36.3630   31.8550 N.3   163  GLY163     -0.1210
     32  CA        -2.6050  -37.7340   31.4730 C.3   163  GLY163      0.1956
     33  C         -2.0230  -38.4250   32.6910 C.2   163  GLY163      0.2612
     34  O         -2.5260  -38.2380   33.8050 O.2   163  GLY163     -0.2717
     35  N         -0.9740  -39.2220   32.4960 N.am  164  GLY164     -0.1956
     36  CA        -0.2320  -39.7480   33.6310 C.3   164  GLY164      0.1869
     37  C          0.2870  -38.5560   34.4080 C.2   164  GLY164      0.2309
     38  O          0.2030  -38.4930   35.6380 O.2   164  GLY164     -0.2863
     39  N         -2.7280  -38.5570   36.5770 N.3   186  ASN186     -0.1240
     40  CA        -3.3880  -39.8070   36.9560 C.3   186  ASN186      0.1653
     41  C         -2.4120  -40.8750   37.4480 C.2   186  ASN186      0.2266
     42  O         -2.8350  -41.9100   37.9700 O.2   186  ASN186     -0.2867
     43  CB        -4.1810  -40.3770   35.7720 C.3   186  ASN186      0.1155
     44  CG        -5.3330  -39.4810   35.3440 C.2   186  ASN186      0.2627
     45  OD1       -5.3520  -38.9700   34.2220 O.2   186  ASN186     -0.2716
     46  ND2       -6.3130  -39.3080   36.2280 N.am  186  ASN186     -0.0877
     47  N         -3.6360  -44.3250   39.3910 N.3   190  ASP190     -0.1239
     48  CA        -3.6240  -45.5330   38.5680 C.3   190  ASP190      0.1674
     49  C         -2.7270  -46.5930   39.2010 C.2   190  ASP190      0.2266
     50  O         -3.1140  -47.7560   39.3130 O.2   190  ASP190     -0.2867
     51  CB        -3.1350  -45.2130   37.1450 C.3   190  ASP190      0.1410
     52  CG        -4.1710  -44.4610   36.3100 C.2   190  ASP190      0.3668
     53  OD1       -5.2280  -44.0840   36.8540 O.co2 190  ASP190     -0.2456
     54  OD2       -3.9210  -44.2400   35.1000 O.co2 190  ASP190     -0.2456
     55  N         -7.0770  -50.8560   36.1770 N.3   200  HIS200     -0.1226
     56  CA        -6.1660  -49.9970   35.4300 C.3   200  HIS200      0.1752
     57  C         -6.2330  -48.5560   35.9200 C.2   200  HIS200      0.2596
     58  O         -5.2300  -47.8380   35.9290 O.2   200  HIS200     -0.2718
     59  CB        -6.4870  -50.0680   33.9400 C.3   200  HIS200      0.0759
     60  CG        -6.2270  -51.4100   33.3340 C.ar  200  HIS200      0.0818
     61  ND1       -7.2200  -52.1740   32.7550 N.ar  200  HIS200     -0.2268
     62  CD2       -5.0850  -52.1280   33.2150 C.ar  200  HIS200      0.1154
     63  CE1       -6.6980  -53.3010   32.3050 C.ar  200  HIS200      0.1986
     64  NE2       -5.4040  -53.2970   32.5700 N.ar  200  HIS200     -0.2212
     65  N         -7.4270  -48.1380   36.3240 N.am  201  PHE201     -0.1962
     66  CA        -7.6260  -46.7970   36.8590 C.3   201  PHE201      0.1771
     67  C         -8.8670  -46.7300   37.7450 C.2   201  PHE201      0.2620
     68  O         -9.6350  -47.6930   37.8240 O.2   201  PHE201     -0.2715
     69  CB        -7.7150  -45.7730   35.7250 C.3   201  PHE201      0.0574
     70  CG        -8.8610  -46.0010   34.7820 C.ar  201  PHE201     -0.0200
     71  CD1      -10.1070  -45.4430   35.0380 C.ar  201  PHE201     -0.0042
     72  CD2       -8.6900  -46.7520   33.6300 C.ar  201  PHE201     -0.0042
     73  CE1      -11.1670  -45.6460   34.1720 C.ar  201  PHE201     -0.0003
     74  CE2       -9.7440  -46.9580   32.7540 C.ar  201  PHE201     -0.0003
     75  CZ       -10.9860  -46.4040   33.0270 C.ar  201  PHE201     -0.0000
     76  N         -9.0590  -45.5890   38.4030 N.am  202  ASP202     -0.1957
     77  CA       -10.1960  -45.4020   39.3020 C.3   202  ASP202      0.1840
     78  C        -11.3320  -44.7190   38.5550 C.2   202  ASP202      0.2622
     79  O        -11.3560  -43.4890   38.4440 O.2   202  ASP202     -0.2715
     80  CB        -9.7660  -44.5730   40.5180 C.3   202  ASP202      0.1450
     81  CG       -10.8990  -44.3270   41.5020 C.2   202  ASP202      0.3671
     82  OD1      -11.9950  -44.9020   41.3240 O.co2 202  ASP202     -0.2456
     83  OD2      -10.6820  -43.5580   42.4670 O.co2 202  ASP202     -0.2456
     84  N        -12.2740  -45.5150   38.0490 N.am  203  ARG203     -0.1963
     85  CA       -13.3400  -44.9870   37.1990 C.3   203  ARG203      0.1729
     86  C        -14.1510  -43.9050   37.9100 C.2   203  ARG203      0.2616
     87  O        -14.6400  -44.1120   39.0240 O.2   203  ARG203     -0.2715
     88  CB       -14.2640  -46.0990   36.7030 C.3   203  ARG203      0.0348
     89  CG       -15.3440  -45.6020   35.7490 C.3   203  ARG203      0.0492
     90  CD       -16.1670  -46.7590   35.1970 C.3   203  ARG203      0.2205
     91  NE       -15.3290  -47.7640   34.5460 N.pl3 203  ARG203     -0.0865
     92  CZ       -14.8410  -47.6570   33.3120 C.cat 203  ARG203      0.5346
     93  NH1      -15.0970  -46.5810   32.5750 N.pl3 203  ARG203      0.1354
     94  NH2      -14.0900  -48.6300   32.8140 N.pl3 203  ARG203      0.1354
     95  N        -14.2570  -42.7470   37.2600 N.am  204  ASP204     -0.1971
     96  CA       -14.9840  -41.5930   37.7920 C.3   204  ASP204      0.1709
     97  C        -14.3900  -41.0810   39.1090 C.2   204  ASP204      0.2293
     98  O        -14.9470  -40.1820   39.7360 O.2   204  ASP204     -0.2864
     99  CB       -16.4800  -41.9180   37.9730 C.3   204  ASP204      0.1436
    100  CG       -17.1520  -42.3590   36.6810 C.2   204  ASP204      0.3671
    101  OD1      -16.5770  -42.1470   35.5960 O.co2 204  ASP204     -0.2456
    102  OD2      -18.2640  -42.9150   36.7540 O.co2 204  ASP204     -0.2456
    103  N         -7.4710  -34.7580   28.1430 N.3   270  GLY270     -0.1210
    104  CA        -6.7840  -35.9470   28.6010 C.3   270  GLY270      0.1956
    105  C         -7.7620  -36.7780   29.4010 C.2   270  GLY270      0.2612
    106  O         -8.8710  -36.3230   29.6870 O.2   270  GLY270     -0.2717
    107  N         -7.3550  -37.9910   29.7660 N.am  271  GLY271     -0.1956
    108  CA        -8.2460  -38.9210   30.4330 C.3   271  GLY271      0.1869
    109  C         -8.6490  -38.4870   31.8300 C.2   271  GLY271      0.2309
    110  O         -9.6290  -38.9970   32.3850 O.2   271  GLY271     -0.2863
    111  N        -12.1610  -37.1510   32.6450 N.3   274  PHE274     -0.1227
    112  CA       -13.2310  -38.0890   32.9670 C.3   274  PHE274      0.1736
    113  C        -13.2640  -38.4470   34.4430 C.2   274  PHE274      0.2595
    114  O        -14.2170  -39.0640   34.9160 O.2   274  PHE274     -0.2718
    115  CB       -13.0760  -39.3590   32.1320 C.3   274  PHE274      0.0547
    116  CG       -13.2180  -39.1280   30.6610 C.ar  274  PHE274     -0.0202
    117  CD1      -14.3260  -38.4580   30.1560 C.ar  274  PHE274     -0.0042
    118  CD2      -12.2410  -39.5660   29.7830 C.ar  274  PHE274     -0.0042
    119  CE1      -14.4580  -38.2330   28.7930 C.ar  274  PHE274     -0.0003
    120  CE2      -12.3600  -39.3390   28.4110 C.ar  274  PHE274     -0.0003
    121  CZ       -13.4700  -38.6750   27.9180 C.ar  274  PHE274     -0.0000
    122  N        -12.2240  -38.0660   35.1770 N.am  275  ASN275     -0.1974
    123  CA       -12.2320  -38.2870   36.6150 C.3   275  ASN275      0.1688
    124  C        -13.1050  -37.2430   37.3170 C.2   275  ASN275      0.2292
    125  O        -12.6440  -36.1510   37.6690 O.2   275  ASN275     -0.2864
    126  CB       -10.8120  -38.3240   37.1970 C.3   275  ASN275      0.1181
    127  CG       -10.7800  -38.8300   38.6410 C.2   275  ASN275      0.2629
    128  OD1      -11.5940  -38.4240   39.4780 O.2   275  ASN275     -0.2716
    129  ND2       -9.8370  -39.7220   38.9330 N.am  275  ASN275     -0.0877
    130  N        -10.3470  -37.2390   25.0760 N.3   302  ALA302     -0.1245
    131  CA        -9.4720  -38.3740   24.8010 C.3   302  ALA302      0.1562
    132  C         -8.8420  -38.3360   23.4040 C.2   302  ALA302      0.2260
    133  O         -7.9880  -39.1590   23.0810 O.2   302  ALA302     -0.2867
    134  CB       -10.2220  -39.6890   25.0110 C.3   302  ALA302      0.0290
    135  N         -4.9180  -35.1870   20.7330 N.3   305  GLU305     -0.1245
    136  CA        -3.6850  -35.3140   19.9440 C.3   305  GLU305      0.1567
    137  C         -3.9520  -35.6730   18.4900 C.2   305  GLU305      0.2260
    138  O         -3.3700  -35.0770   17.5840 O.2   305  GLU305     -0.2867
    139  CB        -2.7200  -36.3280   20.5740 C.3   305  GLU305      0.0388
    140  CG        -2.0020  -35.8290   21.8040 C.3   305  GLU305      0.1160
    141  CD        -1.2650  -36.9420   22.5220 C.2   305  GLU305      0.3649
    142  OE1       -1.3120  -38.0930   22.0370 O.co2 305  GLU305     -0.2457
    143  OE2       -0.6440  -36.6710   23.5670 O.co2 305  GLU305     -0.2457
@<TRIPOS>BOND
     1    18    17    2
     2    17    16    1
     3    15    16    1
     4    16    19    1
     5   138   137    2
     6    19    20    1
     7   137   136    1
     8    20    21   ar
     9    20    22   ar
    10   136   139    1
    11   136   135    1
    12    10     9    2
    13   139   140    1
    14     9     8    1
    15   140   141    1
    16   142   141   ar
    17     7     8    1
    18     8    11    1
    19    13    12   ar
    20   141   143   ar
    21   133   132    2
    22    12    11    1
    23    12    14   ar
    24   132   131    1
    25     3     4    2
    26     3     2    1
    27     1     2    1
    28     6     5    1
    29     2     5    1
    30   131   134    1
    31   131   130    1
    32    29    28    2
    33   121   120   ar
    34   121   119   ar
    35   103   104    1
    36   120   118   ar
    37    28    27    1
    38    28    30   am
    39   104   105    1
    40    27    24    1
    41   119   117   ar
    42   105   106    2
    43   105   107   am
    44   107   108    1
    45   118   116   ar
    46    24    23    1
    47    24    25    1
    48   117   116   ar
    49   108   109    1
    50   116   115    1
    51    25    26    2
    52    32    31    1
    53    32    33    1
    54   109   110    2
    55   115   112    1
    56    63    64   ar
    57    63    61   ar
    58    35    33   am
    59    35    36    1
    60    64    62   ar
    61    93    92    1
    62   111   112    1
    63    33    34    2
    64    74    75   ar
    65    74    72   ar
    66    61    60   ar
    67    94    92    1
    68   112   113    1
    69    75    73   ar
    70    62    60   ar
    71    92    91    2
    72    60    59    1
    73    72    70   ar
    74    36    37    1
    75    59    56    1
    76    73    71   ar
    77    45    44    2
    78    37    38    2
    79   113   114    2
    80   113   122   am
    81    91    90    1
    82    70    71   ar
    83    70    69    1
    84    54    52   ar
    85   122   123    1
    86    90    89    1
    87    44    43    1
    88    44    46   am
    89    56    57    1
    90    56    55    1
    91   101   100   ar
    92    69    66    1
    93    89    88    1
    94    43    40    1
    95    57    58    2
    96    57    65   am
    97    52    53   ar
    98    52    51    1
    99    65    66    1
   100    39    40    1
   101   123   126    1
   102   123   124    1
   103   100   102   ar
   104   100    99    1
   105    88    85    1
   106    66    67    1
   107    40    41    1
   108    51    48    1
   109   126   127    1
   110    85    86    1
   111    85    84    1
   112    95    96    1
   113    95    86   am
   114   124   125    2
   115    41    42    2
   116    67    68    2
   117    67    76   am
   118    96    99    1
   119    96    97    1
   120    86    87    2
   121    84    78   am
   122    76    77    1
   123    79    78    2
   124    78    77    1
   125    48    49    1
   126    48    47    1
   127   127   129   am
   128   127   128    2
   129    97    98    2
   130    49    50    2
   131    77    80    1
   132    80    81    1
   133    82    81   ar
   134    81    83   ar
