@<TRIPOS>MOLECULE
tmp/4mo5A00.pdb
 109 103 0 0 0
SMALL
GASTEIGER

@<TRIPOS>ATOM
      1  N         -1.9520  -40.3200   14.8860 N.3     7  MET7       -0.1245
      2  CA        -0.9650  -40.1310   15.9530 C.3     7  MET7        0.1570
      3  C         -0.5500  -41.4680   16.5340 C.2     7  MET7        0.2261
      4  O         -1.3820  -42.3350   16.7910 O.2     7  MET7       -0.2867
      5  CB        -1.5040  -39.2420   17.0850 C.3     7  MET7        0.0387
      6  CG        -0.4840  -38.9990   18.2330 C.3     7  MET7        0.0595
      7  SD         1.0840  -38.3210   17.6080 S.3     7  MET7       -0.1393
      8  CE         2.1590  -38.3840   19.0290 C.3     7  MET7        0.0692
      9  N          4.8000  -42.4170   22.0110 N.3    10  THR10      -0.1218
     10  CA         5.9780  -43.2310   22.2780 C.3    10  THR10       0.1862
     11  C          5.7090  -44.4820   23.1300 C.2    10  THR10       0.2287
     12  O          6.5950  -45.3180   23.2850 O.2    10  THR10      -0.2866
     13  CB         7.1140  -42.3850   22.8800 C.3    10  THR10       0.1770
     14  OG1        6.6320  -41.7030   24.0420 O.3    10  THR10      -0.2211
     15  CG2        7.6100  -41.3530   21.8590 C.3    10  THR10       0.0375
     16  N          1.5140  -37.7020   12.1480 N.3    93  HIS93      -0.1241
     17  CA         2.6820  -37.4160   12.9820 C.3    93  HIS93       0.1621
     18  C          3.8890  -38.2720   12.6090 C.2    93  HIS93       0.2264
     19  O          5.0370  -37.8160   12.6700 O.2    93  HIS93      -0.2867
     20  CB         2.4020  -37.6020   14.4770 C.3    93  HIS93       0.0745
     21  CG         3.6400  -37.4690   15.3100 C.ar   93  HIS93       0.0817
     22  ND1        4.2870  -38.5540   15.8680 N.ar   93  HIS93      -0.2268
     23  CD2        4.3940  -36.3840   15.6210 C.ar   93  HIS93       0.1154
     24  CE1        5.3650  -38.1400   16.5070 C.ar   93  HIS93       0.1986
     25  NE2        5.4580  -36.8280   16.3690 N.ar   93  HIS93      -0.2212
     26  N          8.1410  -41.1900   16.3300 N.3    96  THR96      -0.1218
     27  CA         9.4260  -40.6360   16.7630 C.3    96  THR96       0.1862
     28  C         10.3930  -41.7450   17.1880 C.2    96  THR96       0.2287
     29  O         10.0950  -42.5160   18.1020 O.2    96  THR96      -0.2866
     30  CB         9.2320  -39.6520   17.9220 C.3    96  THR96       0.1770
     31  OG1        8.4500  -38.5390   17.4650 O.3    96  THR96      -0.2211
     32  CG2       10.5780  -39.1440   18.4450 C.3    96  THR96       0.0375
     33  N         14.8890  -37.9610   19.1060 N.3    99  HIS99      -0.1241
     34  CA        14.5380  -36.5610   19.2580 C.3    99  HIS99       0.1621
     35  C         15.6340  -35.8620   20.0390 C.2    99  HIS99       0.2264
     36  O         15.7480  -36.0430   21.2490 O.2    99  HIS99      -0.2867
     37  CB        13.2140  -36.4140   20.0060 C.3    99  HIS99       0.0745
     38  CG        12.7870  -34.9930   20.1880 C.ar   99  HIS99       0.0817
     39  ND1       12.5040  -34.1620   19.1250 N.ar   99  HIS99      -0.2268
     40  CD2       12.5930  -34.2540   21.3070 C.ar   99  HIS99       0.1154
     41  CE1       12.1610  -32.9690   19.5830 C.ar   99  HIS99       0.1986
     42  NE2       12.2000  -33.0000   20.9030 N.ar   99  HIS99      -0.2212
     43  N         11.1050  -38.5290   12.8470 N.3   108  GLN108     -0.1245
     44  CA         9.8470  -39.2690   12.8330 C.3   108  GLN108      0.1566
     45  C          9.8230  -40.0850   11.5540 C.2   108  GLN108      0.2260
     46  O         10.0530  -39.5500   10.4580 O.2   108  GLN108     -0.2867
     47  CB         8.6430  -38.3170   12.8710 C.3   108  GLN108      0.0367
     48  CG         8.4300  -37.5940   14.1920 C.3   108  GLN108      0.0905
     49  CD         9.5380  -36.6250   14.5470 C.2   108  GLN108      0.2608
     50  OE1        9.8880  -35.7450   13.7540 O.2   108  GLN108     -0.2717
     51  NE2       10.1080  -36.7850   15.7480 N.am  108  GLN108     -0.0878
     52  N          7.5110  -31.6610   12.8920 N.3   128  ARG128     -0.1245
     53  CA         8.4570  -31.1330   13.8740 C.3   128  ARG128      0.1563
     54  C          9.7020  -30.5200   13.2390 C.2   128  ARG128      0.2260
     55  O         10.3350  -29.6310   13.8110 O.2   128  ARG128     -0.2867
     56  CB         8.8520  -32.2450   14.8540 C.3   128  ARG128      0.0307
     57  CG         7.6580  -32.8820   15.5730 C.3   128  ARG128      0.0489
     58  CD         8.1090  -33.8400   16.6570 C.3   128  ARG128      0.2205
     59  NE         6.9780  -34.5440   17.2840 N.pl3 128  ARG128     -0.0865
     60  CZ         6.1590  -34.0080   18.1880 C.cat 128  ARG128      0.5346
     61  NH1        6.3340  -32.7620   18.5980 N.pl3 128  ARG128      0.1354
     62  NH2        5.1570  -34.7230   18.6840 N.pl3 128  ARG128      0.1354
     63  N          8.7850  -29.4400   19.7340 N.3   139  ALA139     -0.1231
     64  CA         7.7810  -29.9930   20.6420 C.3   139  ALA139      0.1679
     65  C          7.6470  -29.0750   21.8450 C.2   139  ALA139      0.2434
     66  O          8.6020  -28.3860   22.2190 O.2   139  ALA139     -0.2733
     67  CB         8.1880  -31.3770   21.0920 C.3   139  ALA139      0.0304
     68  N          6.4620  -29.0610   22.4670 N.am  140  PRO140     -0.2718
     69  CA         5.2470  -29.7730   22.0650 C.3   140  PRO140      0.1535
     70  C          4.5010  -28.9870   20.9970 C.2   140  PRO140      0.2598
     71  O          4.5990  -27.7570   20.9540 O.2   140  PRO140     -0.2715
     72  CB         4.4300  -29.8110   23.3630 C.3   140  PRO140      0.0310
     73  CG         4.8370  -28.5660   24.0750 C.3   140  PRO140      0.0237
     74  CD         6.2780  -28.3170   23.7240 C.3   140  PRO140      0.0939
     75  N          3.7810  -29.6880   20.1350 N.am  141  LEU141     -0.1964
     76  CA         3.0430  -29.0530   19.0500 C.3   141  LEU141      0.1728
     77  C          1.5800  -28.7820   19.4000 C.2   141  LEU141      0.2616
     78  O          0.9800  -27.8220   18.9130 O.2   141  LEU141     -0.2715
     79  CB         3.1220  -29.9050   17.7750 C.3   141  LEU141      0.0311
     80  CG         4.5210  -29.9620   17.1410 C.3   141  LEU141      0.0022
     81  CD1        4.5160  -30.5990   15.7550 C.3   141  LEU141      0.0001
     82  CD2        5.1150  -28.5780   17.0810 C.3   141  LEU141      0.0001
     83  N          1.0080  -29.6170   20.2560 N.am  142  VAL142     -0.1977
     84  CA        -0.4090  -29.4970   20.5870 C.3   142  VAL142      0.1596
     85  C         -0.8490  -28.1040   21.1180 C.2   142  VAL142      0.2287
     86  O         -1.9630  -27.6620   20.8240 O.2   142  VAL142     -0.2864
     87  CB        -0.8460  -30.6690   21.4980 C.3   142  VAL142      0.0276
     88  CG1       -2.3090  -30.5570   21.8880 C.3   142  VAL142      0.0022
     89  CG2       -0.6070  -31.9800   20.7570 C.3   142  VAL142      0.0022
     90  N         -4.9180  -35.1870   20.7330 N.3   305  GLU305     -0.1245
     91  CA        -3.6850  -35.3140   19.9440 C.3   305  GLU305      0.1567
     92  C         -3.9520  -35.6730   18.4900 C.2   305  GLU305      0.2260
     93  O         -3.3700  -35.0770   17.5840 O.2   305  GLU305     -0.2867
     94  CB        -2.7200  -36.3280   20.5740 C.3   305  GLU305      0.0388
     95  CG        -2.0020  -35.8290   21.8040 C.3   305  GLU305      0.1160
     96  CD        -1.2650  -36.9420   22.5220 C.2   305  GLU305      0.3649
     97  OE1       -1.3120  -38.0930   22.0370 O.co2 305  GLU305     -0.2457
     98  OE2       -0.6440  -36.6710   23.5670 O.co2 305  GLU305     -0.2457
     99  N         -3.3050  -33.2070   15.0040 N.3   309  PHE309     -0.1241
    100  CA        -2.5830  -33.4700   13.7530 C.3   309  PHE309      0.1605
    101  C         -3.4440  -33.3590   12.4810 C.2   309  PHE309      0.2264
    102  O         -2.9350  -32.9590   11.4280 O.2   309  PHE309     -0.2867
    103  CB        -1.7860  -34.7760   13.8390 C.3   309  PHE309      0.0534
    104  CG        -0.5510  -34.6490   14.6770 C.ar  309  PHE309     -0.0203
    105  CD1        0.6330  -34.1680   14.1190 C.ar  309  PHE309     -0.0042
    106  CD2       -0.5750  -34.9510   16.0290 C.ar  309  PHE309     -0.0042
    107  CE1        1.7770  -34.0230   14.9000 C.ar  309  PHE309     -0.0003
    108  CE2        0.5660  -34.8070   16.8080 C.ar  309  PHE309     -0.0003
    109  CZ         1.7380  -34.3350   16.2460 C.ar  309  PHE309     -0.0000
@<TRIPOS>BOND
     1    46    45    2
     2   102   101    2
     3    45    44    1
     4    16    17    1
     5   101   100    1
     6    18    19    2
     7    18    17    1
     8    44    43    1
     9    44    47    1
    10    47    48    1
    11    52    53    1
    12    17    20    1
    13    54    55    2
    14    54    53    1
    15   100   103    1
    16   100    99    1
    17    50    49    2
    18   103   104    1
    19    53    56    1
    20   105   104   ar
    21   105   107   ar
    22    48    49    1
    23    20    21    1
    24    49    51   am
    25   104   106   ar
    26    56    57    1
    27     1     2    1
    28   107   109   ar
    29    21    23   ar
    30    21    22   ar
    31    57    58    1
    32    23    25   ar
    33    81    80    1
    34    22    24   ar
    35     2     3    1
    36     2     5    1
    37   106   108   ar
    38   109   108   ar
    39    26    27    1
    40    25    24   ar
    41     3     4    2
    42    58    59    1
    43    27    28    1
    44    27    30    1
    45    82    80    1
    46     5     6    1
    47    80    79    1
    48    28    29    2
    49    59    60    2
    50    31    30    1
    51    93    92    2
    52     7     6    1
    53     7     8    1
    54    79    76    1
    55    30    32    1
    56    60    61    1
    57    60    62    1
    58    92    91    1
    59    78    77    2
    60    76    77    1
    61    76    75    1
    62    33    34    1
    63    39    41   ar
    64    39    38   ar
    65    34    37    1
    66    34    35    1
    67    77    83   am
    68    41    42   ar
    69    63    64    1
    70    91    94    1
    71    91    90    1
    72    37    38    1
    73    35    36    2
    74    75    70   am
    75    38    40   ar
    76    83    84    1
    77    94    95    1
    78    84    85    1
    79    84    87    1
    80    64    67    1
    81    64    65    1
    82    89    87    1
    83    86    85    2
    84    42    40   ar
    85    71    70    2
    86    70    69    1
    87    87    88    1
    88    95    96    1
    89    65    66    2
    90    65    68   am
    91    15    13    1
    92     9    10    1
    93    97    96   ar
    94    69    68    1
    95    69    72    1
    96    10    13    1
    97    10    11    1
    98    68    74    1
    99    96    98   ar
   100    13    14    1
   101    11    12    2
   102    72    73    1
   103    74    73    1
