@<TRIPOS>MOLECULE
tmp/4mo8A00.pdb
 154 152 0 0 0
SMALL
GASTEIGER

@<TRIPOS>ATOM
      1  N          8.4290   -0.3420   10.5020 N.3     2  TRP2       -0.1241
      2  CA         7.7590   -1.3540   11.3180 C.3     2  TRP2        0.1605
      3  C          6.7430   -2.1650   10.5460 C.2     2  TRP2        0.2264
      4  O          6.1740   -1.7000    9.5500 O.2     2  TRP2       -0.2867
      5  CB         7.0790   -0.7190   12.5360 C.3     2  TRP2        0.0550
      6  CG         5.9000    0.1150   12.1840 C.ar    2  TRP2        0.0003
      7  CD1        5.8820    1.4610   11.8870 C.ar    2  TRP2        0.0946
      8  CD2        4.5430   -0.3390   12.0810 C.ar    2  TRP2        0.0152
      9  NE1        4.5940    1.8590   11.6090 N.ar    2  TRP2       -0.2442
     10  CE2        3.7540    0.7770   11.7220 C.ar    2  TRP2        0.0810
     11  CE3        3.9200   -1.5820   12.2590 C.ar    2  TRP2        0.0012
     12  CZ2        2.3720    0.6890   11.5400 C.ar    2  TRP2        0.0191
     13  CZ3        2.5390   -1.6700   12.0770 C.ar    2  TRP2        0.0001
     14  CH2        1.7820   -0.5390   11.7220 C.ar    2  TRP2        0.0015
     15  N         -3.2930    0.2620    3.5650 N.3    59  ASN59      -0.1240
     16  CA        -2.1510    1.0970    3.9420 C.3    59  ASN59       0.1653
     17  C         -0.8610    0.3270    4.1860 C.2    59  ASN59       0.2266
     18  O          0.1030    0.8760    4.7070 O.2    59  ASN59      -0.2867
     19  CB        -2.4980    1.9370    5.1870 C.3    59  ASN59       0.1155
     20  CG        -2.7460    1.0760    6.4210 C.2    59  ASN59       0.2627
     21  OD1       -2.5760   -0.1400    6.3880 O.2    59  ASN59      -0.2716
     22  ND2       -3.1310    1.7100    7.5120 N.am   59  ASN59      -0.0877
     23  N         -0.5900   -2.3560    6.1500 N.3    61  HIS61      -0.1241
     24  CA        -0.7010   -3.2580    7.2960 C.3    61  HIS61       0.1621
     25  C         -2.1290   -3.6470    7.6360 C.2    61  HIS61       0.2264
     26  O         -2.3430   -4.5440    8.4370 O.2    61  HIS61      -0.2867
     27  CB        -0.0090   -2.7100    8.5390 C.3    61  HIS61       0.0745
     28  CG        -0.3710   -1.3030    8.8780 C.ar   61  HIS61       0.0817
     29  ND1        0.3760   -0.2250    8.4500 N.ar   61  HIS61      -0.2268
     30  CD2       -1.3590   -0.7930    9.6550 C.ar   61  HIS61       0.1154
     31  CE1       -0.1330    0.8860    8.9520 C.ar   61  HIS61       0.1986
     32  NE2       -1.1850    0.5730    9.6870 N.ar   61  HIS61      -0.2212
     33  N         -8.3100    0.4110    5.7700 N.3    64  ASN64      -0.1240
     34  CA        -9.1540    1.3110    6.5270 C.3    64  ASN64       0.1653
     35  C        -10.3440    1.7870    5.7120 C.2    64  ASN64       0.2266
     36  O        -10.1870    2.1570    4.5460 O.2    64  ASN64      -0.2867
     37  CB        -8.4040    2.5890    6.9490 C.3    64  ASN64       0.1155
     38  CG        -7.1500    2.3260    7.7290 C.2    64  ASN64       0.2627
     39  OD1       -7.0090    1.2940    8.3600 O.2    64  ASN64      -0.2716
     40  ND2       -6.2150    3.2890    7.6970 N.am   64  ASN64      -0.0877
     41  N        -12.4960    6.2360   11.2130 N.3    89  GLN89      -0.1245
     42  CA       -12.2700    5.0760   10.3500 C.3    89  GLN89       0.1566
     43  C        -12.4360    3.7790   11.1230 C.2    89  GLN89       0.2260
     44  O        -12.5170    3.8050   12.3410 O.2    89  GLN89      -0.2867
     45  CB       -10.8360    5.1070    9.7920 C.3    89  GLN89       0.0367
     46  CG        -9.7230    5.0910   10.8780 C.3    89  GLN89       0.0905
     47  CD        -8.9560    3.7660   10.9550 C.2    89  GLN89       0.2608
     48  OE1       -9.5430    2.7140   11.1970 O.2    89  GLN89      -0.2717
     49  NE2       -7.6420    3.8210   10.7510 N.am   89  GLN89      -0.0878
     50  N        -11.0720   -0.5740   10.9160 N.3    91  HIS91      -0.1241
     51  CA       -10.1850   -1.5130   10.2430 C.3    91  HIS91       0.1621
     52  C        -10.2530   -2.7700   11.0740 C.2    91  HIS91       0.2264
     53  O        -10.9230   -2.7920   12.1220 O.2    91  HIS91      -0.2867
     54  CB        -8.7310   -1.0160   10.2450 C.3    91  HIS91       0.0745
     55  CG        -8.2100   -0.6870   11.6190 C.ar   91  HIS91       0.0817
     56  ND1       -8.4070    0.5200   12.2550 N.ar   91  HIS91      -0.2268
     57  CD2       -7.5660   -1.4720   12.5190 C.ar   91  HIS91       0.1154
     58  CE1       -7.8950    0.4130   13.4960 C.ar   91  HIS91       0.1986
     59  NE2       -7.3740   -0.7870   13.6890 N.ar   91  HIS91      -0.2212
     60  N         -7.8940   -6.5550   12.3470 N.3    93  HIS93      -0.1241
     61  CA        -6.6430   -7.2580   12.5980 C.3    93  HIS93       0.1621
     62  C         -7.0900   -8.7240   12.4660 C.2    93  HIS93       0.2264
     63  O         -8.1130   -9.1080   13.0370 O.2    93  HIS93      -0.2867
     64  CB        -6.1370   -6.9860   14.0210 C.3    93  HIS93       0.0745
     65  CG        -5.7790   -5.5570   14.2600 C.ar   93  HIS93       0.0817
     66  ND1       -4.5180   -5.0330   14.0610 N.ar   93  HIS93      -0.2268
     67  CD2       -6.5610   -4.5130   14.6440 C.ar   93  HIS93       0.1154
     68  CE1       -4.5700   -3.7200   14.3360 C.ar   93  HIS93       0.1986
     69  NE2       -5.7900   -3.3610   14.6910 N.ar   93  HIS93      -0.2212
     70  N        -11.8660   -2.6600   14.7820 N.3   116  HIS116     -0.1241
     71  CA       -11.6430   -1.4640   15.5620 C.3   116  HIS116      0.1621
     72  C        -12.3090   -0.2840   14.8530 C.2   116  HIS116      0.2264
     73  O        -11.9800    0.0080   13.6890 O.2   116  HIS116     -0.2867
     74  CB       -10.1190   -1.1890   15.6980 C.3   116  HIS116      0.0745
     75  CG        -9.4090   -2.1720   16.5830 C.ar  116  HIS116      0.0817
     76  ND1       -8.0380   -2.3170   16.5570 N.ar  116  HIS116     -0.2268
     77  CD2       -9.9310   -3.0220   17.5010 C.ar  116  HIS116      0.1154
     78  CE1       -7.7590   -3.2480   17.4550 C.ar  116  HIS116      0.1986
     79  NE2       -8.8680   -3.7090   18.0540 N.ar  116  HIS116     -0.2212
     80  N        -12.5150    3.4440   15.1980 N.3   118  VAL118     -0.1245
     81  CA       -11.7380    4.5100   15.8270 C.3   118  VAL118      0.1561
     82  C        -12.4700    5.8340   15.8620 C.2   118  VAL118      0.2260
     83  O        -12.9170    6.3140   14.8260 O.2   118  VAL118     -0.2867
     84  CB       -10.4140    4.6890   15.0520 C.3   118  VAL118      0.0252
     85  CG1       -9.5070    5.6990   15.7500 C.3   118  VAL118      0.0019
     86  CG2       -9.7250    3.3460   14.9110 C.3   118  VAL118      0.0019
     87  N         -8.1720   14.8040   14.7340 N.3   127  PHE127     -0.1241
     88  CA        -7.5470   13.5510   15.1200 C.3   127  PHE127      0.1605
     89  C         -6.0870   13.7250   15.5170 C.2   127  PHE127      0.2264
     90  O         -5.6470   13.1680   16.5170 O.2   127  PHE127     -0.2867
     91  CB        -7.6490   12.5490   13.9680 C.3   127  PHE127      0.0534
     92  CG        -7.0220   11.2310   14.2630 C.ar  127  PHE127     -0.0203
     93  CD1       -7.7280   10.2450   14.9520 C.ar  127  PHE127     -0.0042
     94  CD2       -5.7190   10.9780   13.8770 C.ar  127  PHE127     -0.0042
     95  CE1       -7.1370    9.0230   15.2510 C.ar  127  PHE127     -0.0003
     96  CE2       -5.1080    9.7570   14.1690 C.ar  127  PHE127     -0.0003
     97  CZ        -5.8210    8.7770   14.8590 C.ar  127  PHE127     -0.0000
     98  N        -11.8080    3.7150   21.1110 N.3   139  VAL139     -0.1245
     99  CA       -11.8340    2.7140   20.0530 C.3   139  VAL139      0.1561
    100  C        -12.7780    1.6070   20.5040 C.2   139  VAL139      0.2260
    101  O        -12.6240    1.0490   21.5910 O.2   139  VAL139     -0.2867
    102  CB       -10.4300    2.1090   19.7500 C.3   139  VAL139      0.0252
    103  CG1      -10.5310    1.1070   18.5830 C.3   139  VAL139      0.0019
    104  CG2       -9.4490    3.2050   19.3760 C.3   139  VAL139      0.0019
    105  N         -2.7840    2.9820   21.2580 N.3   194  LEU194     -0.1231
    106  CA        -2.9560    2.5160   19.8880 C.3   194  LEU194      0.1693
    107  C         -2.1910    1.1850   19.9160 C.2   194  LEU194      0.2593
    108  O         -1.2110    1.0620   20.6600 O.2   194  LEU194     -0.2718
    109  CB        -2.2330    3.4530   18.9220 C.3   194  LEU194      0.0284
    110  CG        -2.7540    4.8860   18.8490 C.3   194  LEU194      0.0019
    111  CD1       -1.8940    5.6610   17.8540 C.3   194  LEU194      0.0001
    112  CD2       -4.2280    4.8720   18.4070 C.3   194  LEU194      0.0001
    113  N         -2.6080    0.2010   19.1230 N.am  195  THR195     -0.1939
    114  CA        -1.8980   -1.0820   19.0910 C.3   195  THR195      0.2028
    115  C         -0.8800   -1.1590   17.9510 C.2   195  THR195      0.2643
    116  O         -0.2580   -2.2070   17.7420 O.2   195  THR195     -0.2714
    117  CB        -2.8430   -2.2520   18.9470 C.3   195  THR195      0.1808
    118  OG1       -3.5010   -2.1520   17.6790 O.3   195  THR195     -0.2208
    119  CG2       -3.8640   -2.2670   20.1010 C.3   195  THR195      0.0379
    120  N         -0.7490   -0.0690   17.1940 N.am  196  THR196     -0.1937
    121  CA         0.2490    0.0310   16.1240 C.3   196  THR196      0.2013
    122  C          1.0770    1.2650   16.4200 C.2   196  THR196      0.2484
    123  O          0.6050    2.1950   17.0920 O.2   196  THR196     -0.2729
    124  CB        -0.3400    0.3400   14.7240 C.3   196  THR196      0.1807
    125  OG1       -1.0750    1.5880   14.7690 O.3   196  THR196     -0.2208
    126  CG2       -1.2420   -0.7920   14.2510 C.3   196  THR196      0.0379
    127  N          2.3250    1.2920   15.9210 N.am  197  PRO197     -0.2715
    128  CA         3.1640    2.4700   16.1420 C.3   197  PRO197      0.1521
    129  C          2.2870    3.6300   15.6520 C.2   197  PRO197      0.2440
    130  O          1.5240    3.4620   14.6840 O.2   197  PRO197     -0.2731
    131  CB         4.3340    2.2170   15.2000 C.3   197  PRO197      0.0310
    132  CG         4.5500    0.7320   15.3370 C.3   197  PRO197      0.0237
    133  CD         3.0930    0.1960   15.2900 C.3   197  PRO197      0.0939
    134  N          2.4030    4.8250   16.2440 N.am  198  PRO198     -0.2727
    135  CA         3.2580    5.2970   17.3360 C.3   198  PRO198      0.1402
    136  C          2.9270    4.8070   18.7500 C.2   198  PRO198      0.2269
    137  O          3.5520    5.2450   19.7120 O.2   198  PRO198     -0.2865
    138  CB         3.1660    6.8250   17.2030 C.3   198  PRO198      0.0296
    139  CG         1.7580    7.0250   16.7330 C.3   198  PRO198      0.0237
    140  CD         1.6040    5.9420   15.6840 C.3   198  PRO198      0.0939
    141  N        -10.3350    2.2210   25.6630 N.3   205  TRP205     -0.1241
    142  CA       -10.8090    1.0480   24.9560 C.3   205  TRP205      0.1605
    143  C        -12.1670    0.5950   25.4570 C.2   205  TRP205      0.2264
    144  O        -12.4240    0.5610   26.6630 O.2   205  TRP205     -0.2867
    145  CB        -9.8030   -0.1200   25.0910 C.3   205  TRP205      0.0550
    146  CG        -8.6710   -0.0130   24.1180 C.ar  205  TRP205      0.0003
    147  CD1       -7.4270    0.5330   24.3300 C.ar  205  TRP205      0.0946
    148  CD2       -8.7100   -0.4060   22.7510 C.ar  205  TRP205      0.0152
    149  NE1       -6.6990    0.5050   23.1700 N.ar  205  TRP205     -0.2442
    150  CE2       -7.4650   -0.0710   22.1830 C.ar  205  TRP205      0.0810
    151  CE3       -9.6860   -1.0140   21.9450 C.ar  205  TRP205      0.0012
    152  CZ2       -7.1680   -0.3190   20.8500 C.ar  205  TRP205      0.0191
    153  CZ3       -9.3850   -1.2660   20.6140 C.ar  205  TRP205      0.0001
    154  CH2       -8.1360   -0.9180   20.0830 C.ar  205  TRP205      0.0015
@<TRIPOS>BOND
     1    15    16    1
     2    16    17    1
     3    16    19    1
     4    17    18    2
     5    36    35    2
     6    19    20    1
     7    35    34    1
     8    33    34    1
     9    23    24    1
    10    21    20    2
    11    20    22   am
    12    34    37    1
    13    37    38    1
    14    24    25    1
    15    24    27    1
    16    25    26    2
    17    40    38   am
    18    38    39    2
    19    29    28   ar
    20    29    31   ar
    21    27    28    1
    22    28    30   ar
    23    31    32   ar
    24     4     3    2
    25    30    32   ar
    26    45    42    1
    27    45    46    1
    28    51    54    1
    29    51    50    1
    30    51    52    1
    31    54    55    1
    32    42    43    1
    33    42    41    1
    34     1     2    1
    35     3     2    1
    36    49    47   am
    37    46    47    1
    38    47    48    2
    39    52    53    2
    40    43    44    2
    41     2     5    1
    42    12    10   ar
    43    12    14   ar
    44     9    10   ar
    45     9     7   ar
    46    55    56   ar
    47    55    57   ar
    48    10     8   ar
    49    14    13   ar
    50     7     6   ar
    51    13    11   ar
    52     8     6   ar
    53     8    11   ar
    54     6     5    1
    55    56    58   ar
    56    60    61    1
    57    62    61    1
    58    62    63    2
    59    57    59   ar
    60    61    64    1
    61    58    59   ar
    62    73    72    2
    63    94    96   ar
    64    94    92   ar
    65    91    92    1
    66    91    88    1
    67    64    65    1
    68    66    65   ar
    69    66    68   ar
    70    96    97   ar
    71   126   124    1
    72    65    67   ar
    73    92    93   ar
    74    68    69   ar
    75    67    69   ar
    76   130   129    2
    77   124   125    1
    78   124   121    1
    79    87    88    1
    80    70    71    1
    81    83    82    2
    82    72    71    1
    83    97    95   ar
    84    86    84    1
    85    93    95   ar
    86    84    85    1
    87    84    81    1
    88    88    89    1
    89    80    81    1
    90   131   132    1
    91   131   128    1
    92   133   132    1
    93   133   127    1
    94    89    90    2
    95    71    74    1
    96   129   128    1
    97   129   134   am
    98   140   134    1
    99   140   139    1
   100    74    75    1
   101    81    82    1
   102   127   128    1
   103   127   122   am
   104   121   122    1
   105   121   120    1
   106   134   135    1
   107   122   123    2
   108    76    75   ar
   109    76    78   ar
   110    75    77   ar
   111   139   138    1
   112   120   115   am
   113   138   135    1
   114   135   136    1
   115    78    79   ar
   116    77    79   ar
   117   118   117    1
   118   116   115    2
   119   111   110    1
   120   115   114    1
   121   112   110    1
   122   103   102    1
   123   136   137    2
   124   110   109    1
   125   109   106    1
   126   117   114    1
   127   117   119    1
   128   114   113    1
   129   113   107   am
   130   104   102    1
   131   102    99    1
   132   106   107    1
   133   106   105    1
   134   107   108    2
   135    99   100    1
   136    99    98    1
   137   154   153   ar
   138   154   152   ar
   139   100   101    2
   140   153   151   ar
   141   152   150   ar
   142   151   148   ar
   143   150   148   ar
   144   150   149   ar
   145   148   146   ar
   146   149   147   ar
   147   146   147   ar
   148   146   145    1
   149   142   145    1
   150   142   143    1
   151   142   141    1
   152   143   144    2
