@<TRIPOS>MOLECULE
tmp/4mobA00.pdb
 191 182 0 0 0
SMALL
GASTEIGER

@<TRIPOS>ATOM
      1  N        -19.0990   17.1680  -40.4610 N.3    45  VAL45      -0.1231
      2  CA       -18.9270   18.5970  -40.7140 C.3    45  VAL45       0.1692
      3  C        -18.7400   18.8740  -42.2130 C.2    45  VAL45       0.2593
      4  O        -18.2920   17.9980  -42.9840 O.2    45  VAL45      -0.2718
      5  CB       -17.7320   19.1820  -39.9160 C.3    45  VAL45       0.0266
      6  CG1      -17.9380   18.9700  -38.4340 C.3    45  VAL45       0.0020
      7  CG2      -16.4140   18.5400  -40.3730 C.3    45  VAL45       0.0020
      8  N        -19.0900   20.0890  -42.6200 N.am   46  THR46      -0.1939
      9  CA       -18.9930   20.4870  -44.0150 C.3    46  THR46       0.2028
     10  C        -17.5230   20.5910  -44.4250 C.2    46  THR46       0.2642
     11  O        -16.7660   21.3840  -43.8650 O.2    46  THR46      -0.2714
     12  CB       -19.6560   21.8490  -44.2430 C.3    46  THR46       0.1808
     13  OG1      -20.8440   21.9520  -43.4490 O.3    46  THR46      -0.2208
     14  CG2      -19.9740   22.0740  -45.7320 C.3    46  THR46       0.0379
     15  N        -17.1230   19.7940  -45.4100 N.am   47  ALA47      -0.1963
     16  CA       -15.7500   19.8140  -45.9060 C.3    47  ALA47       0.1728
     17  C        -15.6620   20.8310  -47.0520 C.2    47  ALA47       0.2616
     18  O        -14.7570   21.6720  -47.0900 O.2    47  ALA47      -0.2715
     19  CB       -15.3180   18.4140  -46.3660 C.3    47  ALA47       0.0334
     20  N        -16.6240   20.7640  -47.9720 N.am   48  SER48      -0.1950
     21  CA       -16.6490   21.6950  -49.0960 C.3    48  SER48       0.1924
     22  C        -18.0260   21.7600  -49.7010 C.2    48  SER48       0.2314
     23  O        -18.8910   20.8940  -49.4450 O.2    48  SER48      -0.2863
     24  CB       -15.6450   21.2820  -50.1760 C.3    48  SER48       0.2116
     25  OG       -15.9800   20.0110  -50.7000 O.3    48  SER48      -0.2180
     26  N        -16.7020    7.7200  -49.4400 N.3    74  PHE74      -0.1227
     27  CA       -15.3240    7.3480  -49.7140 C.3    74  PHE74       0.1736
     28  C        -14.6750    6.7390  -48.4790 C.2    74  PHE74       0.2596
     29  O        -15.1110    5.6890  -48.0040 O.2    74  PHE74      -0.2718
     30  CB       -14.5680    8.5560  -50.2510 C.3    74  PHE74       0.0547
     31  CG       -15.2200    9.1570  -51.4680 C.ar   74  PHE74      -0.0202
     32  CD1      -16.0330   10.2890  -51.3580 C.ar   74  PHE74      -0.0042
     33  CD2      -15.0640    8.5680  -52.7170 C.ar   74  PHE74      -0.0042
     34  CE1      -16.6660   10.8520  -52.4900 C.ar   74  PHE74      -0.0003
     35  CE2      -15.6920    9.1270  -53.8600 C.ar   74  PHE74      -0.0003
     36  CZ       -16.4910   10.2750  -53.7430 C.ar   74  PHE74      -0.0000
     37  N        -13.6450    7.3780  -47.9450 N.am   75  SER75      -0.1938
     38  CA       -13.0220    6.8360  -46.7510 C.3    75  SER75       0.2055
     39  C        -13.5750    7.5180  -45.4900 C.2    75  SER75       0.2644
     40  O        -14.2170    6.8760  -44.6570 O.2    75  SER75      -0.2714
     41  CB       -11.4970    6.9320  -46.8350 C.3    75  SER75       0.2130
     42  OG       -10.9220    6.2680  -45.7250 O.3    75  SER75      -0.2179
     43  N        -13.3380    8.8170  -45.3570 N.am   76  THR76      -0.1936
     44  CA       -13.9410    9.5840  -44.2640 C.3    76  THR76       0.2028
     45  C        -14.9530   10.5910  -44.7980 C.2    76  THR76       0.2642
     46  O        -15.6580   11.2440  -44.0400 O.2    76  THR76      -0.2714
     47  CB       -12.8890   10.3620  -43.4230 C.3    76  THR76       0.1808
     48  OG1      -12.3050   11.4010  -44.2250 O.3    76  THR76      -0.2208
     49  CG2      -11.8030    9.4240  -42.9080 C.3    76  THR76       0.0379
     50  N        -15.0120   10.7380  -46.1090 N.am   77  SER77      -0.1949
     51  CA       -15.8270   11.7930  -46.6560 C.3    77  SER77       0.1924
     52  C        -16.9710   11.1760  -47.4180 C.2    77  SER77       0.2314
     53  O        -16.8880   10.0170  -47.8370 O.2    77  SER77      -0.2863
     54  CB       -14.9910   12.6890  -47.5740 C.3    77  SER77       0.2116
     55  OG       -14.6470   12.0200  -48.7690 O.3    77  SER77      -0.2180
     56  N        -19.7530   18.2630  -49.8550 N.3   103  THR103     -0.1218
     57  CA       -19.0040   17.1270  -49.3190 C.3   103  THR103      0.1862
     58  C        -18.9260   17.1940  -47.8010 C.2   103  THR103      0.2287
     59  O        -18.5430   18.2130  -47.2480 O.2   103  THR103     -0.2866
     60  CB       -17.5910   17.0980  -49.8800 C.3   103  THR103      0.1770
     61  OG1      -17.6560   16.9080  -51.3020 O.3   103  THR103     -0.2211
     62  CG2      -16.7640   15.9750  -49.2090 C.3   103  THR103      0.0375
     63  N        -17.4320   15.4370  -44.0720 N.3   105  VAL105     -0.1245
     64  CA       -16.4420   14.5550  -43.4600 C.3   105  VAL105      0.1561
     65  C        -16.9250   14.0880  -42.0840 C.2   105  VAL105      0.2260
     66  O        -17.3660   14.8950  -41.2730 O.2   105  VAL105     -0.2867
     67  CB       -15.0540   15.2410  -43.3230 C.3   105  VAL105      0.0252
     68  CG1      -14.1930   14.4980  -42.3050 C.3   105  VAL105      0.0019
     69  CG2      -14.3440   15.2850  -44.6630 C.3   105  VAL105      0.0019
     70  N        -16.6860   13.0680  -38.3240 N.3   107  LYS107     -0.1245
     71  CA       -15.7870   13.4200  -37.2290 C.3   107  LYS107      0.1561
     72  C        -16.0380   12.5320  -36.0090 C.2   107  LYS107      0.2260
     73  O        -16.7800   12.9090  -35.0930 O.2   107  LYS107     -0.2867
     74  CB       -15.9330   14.8990  -36.8610 C.3   107  LYS107      0.0271
     75  CG       -15.2160   15.8610  -37.8070 C.3   107  LYS107      0.0035
     76  CD       -13.7000   15.6250  -37.8110 C.3   107  LYS107      0.0206
     77  CE       -12.9840   16.3880  -38.9390 C.3   107  LYS107      0.1093
     78  NZ       -11.5120   16.1540  -38.9140 N.3   107  LYS107     -0.1314
     79  N        -15.3920   14.5610  -57.5620 N.3   137  ARG137     -0.1245
     80  CA       -14.3490   14.6480  -56.5530 C.3   137  ARG137      0.1563
     81  C        -13.0240   15.1440  -57.1550 C.2   137  ARG137      0.2260
     82  O        -12.2700   15.8840  -56.5040 O.2   137  ARG137     -0.2867
     83  CB       -14.1440   13.2870  -55.9010 C.3   137  ARG137      0.0307
     84  CG       -13.2450   13.3360  -54.7010 C.3   137  ARG137      0.0489
     85  CD       -12.9130   11.9540  -54.2530 C.3   137  ARG137      0.2205
     86  NE       -12.5460   11.9660  -52.8500 N.pl3 137  ARG137     -0.0865
     87  CZ       -11.9680   10.9530  -52.2340 C.cat 137  ARG137      0.5346
     88  NH1      -11.6850    9.8600  -52.9240 N.pl3 137  ARG137      0.1354
     89  NH2      -11.6820   11.0400  -50.9420 N.pl3 137  ARG137      0.1354
     90  N        -13.2560   18.8920  -57.5590 N.3   140  ARG140     -0.1231
     91  CA       -13.0610   19.4860  -56.2270 C.3   140  ARG140      0.1694
     92  C        -11.5880   19.6070  -55.8500 C.2   140  ARG140      0.2591
     93  O        -11.1330   20.6620  -55.4030 O.2   140  ARG140     -0.2718
     94  CB       -13.7510   18.6530  -55.1400 C.3   140  ARG140      0.0321
     95  CG       -15.2120   18.8800  -55.0510 C.3   140  ARG140      0.0489
     96  CD       -15.9280   17.7210  -54.4350 C.3   140  ARG140      0.2205
     97  NE       -17.3150   17.7680  -54.8710 N.pl3 140  ARG140     -0.0865
     98  CZ       -18.0440   16.7000  -55.1840 C.cat 140  ARG140      0.5346
     99  NH1      -17.5170   15.4710  -55.0940 N.pl3 140  ARG140      0.1354
    100  NH2      -19.3090   16.8690  -55.5810 N.pl3 140  ARG140      0.1354
    101  N        -10.8580   18.5110  -56.0290 N.am  141  LEU141     -0.1980
    102  CA        -9.4660   18.4250  -55.6090 C.3   141  LEU141      0.1596
    103  C         -8.5030   19.2510  -56.4980 C.2   141  LEU141      0.2287
    104  O         -7.5070   19.7790  -56.0070 O.2   141  LEU141     -0.2864
    105  CB        -9.0460   16.9470  -55.5190 C.3   141  LEU141      0.0297
    106  CG        -9.3520   16.1420  -54.2380 C.3   141  LEU141      0.0022
    107  CD1      -10.3850   16.8070  -53.3300 C.3   141  LEU141      0.0001
    108  CD2       -9.7850   14.7140  -54.5570 C.3   141  LEU141      0.0001
    109  N        -18.4900   21.8960  -32.7790 N.3   192  ASN192     -0.1225
    110  CA       -17.9920   22.2890  -34.1060 C.3   192  ASN192      0.1785
    111  C        -18.9640   23.1560  -34.8860 C.2   192  ASN192      0.2597
    112  O        -20.1060   22.7560  -35.1520 O.2   192  ASN192     -0.2718
    113  CB       -17.6190   21.0680  -34.9430 C.3   192  ASN192      0.1169
    114  CG       -16.2230   20.5540  -34.6310 C.2   192  ASN192      0.2627
    115  OD1      -16.0730   19.5000  -34.0080 O.2   192  ASN192     -0.2716
    116  ND2      -15.1930   21.2970  -35.0650 N.am  192  ASN192     -0.0877
    117  N        -18.4900   24.3460  -35.2460 N.am  193  THR193     -0.1953
    118  CA       -19.2940   25.3310  -35.9570 C.3   193  THR193      0.1897
    119  C        -19.9080   24.7340  -37.2280 C.2   193  THR193      0.2313
    120  O        -19.2010   24.0900  -38.0220 O.2   193  THR193     -0.2863
    121  CB       -18.4240   26.5390  -36.3430 C.3   193  THR193      0.1794
    122  OG1      -17.7230   26.9920  -35.1840 O.3   193  THR193     -0.2208
    123  CG2      -19.2770   27.6690  -36.8920 C.3   193  THR193      0.0378
    124  N        -21.0490   24.5950  -40.9480 N.3   195  GLY195     -0.1225
    125  CA       -20.6310   25.2850  -42.1570 C.3   195  GLY195      0.1811
    126  C        -21.7410   26.1520  -42.7200 C.2   195  GLY195      0.2280
    127  O        -21.4890   27.2010  -43.3100 O.2   195  GLY195     -0.2866
    128  N        -21.6830   29.5750  -41.1050 N.3   198  ILE198     -0.1245
    129  CA       -20.6610   30.4120  -41.7010 C.3   198  ILE198      0.1561
    130  C        -21.1310   30.9600  -43.0570 C.2   198  ILE198      0.2260
    131  O        -20.9440   32.1490  -43.3590 O.2   198  ILE198     -0.2867
    132  CB       -19.3270   29.6750  -41.8100 C.3   198  ILE198      0.0252
    133  CG1      -18.8670   29.2510  -40.4130 C.3   198  ILE198      0.0019
    134  CG2      -18.2840   30.5540  -42.4540 C.3   198  ILE198      0.0019
    135  CD1      -17.5310   28.5620  -40.3900 C.3   198  ILE198      0.0001
    136  N        -13.7720   25.4280  -50.2630 N.3   227  LYS227     -0.1231
    137  CA       -13.3920   24.4490  -49.2560 C.3   227  LYS227      0.1693
    138  C        -13.3580   25.0800  -47.8540 C.2   227  LYS227      0.2592
    139  O        -12.8790   26.2100  -47.6840 O.2   227  LYS227     -0.2718
    140  CB       -12.0080   23.8800  -49.5930 C.3   227  LYS227      0.0285
    141  CG       -11.4120   23.0840  -48.4700 C.3   227  LYS227      0.0035
    142  CD       -10.0940   22.3880  -48.8300 C.3   227  LYS227      0.0206
    143  CE        -9.6990   21.4330  -47.6820 C.3   227  LYS227      0.1093
    144  NZ        -8.5020   20.6230  -47.9750 N.3   227  LYS227     -0.1314
    145  N        -13.8710   24.3690  -46.8520 N.am  228  PHE228     -0.1962
    146  CA       -13.5500   24.7390  -45.4690 C.3   228  PHE228      0.1771
    147  C        -12.1720   24.1980  -45.0850 C.2   228  PHE228      0.2619
    148  O        -11.9760   22.9890  -45.0130 O.2   228  PHE228     -0.2715
    149  CB       -14.6210   24.2690  -44.4900 C.3   228  PHE228      0.0574
    150  CG       -15.8920   25.0570  -44.5730 C.ar  228  PHE228     -0.0200
    151  CD1      -15.9710   26.3310  -44.0190 C.ar  228  PHE228     -0.0042
    152  CD2      -17.0120   24.5330  -45.2140 C.ar  228  PHE228     -0.0042
    153  CE1      -17.1460   27.0700  -44.0970 C.ar  228  PHE228     -0.0003
    154  CE2      -18.1960   25.2660  -45.2960 C.ar  228  PHE228     -0.0003
    155  CZ       -18.2620   26.5340  -44.7400 C.ar  228  PHE228     -0.0000
    156  N        -11.2400   25.1120  -44.8320 N.am  229  ARG229     -0.1963
    157  CA        -9.8270   24.7900  -44.6930 C.3   229  ARG229      0.1729
    158  C         -9.4740   24.2350  -43.3160 C.2   229  ARG229      0.2617
    159  O         -8.4320   23.6060  -43.1390 O.2   229  ARG229     -0.2715
    160  CB        -8.9650   26.0380  -44.9910 C.3   229  ARG229      0.0348
    161  CG        -9.2790   26.7390  -46.3280 C.3   229  ARG229      0.0492
    162  CD        -8.5110   28.0620  -46.5350 C.3   229  ARG229      0.2205
    163  NE        -7.1010   27.8460  -46.9110 N.pl3 229  ARG229     -0.0865
    164  CZ        -6.0910   27.7090  -46.0420 C.cat 229  ARG229      0.5346
    165  NH1       -6.3150   27.7610  -44.7220 N.pl3 229  ARG229      0.1354
    166  NH2       -4.8470   27.5160  -46.4860 N.pl3 229  ARG229      0.1354
    167  N        -10.3280   24.4780  -42.3310 N.am  230  GLY230     -0.1941
    168  CA       -10.0410   24.0370  -40.9760 C.3   230  GLY230      0.1998
    169  C        -11.2540   24.2190  -40.0910 C.2   230  GLY230      0.2481
    170  O        -12.1870   24.9290  -40.4760 O.2   230  GLY230     -0.2729
    171  N        -11.2470   23.5830  -38.9060 N.am  231  PRO231     -0.2715
    172  CA       -12.3750   23.5620  -37.9640 C.3   231  PRO231      0.1536
    173  C        -12.6440   24.9080  -37.2620 C.2   231  PRO231      0.2599
    174  O        -11.7300   25.7270  -37.1080 O.2   231  PRO231     -0.2715
    175  CB       -11.9270   22.5290  -36.9200 C.3   231  PRO231      0.0310
    176  CG       -10.4010   22.6130  -36.9420 C.3   231  PRO231      0.0237
    177  CD       -10.0590   22.8710  -38.3800 C.3   231  PRO231      0.0939
    178  N        -13.8900   25.1230  -36.8390 N.am  232  SER232     -0.1950
    179  CA       -14.2000   26.2270  -35.9420 C.3   232  SER232      0.1924
    180  C        -15.0300   25.6660  -34.7930 C.2   232  SER232      0.2314
    181  O        -15.7890   24.7110  -34.9800 O.2   232  SER232     -0.2863
    182  CB       -14.9600   27.3370  -36.6850 C.3   232  SER232      0.2116
    183  OG       -15.3880   28.3640  -35.8080 O.3   232  SER232     -0.2180
    184  N        -10.5340   30.2960  -42.3220 N.3   274  ILE274     -0.1245
    185  CA       -11.5400   29.2160  -42.4230 C.3   274  ILE274      0.1561
    186  C        -11.9280   28.9230  -43.8820 C.2   274  ILE274      0.2260
    187  O        -11.9410   27.7720  -44.3330 O.2   274  ILE274     -0.2867
    188  CB       -12.8230   29.5310  -41.6050 C.3   274  ILE274      0.0252
    189  CG1      -12.4770   29.7210  -40.1270 C.3   274  ILE274      0.0019
    190  CG2      -13.8880   28.3940  -41.7730 C.3   274  ILE274      0.0019
    191  CD1      -11.8080   28.4830  -39.5090 C.3   274  ILE274      0.0001
@<TRIPOS>BOND
     1    79    80    1
     2    90    91    1
     3    81    80    1
     4    81    82    2
     5    80    83    1
     6   103   104    2
     7   103   102    1
     8    91    92    1
     9    91    94    1
    10   101    92   am
    11   101   102    1
    12    83    84    1
    13    92    93    2
    14   102   105    1
    15   100    98    1
    16   105   106    1
    17    98    99    1
    18    98    97    2
    19    94    95    1
    20    95    96    1
    21    97    96    1
    22    84    85    1
    23   108   106    1
    24    85    86    1
    25   106   107    1
    26    35    36   ar
    27    35    33   ar
    28    36    34   ar
    29    88    87    1
    30    86    87    2
    31    33    31   ar
    32    34    32   ar
    33    87    89    1
    34    31    32   ar
    35    31    30    1
    36    61    60    1
    37    25    24    1
    38   136   137    1
    39    30    27    1
    40    24    21    1
    41    60    57    1
    42    60    62    1
    43    56    57    1
    44    27    26    1
    45    27    28    1
    46    22    23    2
    47    22    21    1
    48   140   137    1
    49   140   141    1
    50    57    58    1
    51   137   138    1
    52    21    20    1
    53   142   141    1
    54   142   143    1
    55    55    54    1
    56    28    29    2
    57    28    37   am
    58   144   143    1
    59    20    17   am
    60    37    38    1
    61   138   139    2
    62   138   145   am
    63    53    52    2
    64    58    59    2
    65    54    51    1
    66    52    51    1
    67    18    17    2
    68    17    16    1
    69   163   162    1
    70   163   164    2
    71   145   146    1
    72    41    38    1
    73    41    42    1
    74    38    39    1
    75    51    50    1
    76   162   161    1
    77   166   164    1
    78    19    16    1
    79   161   160    1
    80    50    45   am
    81   164   165    1
    82    16    15    1
    83    14    12    1
    84    39    43   am
    85    39    40    2
    86   146   147    1
    87   146   149    1
    88    15    10   am
    89    43    44    1
    90   154   152   ar
    91   154   155   ar
    92   152   150   ar
    93   147   148    2
    94   147   156   am
    95   160   157    1
    96   156   157    1
    97    45    44    1
    98    45    46    2
    99   155   153   ar
   100   157   158    1
   101    69    67    1
   102   150   149    1
   103   150   151   ar
   104    10     9    1
   105    10    11    2
   106   187   186    2
   107    44    47    1
   108    12     9    1
   109    12    13    1
   110    48    47    1
   111   153   151   ar
   112    63    64    1
   113     9     8    1
   114   186   185    1
   115    64    67    1
   116    64    65    1
   117    47    49    1
   118   131   130    2
   119    67    68    1
   120   158   159    2
   121   158   167   am
   122   127   126    2
   123   130   129    1
   124     4     3    2
   125   126   125    1
   126     8     3   am
   127   134   132    1
   128   185   184    1
   129   185   188    1
   130   167   168    1
   131     3     2    1
   132   125   124    1
   133    65    66    2
   134   132   129    1
   135   132   133    1
   136   190   188    1
   137   129   128    1
   138   188   189    1
   139   168   169    1
   140     2     1    1
   141     2     5    1
   142   170   169    2
   143   133   135    1
   144     7     5    1
   145   189   191    1
   146   169   171   am
   147     5     6    1
   148    77    78    1
   149    77    76    1
   150   171   177    1
   151   171   172    1
   152   177   176    1
   153    70    71    1
   154   120   119    2
   155   172   173    1
   156   172   175    1
   157    76    75    1
   158    75    74    1
   159   173   174    2
   160   173   178   am
   161    71    74    1
   162    71    72    1
   163   119   118    1
   164   176   175    1
   165   123   121    1
   166   178   179    1
   167   182   179    1
   168   182   183    1
   169   121   118    1
   170   121   122    1
   171    72    73    2
   172   118   117    1
   173   179   180    1
   174   117   111   am
   175   112   111    2
   176   116   114   am
   177   181   180    2
   178   113   114    1
   179   113   110    1
   180   111   110    1
   181   114   115    2
   182   110   109    1
