@<TRIPOS>MOLECULE
tmp/4mobA01.pdb
 143 136 0 0 0
SMALL
GASTEIGER

@<TRIPOS>ATOM
      1  N         -7.4390   27.2280  -60.9440 N.3   147  PHE147     -0.1241
      2  CA        -7.5650   28.6700  -60.8420 C.3   147  PHE147      0.1605
      3  C         -6.1770   29.3190  -60.8700 C.2   147  PHE147      0.2264
      4  O         -5.9100   30.2200  -61.6910 O.2   147  PHE147     -0.2867
      5  CB        -8.3070   29.0200  -59.5540 C.3   147  PHE147      0.0534
      6  CG        -8.2620   30.4770  -59.2020 C.ar  147  PHE147     -0.0203
      7  CD1       -9.1430   31.3790  -59.7950 C.ar  147  PHE147     -0.0042
      8  CD2       -7.3460   30.9510  -58.2690 C.ar  147  PHE147     -0.0042
      9  CE1       -9.1090   32.7310  -59.4560 C.ar  147  PHE147     -0.0003
     10  CE2       -7.2940   32.2950  -57.9370 C.ar  147  PHE147     -0.0003
     11  CZ        -8.1690   33.1880  -58.5330 C.ar  147  PHE147     -0.0000
     12  N        -16.1010   47.9140  -49.5000 N.3   175  SER175     -0.1202
     13  CA       -15.5680   46.9520  -48.5420 C.3   175  SER175      0.2020
     14  C        -16.4300   46.9300  -47.2850 C.2   175  SER175      0.2619
     15  O        -17.0040   47.9430  -46.8860 O.2   175  SER175     -0.2717
     16  CB       -14.1360   47.2670  -48.1680 C.3   175  SER175      0.2103
     17  OG       -14.1210   48.4740  -47.4670 O.3   175  SER175     -0.2182
     18  N        -16.5660   45.7520  -46.6940 N.am  176  VAL176     -0.1965
     19  CA       -17.4130   45.5820  -45.5280 C.3   176  VAL176      0.1727
     20  C        -16.6900   44.6890  -44.5370 C.2   176  VAL176      0.2616
     21  O        -16.0410   43.7030  -44.9220 O.2   176  VAL176     -0.2715
     22  CB       -18.7380   44.8940  -45.8700 C.3   176  VAL176      0.0290
     23  CG1      -19.6360   44.8690  -44.6320 C.3   176  VAL176      0.0023
     24  CG2      -19.4370   45.5950  -47.0160 C.3   176  VAL176      0.0023
     25  N        -16.7860   45.0280  -43.2600 N.am  177  GLN177     -0.1977
     26  CA       -16.2620   44.1320  -42.2410 C.3   177  GLN177      0.1601
     27  C        -17.2970   43.8710  -41.1650 C.2   177  GLN177      0.2287
     28  O        -18.0670   44.7480  -40.7680 O.2   177  GLN177     -0.2864
     29  CB       -14.9270   44.6270  -41.6680 C.3   177  GLN177      0.0394
     30  CG       -14.9320   46.0940  -41.2430 C.3   177  GLN177      0.0908
     31  CD       -13.8210   46.9330  -41.8980 C.2   177  GLN177      0.2608
     32  OE1      -13.6050   46.8730  -43.1180 O.2   177  GLN177     -0.2717
     33  NE2      -13.1250   47.7320  -41.0810 N.am  177  GLN177     -0.0878
     34  N        -14.5380   39.6740  -44.0560 N.3   241  THR241     -0.1203
     35  CA       -14.1700   40.8210  -44.8920 C.3   241  THR241      0.1994
     36  C        -14.6190   40.5710  -46.3380 C.2   241  THR241      0.2618
     37  O        -14.3150   39.5340  -46.9410 O.2   241  THR241     -0.2717
     38  CB       -12.6440   41.1890  -44.8170 C.3   241  THR241      0.1784
     39  OG1      -11.8530   40.0120  -44.9890 O.3   241  THR241     -0.2211
     40  CG2      -12.2860   41.8020  -43.4870 C.3   241  THR241      0.0376
     41  N        -15.3460   41.5290  -46.8840 N.am  242  ALA242     -0.1965
     42  CA       -15.9160   41.3820  -48.2030 C.3   242  ALA242      0.1728
     43  C        -15.6320   42.6480  -48.9980 C.2   242  ALA242      0.2616
     44  O        -15.4960   43.7340  -48.4220 O.2   242  ALA242     -0.2715
     45  CB       -17.4220   41.1120  -48.1130 C.3   242  ALA242      0.0334
     46  N        -15.5170   42.4960  -50.3160 N.am  243  ILE243     -0.1977
     47  CA       -15.4240   43.6370  -51.2120 C.3   243  ILE243      0.1596
     48  C        -15.8540   43.1840  -52.6060 C.2   243  ILE243      0.2287
     49  O        -15.7850   41.9930  -52.9340 O.2   243  ILE243     -0.2864
     50  CB       -13.9850   44.2510  -51.2390 C.3   243  ILE243      0.0276
     51  CG1      -14.0040   45.6450  -51.8750 C.3   243  ILE243      0.0022
     52  CG2      -13.0010   43.3350  -51.9630 C.3   243  ILE243      0.0022
     53  CD1      -12.6860   46.4110  -51.7500 C.3   243  ILE243      0.0001
     54  N        -15.1960   42.5190  -56.3080 N.3   245  ASN245     -0.1240
     55  CA       -13.9680   42.1830  -57.0360 C.3   245  ASN245      0.1653
     56  C        -13.9940   42.6650  -58.4750 C.2   245  ASN245      0.2266
     57  O        -12.9790   43.1480  -58.9910 O.2   245  ASN245     -0.2867
     58  CB       -13.6980   40.6800  -57.0000 C.3   245  ASN245      0.1155
     59  CG       -13.2450   40.2120  -55.6340 C.2   245  ASN245      0.2627
     60  OD1      -12.9240   41.0330  -54.7740 O.2   245  ASN245     -0.2716
     61  ND2      -13.2130   38.8970  -55.4250 N.am  245  ASN245     -0.0877
     62  N        -16.1970   39.0150  -53.1790 N.3   255  GLY255     -0.1210
     63  CA       -15.4320   38.0130  -52.4650 C.3   255  GLY255      0.1956
     64  C        -15.5730   38.2250  -50.9650 C.2   255  GLY255      0.2612
     65  O        -15.7460   39.3660  -50.4780 O.2   255  GLY255     -0.2717
     66  N        -15.5130   37.1350  -50.2150 N.am  256  VAL256     -0.1965
     67  CA       -15.5650   37.2570  -48.7690 C.3   256  VAL256      0.1727
     68  C        -14.5540   36.3190  -48.1290 C.2   256  VAL256      0.2616
     69  O        -14.3970   35.1580  -48.5540 O.2   256  VAL256     -0.2715
     70  CB       -17.0110   37.0490  -48.1970 C.3   256  VAL256      0.0290
     71  CG1      -17.5940   35.7210  -48.6630 C.3   256  VAL256      0.0023
     72  CG2      -17.0160   37.1650  -46.6760 C.3   256  VAL256      0.0023
     73  N        -13.8480   36.8440  -47.1290 N.am  257  ARG257     -0.1977
     74  CA       -12.8570   36.0590  -46.4140 C.3   257  ARG257      0.1597
     75  C        -13.2860   35.8760  -44.9520 C.2   257  ARG257      0.2287
     76  O        -13.8080   36.8170  -44.3350 O.2   257  ARG257     -0.2864
     77  CB       -11.4860   36.7290  -46.5130 C.3   257  ARG257      0.0334
     78  CG       -10.3970   36.0140  -45.7450 C.3   257  ARG257      0.0492
     79  CD        -9.0550   36.7240  -45.8880 C.3   257  ARG257      0.2205
     80  NE        -8.0830   36.1080  -45.0000 N.pl3 257  ARG257     -0.0865
     81  CZ        -7.0690   35.3610  -45.4100 C.cat 257  ARG257      0.5346
     82  NH1       -6.8740   35.1680  -46.7090 N.pl3 257  ARG257      0.1354
     83  NH2       -6.2540   34.8180  -44.5170 N.pl3 257  ARG257      0.1354
     84  N         -7.4500   31.0140  -41.1770 N.3   273  HIS273     -0.1241
     85  CA        -8.2860   31.2760  -42.3450 C.3   273  HIS273      0.1621
     86  C         -9.2310   30.0780  -42.5310 C.2   273  HIS273      0.2264
     87  O         -8.7760   28.9600  -42.8170 O.2   273  HIS273     -0.2867
     88  CB        -7.3800   31.4800  -43.5670 C.3   273  HIS273      0.0745
     89  CG        -8.1050   31.6620  -44.8680 C.ar  273  HIS273      0.0817
     90  ND1       -7.4780   31.5220  -46.0880 N.ar  273  HIS273     -0.2268
     91  CD2       -9.3950   31.9740  -45.1470 C.ar  273  HIS273      0.1154
     92  CE1       -8.3470   31.7380  -47.0600 C.ar  273  HIS273      0.1986
     93  NE2       -9.5190   32.0120  -46.5140 N.ar  273  HIS273     -0.2212
     94  N        -12.6550   31.1920  -47.9870 N.3   276  SER276     -0.1217
     95  CA       -12.9360   32.3700  -48.7670 C.3   276  SER276      0.1889
     96  C        -13.9620   31.9290  -49.7850 C.2   276  SER276      0.2288
     97  O        -13.9860   30.7590  -50.1790 O.2   276  SER276     -0.2866
     98  CB       -11.6650   32.8780  -49.4400 C.3   276  SER276      0.2089
     99  OG       -10.8330   33.5090  -48.4780 O.3   276  SER276     -0.2183
    100  N        -16.6940   33.2670  -53.2270 N.3   278  PHE278     -0.1241
    101  CA       -16.9350   34.2830  -54.2300 C.3   278  PHE278      0.1605
    102  C        -18.3650   34.1690  -54.7140 C.2   278  PHE278      0.2264
    103  O        -18.7830   33.1260  -55.2440 O.2   278  PHE278     -0.2867
    104  CB       -15.8890   34.1500  -55.3500 C.3   278  PHE278      0.0534
    105  CG       -14.4870   34.1510  -54.8190 C.ar  278  PHE278     -0.0203
    106  CD1      -13.8200   35.3530  -54.6000 C.ar  278  PHE278     -0.0042
    107  CD2      -13.8740   32.9590  -54.4350 C.ar  278  PHE278     -0.0042
    108  CE1      -12.5560   35.3690  -54.0580 C.ar  278  PHE278     -0.0003
    109  CE2      -12.6080   32.9640  -53.9020 C.ar  278  PHE278     -0.0003
    110  CZ       -11.9450   34.1800  -53.7050 C.ar  278  PHE278     -0.0000
    111  N         -5.4340   42.0530  -58.4610 N.3   305  ARG305     -0.1231
    112  CA        -5.4340   40.6100  -58.3210 C.3   305  ARG305      0.1694
    113  C         -6.8660   40.0930  -58.3080 C.2   305  ARG305      0.2591
    114  O         -7.1490   39.0360  -58.8820 O.2   305  ARG305     -0.2718
    115  CB        -4.6940   40.1730  -57.0560 C.3   305  ARG305      0.0321
    116  CG        -4.6480   38.6550  -56.8640 C.3   305  ARG305      0.0489
    117  CD        -3.9460   38.2310  -55.5410 C.3   305  ARG305      0.2205
    118  NE        -4.7160   38.6010  -54.3530 N.pl3 305  ARG305     -0.0865
    119  CZ        -4.5270   39.7160  -53.6460 C.cat 305  ARG305      0.5346
    120  NH1       -3.5740   40.5710  -54.0000 N.pl3 305  ARG305      0.1354
    121  NH2       -5.2850   39.9760  -52.5780 N.pl3 305  ARG305      0.1354
    122  N         -7.7630   40.8550  -57.6820 N.am  306  ARG306     -0.1980
    123  CA        -9.1640   40.4500  -57.5520 C.3   306  ARG306      0.1597
    124  C         -9.9520   40.7220  -58.8160 C.2   306  ARG306      0.2287
    125  O        -10.8900   39.9900  -59.1300 O.2   306  ARG306     -0.2864
    126  CB        -9.8270   41.1160  -56.3480 C.3   306  ARG306      0.0334
    127  CG        -8.9940   40.9550  -55.0780 C.3   306  ARG306      0.0492
    128  CD        -9.8180   41.0520  -53.8560 C.3   306  ARG306      0.2205
    129  NE        -9.3750   42.0580  -52.8940 N.pl3 306  ARG306     -0.0865
    130  CZ        -8.7000   41.7970  -51.7730 C.cat 306  ARG306      0.5346
    131  NH1       -8.3440   40.5570  -51.4650 N.pl3 306  ARG306      0.1354
    132  NH2       -8.3780   42.7920  -50.9600 N.pl3 306  ARG306      0.1354
    133  N        -12.2130   33.1180  -62.3900 N.3   313  ARG313     -0.1245
    134  CA       -13.3690   32.4240  -61.8550 C.3   313  ARG313      0.1563
    135  C        -14.5400   32.3840  -62.8320 C.2   313  ARG313      0.2260
    136  O        -15.1840   31.3320  -62.9640 O.2   313  ARG313     -0.2867
    137  CB       -13.8020   33.0350  -60.5190 C.3   313  ARG313      0.0307
    138  CG       -12.9550   32.5700  -59.3420 C.3   313  ARG313      0.0489
    139  CD       -13.4570   33.1670  -58.0120 C.3   313  ARG313      0.2205
    140  NE       -13.2120   34.6040  -57.8880 N.pl3 313  ARG313     -0.0865
    141  CZ       -12.0590   35.1350  -57.4690 C.cat 313  ARG313      0.5346
    142  NH1      -11.0500   34.3350  -57.1370 N.pl3 313  ARG313      0.1354
    143  NH2      -11.9150   36.4680  -57.3860 N.pl3 313  ARG313      0.1354
@<TRIPOS>BOND
     1   136   135    2
     2   135   134    1
     3   133   134    1
     4   134   137    1
     5     4     3    2
     6     1     2    1
     7     3     2    1
     8     2     5    1
     9   137   138    1
    10     7     9   ar
    11     7     6   ar
    12     5     6    1
    13     9    11   ar
    14   138   139    1
    15     6     8   ar
    16   125   124    2
    17    57    56    2
    18   114   113    2
    19   124   123    1
    20    11    10   ar
    21    56    55    1
    22   111   112    1
    23   112   113    1
    24   112   115    1
    25   113   122   am
    26     8    10   ar
    27   139   140    1
    28   140   141    2
    29   122   123    1
    30   123   126    1
    31   141   143    1
    32   141   142    1
    33   115   116    1
    34    55    58    1
    35    55    54    1
    36    58    59    1
    37   116   117    1
    38   126   127    1
    39    59    61   am
    40    59    60    2
    41   117   118    1
    42   104   105    1
    43   104   101    1
    44   103   102    2
    45   127   128    1
    46   105   106   ar
    47   105   107   ar
    48   102   101    1
    49   106   108   ar
    50   107   109   ar
    51   118   119    2
    52   101   100    1
    53   108   110   ar
    54   120   119    1
    55   109   110   ar
    56   128   129    1
    57   119   121    1
    58    62    63    1
    59    49    48    2
    60   129   130    2
    61    48    47    1
    62    63    64    1
    63    52    50    1
    64    51    53    1
    65    51    50    1
    66   130   131    1
    67   130   132    1
    68    50    47    1
    69    47    46    1
    70    64    65    2
    71    64    66   am
    72    46    43   am
    73    66    67    1
    74    97    96    2
    75    96    95    1
    76    12    13    1
    77    98    95    1
    78    98    99    1
    79    43    44    2
    80    43    42    1
    81    67    70    1
    82    67    68    1
    83    95    94    1
    84    71    70    1
    85    69    68    2
    86    13    16    1
    87    13    14    1
    88    42    45    1
    89    42    41    1
    90    70    72    1
    91    16    17    1
    92    68    73   am
    93    14    15    2
    94    14    18   am
    95    73    74    1
    96    92    93   ar
    97    92    90   ar
    98    24    22    1
    99    37    36    2
   100    41    36   am
   101    82    81    1
   102    18    19    1
   103    93    91   ar
   104    77    74    1
   105    77    78    1
   106    74    75    1
   107    36    35    1
   108    90    89   ar
   109    79    78    1
   110    79    80    1
   111    22    19    1
   112    22    23    1
   113    19    20    1
   114    81    80    2
   115    81    83    1
   116    91    89   ar
   117    39    38    1
   118    75    76    2
   119    21    20    2
   120    35    38    1
   121    35    34    1
   122    89    88    1
   123    38    40    1
   124    20    25   am
   125    88    85    1
   126    25    26    1
   127    32    31    2
   128    87    86    2
   129    86    85    1
   130    85    84    1
   131    26    29    1
   132    26    27    1
   133    31    30    1
   134    31    33   am
   135    29    30    1
   136    27    28    2
