@<TRIPOS>MOLECULE
tmp/4mocA00.pdb
 200 190 0 0 0
SMALL
GASTEIGER

@<TRIPOS>ATOM
      1  N         46.4870  -45.6850    3.6030 N.3    47  VAL47      -0.1231
      2  CA        46.2400  -44.5250    4.4520 C.3    47  VAL47       0.1692
      3  C         45.0710  -44.7980    5.3870 C.2    47  VAL47       0.2593
      4  O         44.2350  -45.6590    5.1100 O.2    47  VAL47      -0.2718
      5  CB        45.9490  -43.2540    3.6260 C.3    47  VAL47       0.0266
      6  CG1       47.1700  -42.8490    2.8180 C.3    47  VAL47       0.0020
      7  CG2       44.7540  -43.4750    2.7120 C.3    47  VAL47       0.0020
      8  N         45.0150  -44.0650    6.4930 N.am   48  THR48      -0.1939
      9  CA        43.9480  -44.2440    7.4690 C.3    48  THR48       0.2028
     10  C         42.6290  -43.7030    6.9250 C.2    48  THR48       0.2642
     11  O         42.4460  -42.4910    6.8060 O.2    48  THR48      -0.2714
     12  CB        44.2860  -43.5490    8.7970 C.3    48  THR48       0.1808
     13  OG1       45.6710  -43.7570    9.1020 O.3    48  THR48      -0.2208
     14  CG2       43.4310  -44.1050    9.9260 C.3    48  THR48       0.0379
     15  N         41.7180  -44.6090    6.5850 N.am   49  ALA49      -0.1963
     16  CA        40.4100  -44.2200    6.0760 C.3    49  ALA49       0.1728
     17  C         39.5120  -43.8000    7.2250 C.2    49  ALA49       0.2616
     18  O         38.8800  -42.7430    7.1750 O.2    49  ALA49      -0.2715
     19  CB        39.7810  -45.3560    5.2990 C.3    49  ALA49       0.0334
     20  N         39.4480  -44.6360    8.2580 N.am   50  SER50      -0.1950
     21  CA        38.6450  -44.2950    9.4300 C.3    50  SER50       0.1924
     22  C         39.1360  -45.0060   10.6770 C.2    50  SER50       0.2314
     23  O         40.0140  -45.8670   10.6150 O.2    50  SER50      -0.2863
     24  CB        37.1660  -44.6240    9.2030 C.3    50  SER50       0.2116
     25  OG        36.9040  -46.0000    9.4280 O.3    50  SER50      -0.2180
     26  N         38.2340  -56.0950    1.7400 N.3    76  PHE76      -0.1227
     27  CA        37.0370  -55.9350    0.9300 C.3    76  PHE76       0.1736
     28  C         37.4410  -55.7300   -0.5270 C.2    76  PHE76       0.2596
     29  O         37.8980  -56.6710   -1.1770 O.2    76  PHE76      -0.2718
     30  CB        36.1800  -54.7840    1.4610 C.3    76  PHE76       0.0547
     31  CG        35.7730  -54.9550    2.9000 C.ar   76  PHE76      -0.0202
     32  CD1       34.8780  -55.9520    3.2690 C.ar   76  PHE76      -0.0042
     33  CD2       36.2880  -54.1260    3.8840 C.ar   76  PHE76      -0.0042
     34  CE1       34.5050  -56.1170    4.5940 C.ar   76  PHE76      -0.0003
     35  CE2       35.9200  -54.2840    5.2100 C.ar   76  PHE76      -0.0003
     36  CZ        35.0270  -55.2820    5.5650 C.ar   76  PHE76      -0.0000
     37  N         37.2870  -54.5120   -1.0390 N.am   77  SER77      -0.1938
     38  CA        37.7580  -54.1970   -2.3870 C.3    77  SER77       0.2055
     39  C         39.0830  -53.4370   -2.3420 C.2    77  SER77       0.2644
     40  O         40.1280  -53.9670   -2.7240 O.2    77  SER77      -0.2714
     41  CB        36.7100  -53.3880   -3.1550 C.3    77  SER77       0.2130
     42  OG        37.1010  -53.1990   -4.5040 O.3    77  SER77      -0.2179
     43  N         39.0300  -52.1950   -1.8690 N.am   78  THR78      -0.1936
     44  CA        40.2200  -51.3570   -1.7440 C.3    78  THR78       0.2028
     45  C         40.5450  -51.0880   -0.2790 C.2    78  THR78       0.2642
     46  O         41.6590  -50.6790    0.0580 O.2    78  THR78      -0.2714
     47  CB        40.0270  -50.0040   -2.4450 C.3    78  THR78       0.1808
     48  OG1       39.0390  -49.2390   -1.7440 O.3    78  THR78      -0.2208
     49  CG2       39.5820  -50.2040   -3.8810 C.3    78  THR78       0.0379
     50  N         39.5590  -51.3060    0.5850 N.am   79  SER79      -0.1949
     51  CA        39.7280  -51.0770    2.0120 C.3    79  SER79       0.1924
     52  C         39.9500  -52.3910    2.7380 C.2    79  SER79       0.2314
     53  O         39.7370  -53.4670    2.1780 O.2    79  SER79      -0.2863
     54  CB        38.4930  -50.3910    2.5960 C.3    79  SER79       0.2116
     55  OG        37.3970  -51.2880    2.6670 O.3    79  SER79      -0.2180
     56  N         40.0650  -48.6820    9.9220 N.3   105  THR105     -0.1218
     57  CA        39.9090  -49.0200    8.5100 C.3   105  THR105      0.1862
     58  C         40.9420  -48.3160    7.6430 C.2   105  THR105      0.2287
     59  O         41.0640  -47.0800    7.6770 O.2   105  THR105     -0.2866
     60  CB        38.5100  -48.6740    7.9880 C.3   105  THR105      0.1770
     61  OG1       37.5350  -49.4620    8.6810 O.3   105  THR105     -0.2211
     62  CG2       38.4230  -48.9650    6.5000 C.3   105  THR105      0.0375
     63  N         42.7950  -47.8290    3.6750 N.3   107  VAL107     -0.1245
     64  CA        42.5300  -47.8940    2.2410 C.3   107  VAL107      0.1561
     65  C         43.8270  -47.9710    1.4370 C.2   107  VAL107      0.2260
     66  O         44.7350  -47.1650    1.6270 O.2   107  VAL107     -0.2867
     67  CB        41.6820  -46.6910    1.7740 C.3   107  VAL107      0.0252
     68  CG1       41.8440  -46.4560    0.2850 C.3   107  VAL107      0.0019
     69  CG2       40.2220  -46.9170    2.1130 C.3   107  VAL107      0.0019
     70  N         46.2540  -47.4480   -1.6170 N.3   109  LYS109     -0.1245
     71  CA        46.4080  -46.4330   -2.6520 C.3   109  LYS109      0.1561
     72  C         47.1770  -46.9860   -3.8460 C.2   109  LYS109      0.2260
     73  O         48.2260  -47.6080   -3.6890 O.2   109  LYS109     -0.2867
     74  CB        47.1260  -45.1910   -2.1100 C.3   109  LYS109      0.0271
     75  CG        46.4680  -44.5520   -0.8940 C.3   109  LYS109      0.0035
     76  CD        46.2290  -43.0580   -1.0950 C.3   109  LYS109      0.0206
     77  CE        45.0860  -42.8090   -2.0640 C.3   109  LYS109      0.1093
     78  NZ        43.8080  -43.4090   -1.5830 N.3   109  LYS109     -0.1314
     79  N         31.6480  -53.0300    9.6620 N.3   139  ARG139     -0.1245
     80  CA        31.7560  -52.1490    8.5050 C.3   139  ARG139      0.1563
     81  C         30.4330  -51.4460    8.2240 C.2   139  ARG139      0.2260
     82  O         30.4060  -50.2410    7.9590 O.2   139  ARG139     -0.2867
     83  CB        32.1990  -52.9210    7.2640 C.3   139  ARG139      0.0307
     84  CG        32.3290  -52.0340    6.0410 C.3   139  ARG139      0.0489
     85  CD        32.6410  -52.8180    4.7850 C.3   139  ARG139      0.2205
     86  NE        32.8040  -51.9240    3.6440 N.pl3 139  ARG139     -0.0865
     87  CZ        32.9650  -52.3300    2.3910 C.cat 139  ARG139      0.5346
     88  NH1       32.9820  -53.6230    2.1080 N.pl3 139  ARG139      0.1354
     89  NH2       33.1060  -51.4380    1.4210 N.pl3 139  ARG139      0.1354
     90  N         30.1320  -48.7370   10.6350 N.3   142  ARG142     -0.1231
     91  CA        31.0360  -47.6490   10.2510 C.3   142  ARG142      0.1694
     92  C         30.4380  -46.7620    9.1740 C.2   142  ARG142      0.2591
     93  O         30.5090  -45.5360    9.2520 O.2   142  ARG142     -0.2718
     94  CB        32.3630  -48.2070    9.7360 C.3   142  ARG142      0.0321
     95  CG        33.2520  -48.7700   10.8110 C.3   142  ARG142      0.0489
     96  CD        34.3910  -49.5780   10.2310 C.3   142  ARG142      0.2205
     97  NE        34.8870  -50.5230   11.2220 N.pl3 142  ARG142     -0.0865
     98  CZ        35.1730  -51.7930   10.9680 C.cat 142  ARG142      0.5346
     99  NH1       35.0310  -52.2800    9.7430 N.pl3 142  ARG142      0.1354
    100  NH2       35.6080  -52.5730   11.9440 N.pl3 142  ARG142      0.1354
    101  N         29.8550  -47.3930    8.1630 N.am  143  LEU143     -0.1980
    102  CA        29.2860  -46.6630    7.0420 C.3   143  LEU143      0.1596
    103  C         28.0230  -45.9070    7.4430 C.2   143  LEU143      0.2287
    104  O         27.8250  -44.7630    7.0320 O.2   143  LEU143     -0.2864
    105  CB        29.0240  -47.6120    5.8730 C.3   143  LEU143      0.0297
    106  CG        30.3070  -48.1720    5.2590 C.3   143  LEU143      0.0022
    107  CD1       30.0160  -49.2420    4.2220 C.3   143  LEU143      0.0001
    108  CD2       31.1280  -47.0470    4.6480 C.3   143  LEU143      0.0001
    109  N         28.3440  -42.5120    9.3030 N.3   146  GLU146     -0.1245
    110  CA        28.2950  -41.3660    8.4090 C.3   146  GLU146      0.1567
    111  C         26.8460  -41.0890    8.0160 C.2   146  GLU146      0.2260
    112  O         26.5220  -41.0090    6.8300 O.2   146  GLU146     -0.2867
    113  CB        29.1300  -41.6090    7.1480 C.3   146  GLU146      0.0388
    114  CG        30.6350  -41.6710    7.3630 C.3   146  GLU146      0.1160
    115  CD        31.3970  -41.7950    6.0540 C.2   146  GLU146      0.3649
    116  OE1       31.3220  -40.8610    5.2270 O.co2 146  GLU146     -0.2457
    117  OE2       32.0700  -42.8270    5.8490 O.co2 146  GLU146     -0.2457
    118  N         51.7850  -38.5080    1.5070 N.3   169  ASN169     -0.1225
    119  CA        50.5010  -38.5720    2.2000 C.3   169  ASN169      0.1785
    120  C         50.6220  -38.5640    3.7230 C.2   169  ASN169      0.2597
    121  O         51.2180  -39.4660    4.3120 O.2   169  ASN169     -0.2718
    122  CB        49.7050  -39.7950    1.7350 C.3   169  ASN169      0.1169
    123  CG        49.0220  -39.5730    0.3980 C.2   169  ASN169      0.2627
    124  OD1       49.5200  -39.9910   -0.6480 O.2   169  ASN169     -0.2716
    125  ND2       47.8740  -38.9060    0.4280 N.am  169  ASN169     -0.0877
    126  N         50.0450  -37.5380    4.3440 N.am  170  THR170     -0.1953
    127  CA        50.0750  -37.3550    5.7960 C.3   170  THR170      0.1897
    128  C         49.5050  -38.5570    6.5420 C.2   170  THR170      0.2313
    129  O         48.4720  -39.1030    6.1540 O.2   170  THR170     -0.2863
    130  CB        49.2740  -36.1010    6.2040 C.3   170  THR170      0.1794
    131  OG1       49.7110  -34.9750    5.4330 O.3   170  THR170     -0.2208
    132  CG2       49.4560  -35.7990    7.6830 C.3   170  THR170      0.0378
    133  N         47.4840  -40.5210    9.3340 N.3   172  GLY172     -0.1225
    134  CA        46.3210  -40.2620   10.1640 C.3   172  GLY172      0.1811
    135  C         46.7040  -40.2140   11.6310 C.2   172  GLY172      0.2280
    136  O         46.1020  -39.4810   12.4210 O.2   172  GLY172     -0.2866
    137  N         48.0200  -36.7580   12.7270 N.3   175  ILE175     -0.1245
    138  CA        46.8450  -35.9130   12.8850 C.3   175  ILE175      0.1561
    139  C         46.1490  -36.2120   14.2090 C.2   175  ILE175      0.2260
    140  O         45.7260  -35.2950   14.9170 O.2   175  ILE175     -0.2867
    141  CB        45.8670  -36.1020   11.7050 C.3   175  ILE175      0.0252
    142  CG1       46.5500  -35.7090   10.3920 C.3   175  ILE175      0.0019
    143  CG2       44.6090  -35.2750   11.9030 C.3   175  ILE175      0.0019
    144  CD1       45.7050  -35.9370    9.1540 C.3   175  ILE175      0.0001
    145  N         35.7560  -40.3990   10.6610 N.3   204  LYS204     -0.1231
    146  CA        36.3360  -40.6890    9.3590 C.3   204  LYS204      0.1693
    147  C         37.3490  -39.6210    8.9680 C.2   204  LYS204      0.2592
    148  O         37.1940  -38.4470    9.3170 O.2   204  LYS204     -0.2718
    149  CB        35.2390  -40.7740    8.2940 C.3   204  LYS204      0.0285
    150  CG        35.7470  -41.1670    6.9130 C.3   204  LYS204      0.0035
    151  CD        34.7140  -40.9000    5.8310 C.3   204  LYS204      0.0206
    152  CE        35.2550  -41.2890    4.4640 C.3   204  LYS204      0.1093
    153  NZ        34.2400  -41.1400    3.3870 N.3   204  LYS204     -0.1314
    154  N         38.3990  -40.0370    8.2650 N.am  205  PHE205     -0.1962
    155  CA        39.2760  -39.0960    7.5870 C.3   205  PHE205      0.1771
    156  C         38.6640  -38.7970    6.2220 C.2   205  PHE205      0.2619
    157  O         38.6830  -39.6380    5.3210 O.2   205  PHE205     -0.2715
    158  CB        40.6900  -39.6640    7.4520 C.3   205  PHE205      0.0574
    159  CG        41.4770  -39.6460    8.7360 C.ar  205  PHE205     -0.0200
    160  CD1       42.1360  -38.4930    9.1430 C.ar  205  PHE205     -0.0042
    161  CD2       41.5630  -40.7800    9.5320 C.ar  205  PHE205     -0.0042
    162  CE1       42.8640  -38.4690   10.3210 C.ar  205  PHE205     -0.0003
    163  CE2       42.2910  -40.7660   10.7120 C.ar  205  PHE205     -0.0003
    164  CZ        42.9420  -39.6090   11.1070 C.ar  205  PHE205     -0.0000
    165  N         38.1140  -37.5960    6.0850 N.am  206  ARG206     -0.1963
    166  CA        37.2690  -37.2580    4.9430 C.3   206  ARG206      0.1729
    167  C         38.0440  -36.9680    3.6580 C.2   206  ARG206      0.2617
    168  O         37.5230  -37.1610    2.5560 O.2   206  ARG206     -0.2715
    169  CB        36.3700  -36.0710    5.2940 C.3   206  ARG206      0.0348
    170  CG        35.5740  -36.2610    6.5760 C.3   206  ARG206      0.0492
    171  CD        34.6630  -35.0750    6.8350 C.3   206  ARG206      0.2205
    172  NE        33.8850  -34.7370    5.6470 N.pl3 206  ARG206     -0.0865
    173  CZ        32.9890  -33.7570    5.5880 C.cat 206  ARG206      0.5346
    174  NH1       32.7440  -33.0110    6.6560 N.pl3 206  ARG206      0.1354
    175  NH2       32.3340  -33.5250    4.4590 N.pl3 206  ARG206      0.1354
    176  N         39.2810  -36.5040    3.8010 N.am  207  GLY207     -0.1941
    177  CA        40.0970  -36.1500    2.6540 C.3   207  GLY207      0.1998
    178  C         41.5790  -36.2740    2.9420 C.2   207  GLY207      0.2481
    179  O         41.9890  -36.3240    4.1030 O.2   207  GLY207     -0.2729
    180  N         42.3970  -36.3300    1.8830 N.am  208  PRO208     -0.2715
    181  CA        43.8430  -36.4980    2.0510 C.3   208  PRO208      0.1536
    182  C         44.5340  -35.2080    2.4720 C.2   208  PRO208      0.2599
    183  O         43.9840  -34.1190    2.2990 O.2   208  PRO208     -0.2715
    184  CB        44.3050  -36.8970    0.6480 C.3   208  PRO208      0.0310
    185  CG        43.3220  -36.2390   -0.2630 C.3   208  PRO208      0.0237
    186  CD        42.0020  -36.2940    0.4630 C.3   208  PRO208      0.0939
    187  N         45.7290  -35.3440    3.0350 N.am  209  SER209     -0.1950
    188  CA        46.5840  -34.2010    3.3300 C.3   209  SER209      0.1924
    189  C         47.9580  -34.4750    2.7300 C.2   209  SER209      0.2314
    190  O         48.3050  -35.6280    2.4680 O.2   209  SER209     -0.2863
    191  CB        46.6860  -33.9760    4.8390 C.3   209  SER209      0.2116
    192  OG        47.4770  -32.8390    5.1340 O.3   209  SER209     -0.2180
    193  N         39.3800  -31.8560    6.9220 N.3   251  ILE251     -0.1245
    194  CA        39.9880  -33.1760    6.9940 C.3   251  ILE251      0.1561
    195  C         39.1760  -34.0600    7.9200 C.2   251  ILE251      0.2260
    196  O         38.7040  -35.1270    7.5120 O.2   251  ILE251     -0.2867
    197  CB        41.4390  -33.1300    7.4940 C.3   251  ILE251      0.0252
    198  CG1       42.3160  -32.3750    6.5020 C.3   251  ILE251      0.0019
    199  CG2       41.9740  -34.5390    7.6920 C.3   251  ILE251      0.0019
    200  CD1       42.2180  -32.8930    5.0830 C.3   251  ILE251      0.0001
@<TRIPOS>BOND
     1    42    41    1
     2    49    47    1
     3    72    73    2
     4    72    71    1
     5    41    38    1
     6    40    39    2
     7    71    74    1
     8    71    70    1
     9    47    48    1
    10    47    44    1
    11    38    39    1
    12    38    37    1
    13    39    43   am
    14    74    75    1
    15    77    78    1
    16    77    76    1
    17    43    44    1
    18    44    45    1
    19    29    28    2
    20    76    75    1
    21    37    28   am
    22   124   123    2
    23    28    27    1
    24    45    46    2
    25    45    50   am
    26   185   186    1
    27   185   184    1
    28    68    67    1
    29   123   125   am
    30   123   122    1
    31   186   180    1
    32    50    51    1
    33   184   181    1
    34    27    30    1
    35    27    26    1
    36    89    87    1
    37    65    66    2
    38    65    64    1
    39    30    31    1
    40   118   119    1
    41   122   119    1
    42    67    69    1
    43    67    64    1
    44   180   181    1
    45   180   178   am
    46    51    54    1
    47    51    52    1
    48   181   182    1
    49    88    87    1
    50    53    52    2
    51   119   120    1
    52    64    63    1
    53   183   182    2
    54    87    86    2
    55   190   189    2
    56   182   187   am
    57   168   167    2
    58    54    55    1
    59   177   178    1
    60   177   176    1
    61     7     5    1
    62   189   188    1
    63     6     5    1
    64    31    32   ar
    65    31    33   ar
    66   178   179    2
    67   187   188    1
    68    32    34   ar
    69   188   191    1
    70   153   152    1
    71     1     2    1
    72     5     2    1
    73    86    85    1
    74   167   176   am
    75   167   166    1
    76   120   121    2
    77   120   126   am
    78    33    35   ar
    79   107   106    1
    80   126   127    1
    81     2     3    1
    82   175   173    1
    83   152   151    1
    84    34    36   ar
    85   108   106    1
    86    85    84    1
    87   191   192    1
    88   166   169    1
    89   166   165    1
    90   200   198    1
    91     4     3    2
    92    35    36   ar
    93   116   115   ar
    94   106   105    1
    95   169   170    1
    96    19    16    1
    97   157   156    2
    98     3     8   am
    99   131   130    1
   100   173   172    2
   101   173   174    1
   102   172   171    1
   103   127   130    1
   104   127   128    1
   105   151   150    1
   106   117   115   ar
   107   105   102    1
   108    84    83    1
   109   115   114    1
   110    16    15    1
   111    16    17    1
   112   165   156   am
   113   129   128    2
   114   130   132    1
   115   156   155    1
   116     8     9    1
   117    62    60    1
   118   198   197    1
   119   170   171    1
   120    15    10   am
   121    11    10    2
   122   112   111    2
   123   150   149    1
   124   193   194    1
   125    10     9    1
   126   194   197    1
   127   194   195    1
   128   104   103    2
   129   102   103    1
   130   102   101    1
   131   113   114    1
   132   113   110    1
   133    18    17    2
   134    17    20   am
   135    83    80    1
   136   158   155    1
   137   158   159    1
   138     9    12    1
   139   197   199    1
   140   196   195    2
   141   155   154    1
   142    58    59    2
   143    58    57    1
   144    82    81    2
   145    60    57    1
   146    60    61    1
   147   111   110    1
   148   101    92   am
   149    81    80    1
   150    20    21    1
   151   154   147   am
   152   149   146    1
   153   110   109    1
   154    80    79    1
   155    57    56    1
   156   159   160   ar
   157   159   161   ar
   158    12    13    1
   159    12    14    1
   160   147   148    2
   161   147   146    1
   162   160   162   ar
   163   144   142    1
   164    92    93    2
   165    92    91    1
   166    24    25    1
   167    24    21    1
   168   133   134    1
   169   146   145    1
   170    21    22    1
   171   161   163   ar
   172    94    91    1
   173    94    95    1
   174    99    98    1
   175   134   135    1
   176    96    95    1
   177    96    97    1
   178    91    90    1
   179   162   164   ar
   180   142   141    1
   181    23    22    2
   182   163   164   ar
   183    98    97    2
   184    98   100    1
   185   135   136    2
   186   141   143    1
   187   141   138    1
   188   137   138    1
   189   138   139    1
   190   139   140    2
