@<TRIPOS>MOLECULE
tmp/4moiB01.pdb
 136 131 0 0 0
SMALL
GASTEIGER

@<TRIPOS>ATOM
      1  N         57.9030   41.7930   33.3060 N.3   126  TRP126     -0.1227
      2  CA        58.7630   40.8190   33.9820 C.3   126  TRP126      0.1737
      3  C         60.2140   41.2770   34.2080 C.2   126  TRP126      0.2596
      4  O         60.7690   42.2210   33.5460 O.2   126  TRP126     -0.2718
      5  CB        58.6800   39.4580   33.2820 C.3   126  TRP126      0.0564
      6  CG        59.4340   39.3770   31.9480 C.ar  126  TRP126      0.0003
      7  CD1       59.5100   40.3620   30.9720 C.ar  126  TRP126      0.0946
      8  CD2       60.2630   38.2920   31.4530 C.ar  126  TRP126      0.0152
      9  NE1       60.3000   39.9450   29.9170 N.ar  126  TRP126     -0.2442
     10  CE2       60.7910   38.7140   30.1770 C.ar  126  TRP126      0.0810
     11  CE3       60.6150   37.0330   31.9300 C.ar  126  TRP126      0.0012
     12  CZ2       61.6730   37.9260   29.4450 C.ar  126  TRP126      0.0191
     13  CZ3       61.4990   36.2560   31.1780 C.ar  126  TRP126      0.0001
     14  CH2       61.9910   36.6790   29.9650 C.ar  126  TRP126      0.0015
     15  N         60.8470   40.5870   35.1470 N.am  127  THR127     -0.1953
     16  CA        62.2470   40.8260   35.5100 C.3   127  THR127      0.1897
     17  C         63.2700   40.2910   34.5530 C.2   127  THR127      0.2313
     18  O         64.4540   40.5860   34.7070 O.2   127  THR127     -0.2863
     19  CB        62.4550   40.2430   36.9240 C.3   127  THR127      0.1794
     20  OG1       61.7530   41.1210   37.7810 O.3   127  THR127     -0.2208
     21  CG2       63.9000   40.2610   37.3060 C.3   127  THR127      0.0378
     22  N         64.5870   37.3670   34.0790 N.3   129  ALA129     -0.1245
     23  CA        65.4810   36.3520   34.6250 C.3   129  ALA129      0.1562
     24  C         65.1740   35.0630   33.8880 C.2   129  ALA129      0.2260
     25  O         64.0420   34.5470   33.9580 O.2   129  ALA129     -0.2867
     26  CB        65.2240   36.1730   36.1060 C.3   129  ALA129      0.0290
     27  N         57.9500   31.7110   48.0920 N.3   319  LEU319     -0.1245
     28  CA        58.8500   32.8630   47.8520 C.3   319  LEU319      0.1561
     29  C         59.1290   33.4950   49.2190 C.2   319  LEU319      0.2260
     30  O         58.1780   33.7510   50.0090 O.2   319  LEU319     -0.2867
     31  CB        58.2280   33.8880   46.9210 C.3   319  LEU319      0.0270
     32  CG        58.9190   35.2540   46.7830 C.3   319  LEU319      0.0019
     33  CD1       60.3620   34.9500   46.3350 C.3   319  LEU319      0.0001
     34  CD2       58.1540   36.2420   45.8270 C.3   319  LEU319      0.0001
     35  N         67.5940   35.1870   43.9030 N.3   406  GLN406     -0.1245
     36  CA        67.9120   36.3870   43.1420 C.3   406  GLN406      0.1566
     37  C         68.1870   37.5050   44.1090 C.2   406  GLN406      0.2260
     38  O         67.4500   37.6730   45.0840 O.2   406  GLN406     -0.2867
     39  CB        66.7860   36.7740   42.1860 C.3   406  GLN406      0.0367
     40  CG        66.4150   35.6810   41.2180 C.3   406  GLN406      0.0905
     41  CD        65.4880   36.1170   40.1110 C.2   406  GLN406      0.2608
     42  OE1       65.1880   35.3040   39.2430 O.2   406  GLN406     -0.2717
     43  NE2       64.9320   37.3780   40.1860 N.am  406  GLN406     -0.0878
     44  N         64.8460   44.1020   42.5000 N.3   410  ASP410     -0.1239
     45  CA        63.7480   43.7750   41.6270 C.3   410  ASP410      0.1674
     46  C         62.8290   44.9970   41.5680 C.2   410  ASP410      0.2266
     47  O         62.6380   45.6640   42.5820 O.2   410  ASP410     -0.2867
     48  CB        63.0080   42.6250   42.2020 C.3   410  ASP410      0.1410
     49  CG        62.1480   41.9420   41.1770 C.2   410  ASP410      0.3668
     50  OD1       61.1100   42.4960   40.8480 O.co2 410  ASP410     -0.2456
     51  OD2       62.5390   40.8770   40.6450 O.co2 410  ASP410     -0.2456
     52  N         59.6990   44.8710   41.2560 N.3   412  PHE412     -0.1241
     53  CA        58.4600   44.5450   42.0420 C.3   412  PHE412      0.1605
     54  C         58.6760   44.6630   43.5420 C.2   412  PHE412      0.2264
     55  O         58.7900   43.6570   44.2620 O.2   412  PHE412     -0.2867
     56  CB        57.9440   43.1180   41.7340 C.3   412  PHE412      0.0534
     57  CG        56.4810   42.8710   42.1220 C.ar  412  PHE412     -0.0203
     58  CD1       55.7140   43.8040   42.7910 C.ar  412  PHE412     -0.0042
     59  CD2       55.8880   41.6540   41.8250 C.ar  412  PHE412     -0.0042
     60  CE1       54.3870   43.5050   43.1070 C.ar  412  PHE412     -0.0003
     61  CE2       54.5700   41.3630   42.1270 C.ar  412  PHE412     -0.0003
     62  CZ        53.8280   42.2730   42.8010 C.ar  412  PHE412     -0.0000
     63  N         57.6310   45.3820   47.4550 N.3   414  TYR414     -0.1241
     64  CA        56.4620   44.8160   48.1610 C.3   414  TYR414      0.1605
     65  C         55.8690   45.7010   49.2550 C.2   414  TYR414      0.2264
     66  O         54.7060   45.4870   49.6610 O.2   414  TYR414     -0.2867
     67  CB        56.8000   43.4730   48.7530 C.3   414  TYR414      0.0534
     68  CG        57.2450   42.4790   47.7590 C.ar  414  TYR414     -0.0201
     69  CD1       58.3660   41.7350   48.0030 C.ar  414  TYR414     -0.0009
     70  CD2       56.5330   42.2630   46.5650 C.ar  414  TYR414     -0.0009
     71  CE1       58.7960   40.7730   47.1200 C.ar  414  TYR414      0.0417
     72  CE2       56.9450   41.3040   45.6670 C.ar  414  TYR414      0.0417
     73  CZ        58.0700   40.5360   45.9520 C.ar  414  TYR414      0.1957
     74  OH        58.5290   39.5720   45.0820 O.3   414  TYR414     -0.2866
     75  N         65.4560   37.3700   47.1020 N.3   430  ARG430     -0.1245
     76  CA        64.2360   36.6160   46.8430 C.3   430  ARG430      0.1563
     77  C         64.6920   35.1980   46.5880 C.2   430  ARG430      0.2260
     78  O         65.5090   34.9990   45.6610 O.2   430  ARG430     -0.2867
     79  CB        63.4530   37.2030   45.6480 C.3   430  ARG430      0.0307
     80  CG        62.7800   38.5210   45.8900 C.3   430  ARG430      0.0489
     81  CD        62.1350   39.0460   44.6070 C.3   430  ARG430      0.2205
     82  NE        61.3310   40.2180   44.8690 N.pl3 430  ARG430     -0.0865
     83  CZ        61.8110   41.4190   45.1270 C.cat 430  ARG430      0.5346
     84  NH1       63.1410   41.6260   45.2400 N.pl3 430  ARG430      0.1354
     85  NH2       60.9550   42.3950   45.4210 N.pl3 430  ARG430      0.1354
     86  N         63.2870   31.2240   45.9440 N.3   432  PHE432     -0.1241
     87  CA        62.1050   30.5810   45.4230 C.3   432  PHE432      0.1605
     88  C         62.1880   29.0700   45.6200 C.2   432  PHE432      0.2264
     89  O         63.1020   28.4550   45.1200 O.2   432  PHE432     -0.2867
     90  CB        61.9570   30.8470   43.9260 C.3   432  PHE432      0.0534
     91  CG        61.8870   32.2830   43.5190 C.ar  432  PHE432     -0.0203
     92  CD1       63.0370   33.0640   43.5270 C.ar  432  PHE432     -0.0042
     93  CD2       60.6840   32.8500   43.1500 C.ar  432  PHE432     -0.0042
     94  CE1       62.9940   34.3640   43.1680 C.ar  432  PHE432     -0.0003
     95  CE2       60.6180   34.1700   42.7370 C.ar  432  PHE432     -0.0003
     96  CZ        61.7940   34.9190   42.7370 C.ar  432  PHE432     -0.0000
     97  N         52.1290   35.0420   44.8010 N.3   503  LEU503     -0.1231
     98  CA        52.5650   36.3890   44.4270 C.3   503  LEU503      0.1693
     99  C         53.6950   36.3330   43.3910 C.2   503  LEU503      0.2592
    100  O         53.8320   37.2210   42.5360 O.2   503  LEU503     -0.2718
    101  CB        53.0330   37.1770   45.6200 C.3   503  LEU503      0.0284
    102  CG        53.1440   38.6990   45.3630 C.3   503  LEU503      0.0019
    103  CD1       51.7450   39.2670   45.3020 C.3   503  LEU503      0.0001
    104  CD2       53.9460   39.2500   46.5250 C.3   503  LEU503      0.0001
    105  N         54.4720   35.2800   43.4860 N.am  504  CYS504     -0.1956
    106  CA        55.6090   35.0390   42.5880 C.3   504  CYS504      0.1843
    107  C         55.2570   34.6670   41.1700 C.2   504  CYS504      0.2625
    108  O         56.1300   34.6680   40.3240 O.2   504  CYS504     -0.2714
    109  CB        56.5380   33.9910   43.1980 C.3   504  CYS504      0.0997
    110  SG        55.8160   32.3900   43.5000 S.3   504  CYS504     -0.0797
    111  N         54.0030   34.3380   40.8980 N.am  505  LEU505     -0.1963
    112  CA        53.4890   34.1340   39.4890 C.3   505  LEU505      0.1728
    113  C         54.3570   33.1380   38.7150 C.2   505  LEU505      0.2616
    114  O         54.8430   33.4320   37.6360 O.2   505  LEU505     -0.2715
    115  CB        53.4240   35.5240   38.7960 C.3   505  LEU505      0.0311
    116  CG        52.5930   36.5850   39.4460 C.3   505  LEU505      0.0022
    117  CD1       52.6120   37.9340   38.7110 C.3   505  LEU505      0.0001
    118  CD2       51.1280   36.1290   39.5880 C.3   505  LEU505      0.0001
    119  N         54.5560   31.9480   39.2790 N.am  506  HIS506     -0.1973
    120  CA        55.3770   30.8650   38.6970 C.3   506  HIS506      0.1656
    121  C         54.5650   29.5920   38.7400 C.2   506  HIS506      0.2291
    122  O         55.0870   28.4640   38.8350 O.2   506  HIS506     -0.2864
    123  CB        56.6950   30.6680   39.4750 C.3   506  HIS506      0.0771
    124  CG        57.7540   31.6710   39.1490 C.ar  506  HIS506      0.0820
    125  ND1       59.0010   31.6160   39.6880 N.ar  506  HIS506     -0.2267
    126  CD2       57.7500   32.7830   38.2850 C.ar  506  HIS506      0.1154
    127  CE1       59.7380   32.6290   39.2150 C.ar  506  HIS506      0.1986
    128  NE2       58.9630   33.4010   38.4180 N.ar  506  HIS506     -0.2212
    129  N         63.1190   30.3530   37.5730 N.3   551  ASN551     -0.1240
    130  CA        62.0560   31.0500   36.8510 C.3   551  ASN551      0.1653
    131  C         61.7130   30.2060   35.6230 C.2   551  ASN551      0.2266
    132  O         62.5890   29.7670   34.8920 O.2   551  ASN551     -0.2867
    133  CB        62.4660   32.4460   36.3980 C.3   551  ASN551      0.1155
    134  CG        63.3990   33.1530   37.3930 C.2   551  ASN551      0.2627
    135  OD1       64.5020   32.7200   37.5470 O.2   551  ASN551     -0.2716
    136  ND2       62.9350   34.2530   38.0370 N.am  551  ASN551     -0.0877
@<TRIPOS>BOND
     1    12    14   ar
     2    12    10   ar
     3     9    10   ar
     4     9     7   ar
     5    14    13   ar
     6    10     8   ar
     7     7     6   ar
     8    13    11   ar
     9     8    11   ar
    10     8     6   ar
    11     6     5    1
    12     5     2    1
    13     1     2    1
    14     4     3    2
    15    24    25    2
    16    24    23    1
    17     2     3    1
    18    22    23    1
    19     3    15   am
    20    17    18    2
    21    17    16    1
    22    23    26    1
    23   132   131    2
    24    15    16    1
    25    16    19    1
    26   131   130    1
    27   133   130    1
    28   133   134    1
    29   130   129    1
    30    19    21    1
    31    19    20    1
    32   134   135    2
    33   134   136   am
    34   114   113    2
    35   126   128   ar
    36   126   124   ar
    37   128   127   ar
    38   120   121    1
    39   120   119    1
    40   120   123    1
    41   117   116    1
    42   113   119   am
    43   113   112    1
    44   121   122    2
    45   115   116    1
    46   115   112    1
    47   124   123    1
    48   124   125   ar
    49   127   125   ar
    50    42    41    2
    51   116   118    1
    52   112   111    1
    53    41    43   am
    54    41    40    1
    55   108   107    2
    56    51    49   ar
    57    50    49   ar
    58   111   107   am
    59   107   106    1
    60    49    48    1
    61    40    39    1
    62    52    53    1
    63    46    45    1
    64    46    47    2
    65    45    48    1
    66    45    44    1
    67    56    53    1
    68    56    57    1
    69    59    57   ar
    70    59    61   ar
    71    53    54    1
    72    57    58   ar
    73    61    62   ar
    74    39    36    1
    75   100    99    2
    76   106   109    1
    77   106   105    1
    78    96    95   ar
    79    96    94   ar
    80    95    93   ar
    81    58    60   ar
    82    62    60   ar
    83    36    35    1
    84    36    37    1
    85    93    91   ar
    86    94    92   ar
    87   109   110    1
    88    99   105   am
    89    99    98    1
    90    91    92   ar
    91    91    90    1
    92    54    55    2
    93    90    87    1
    94    37    38    2
    95    98    97    1
    96    98   101    1
    97    81    82    1
    98    81    80    1
    99    82    83    2
   100    74    73    1
   101    89    88    2
   102    83    84    1
   103    83    85    1
   104   103   102    1
   105   102   101    1
   106   102   104    1
   107    87    88    1
   108    87    86    1
   109    79    80    1
   110    79    76    1
   111    78    77    2
   112    72    73   ar
   113    72    70   ar
   114    34    32    1
   115    73    71   ar
   116    33    32    1
   117    70    68   ar
   118    77    76    1
   119    32    31    1
   120    76    75    1
   121    31    28    1
   122    71    69   ar
   123    63    64    1
   124    68    69   ar
   125    68    67    1
   126    28    27    1
   127    28    29    1
   128    64    67    1
   129    64    65    1
   130    29    30    2
   131    65    66    2
