@<TRIPOS>MOLECULE
tmp/4motA00.pdb
 123 114 0 0 0
SMALL
GASTEIGER

@<TRIPOS>ATOM
      1  N         22.2490   28.6840   -2.4010 N.3    32  ILE32      -0.1245
      2  CA        21.8060   29.7920   -1.5870 C.3    32  ILE32       0.1561
      3  C         20.5580   30.4580   -2.1360 C.2    32  ILE32       0.2260
      4  O         19.5700   30.7180   -1.4090 O.2    32  ILE32      -0.2867
      5  CB        22.9180   30.7860   -1.3590 C.3    32  ILE32       0.0252
      6  CG1       24.1300   30.1050   -0.6600 C.3    32  ILE32       0.0019
      7  CG2       22.3970   31.9240   -0.4960 C.3    32  ILE32       0.0019
      8  CD1       23.7910   29.2360    0.6150 C.3    32  ILE32       0.0001
      9  N         17.4260   28.3360   -1.5280 N.3    35  ASN35      -0.1225
     10  CA        16.9000   28.4340   -0.1470 C.3    35  ASN35       0.1785
     11  C         16.0210   29.6830    0.0010 C.2    35  ASN35       0.2597
     12  O         15.0120   29.6420    0.6850 O.2    35  ASN35      -0.2718
     13  CB        17.9990   28.4110    0.9210 C.3    35  ASN35       0.1169
     14  CG        18.7630   27.0640    0.9600 C.2    35  ASN35       0.2627
     15  OD1       18.2410   26.0200    0.5030 O.2    35  ASN35      -0.2716
     16  ND2       20.0150   27.0990    1.4330 N.am   35  ASN35      -0.0877
     17  N         16.4030   30.7890   -0.6460 N.am   36  ALA36      -0.1979
     18  CA        15.5940   32.0120   -0.6130 C.3    36  ALA36       0.1597
     19  C         14.3210   31.8080   -1.4320 C.2    36  ALA36       0.2287
     20  O         13.2250   32.2290   -1.0520 O.2    36  ALA36      -0.2864
     21  CB        16.3960   33.2000   -1.1830 C.3    36  ALA36       0.0319
     22  N         11.7620   29.6960    0.4780 N.3    39  GLU39      -0.1245
     23  CA        11.1030   30.5150    1.4650 C.3    39  GLU39       0.1567
     24  C          9.9760   31.3690    0.8290 C.2    39  GLU39       0.2260
     25  O          8.8530   31.4240    1.3570 O.2    39  GLU39      -0.2867
     26  CB        12.1940   31.3420    2.1740 C.3    39  GLU39       0.0388
     27  CG        11.7230   32.2230    3.3130 C.3    39  GLU39       0.1160
     28  CD        11.1070   31.4890    4.5060 C.2    39  GLU39       0.3649
     29  OE1       11.0160   30.2110    4.5470 O.co2  39  GLU39      -0.2457
     30  OE2       10.6990   32.2300    5.4380 O.co2  39  GLU39      -0.2457
     31  N         23.2740   37.0620   -1.1760 N.3    60  VAL60      -0.1231
     32  CA        21.8630   36.8220   -1.5020 C.3    60  VAL60       0.1692
     33  C         21.0670   37.3570   -0.3120 C.2    60  VAL60       0.2592
     34  O         21.3780   37.0350    0.8440 O.2    60  VAL60      -0.2718
     35  CB        21.5440   35.3080   -1.7250 C.3    60  VAL60       0.0266
     36  CG1       20.0320   35.0890   -2.0660 C.3    60  VAL60       0.0020
     37  CG2       22.4610   34.7110   -2.7820 C.3    60  VAL60       0.0020
     38  N         20.0190   38.1050   -0.5900 N.am   61  GLN61      -0.1966
     39  CA        19.1520   38.6410    0.4670 C.3    61  GLN61       0.1733
     40  C         17.6900   38.3280    0.2240 C.2    61  GLN61       0.2616
     41  O         17.1500   38.5920   -0.8560 O.2    61  GLN61      -0.2715
     42  CB        19.3690   40.1380    0.6290 C.3    61  GLN61       0.0408
     43  CG        18.5270   40.7040    1.8080 C.3    61  GLN61       0.0908
     44  CD        19.0830   42.0250    2.3740 C.2    61  GLN61       0.2608
     45  OE1       19.8570   42.7500    1.7070 O.2    61  GLN61      -0.2717
     46  NE2       18.7070   42.3330    3.6220 N.am   61  GLN61      -0.0878
     47  N         17.0330   37.7780    1.2360 N.am   62  ASP62      -0.1971
     48  CA        15.5980   37.5370    1.1260 C.3    62  ASP62       0.1709
     49  C         14.8900   38.3160    2.2360 C.2    62  ASP62       0.2293
     50  O         15.5210   38.8830    3.1290 O.2    62  ASP62      -0.2864
     51  CB        15.2840   36.0300    1.0500 C.3    62  ASP62       0.1436
     52  CG        15.2720   35.3220    2.3830 C.2    62  ASP62       0.3671
     53  OD1       14.7640   35.8480    3.4200 O.co2  62  ASP62      -0.2456
     54  OD2       15.7130   34.1200    2.3590 O.co2  62  ASP62      -0.2456
     55  N         10.9870   34.8470    6.5210 N.3    65  ARG65      -0.1231
     56  CA        10.7340   34.8820    7.9740 C.3    65  ARG65       0.1694
     57  C         12.0350   35.1230    8.8160 C.2    65  ARG65       0.2593
     58  O         11.9720   35.5360    9.9660 O.2    65  ARG65      -0.2718
     59  CB        10.0330   33.6110    8.4390 C.3    65  ARG65       0.0321
     60  CG         8.6370   33.4180    7.7950 C.3    65  ARG65       0.0489
     61  CD         8.1640   32.0450    8.0660 C.3    65  ARG65       0.2205
     62  NE         8.8300   31.0770    7.1920 N.pl3  65  ARG65      -0.0865
     63  CZ         8.4390   29.8220    7.0440 C.cat  65  ARG65       0.5346
     64  NH1        7.4230   29.3550    7.7800 N.pl3  65  ARG65       0.1354
     65  NH2        9.0770   29.0330    6.1820 N.pl3  65  ARG65       0.1354
     66  N         13.1890   34.8650    8.2120 N.am   66  GLY66      -0.1942
     67  CA        14.4680   34.8510    8.9120 C.3    66  GLY66       0.2014
     68  C         14.7340   33.4430    9.3700 C.2    66  GLY66       0.2639
     69  O         13.8390   32.7700    9.9240 O.2    66  GLY66      -0.2714
     70  N         15.9330   32.9480    9.0900 N.am   67  MET67      -0.1963
     71  CA        16.3760   31.6850    9.6930 C.3    67  MET67       0.1722
     72  C         16.1300   31.7190   11.1910 C.2    67  MET67       0.2458
     73  O         16.2030   32.7690   11.8140 O.2    67  MET67      -0.2730
     74  CB        17.8490   31.4560    9.4130 C.3    67  MET67       0.0427
     75  CG        18.1710   31.3260    7.9750 C.3    67  MET67       0.0599
     76  SD        19.7850   30.5280    7.8730 S.3    67  MET67      -0.1393
     77  CE        19.2420   28.8930    7.9600 C.3    67  MET67       0.0692
     78  N         15.7990   30.5580   11.7850 N.am   68  PRO68      -0.2727
     79  CA        15.6270   30.5760   13.2330 C.3    68  PRO68       0.1402
     80  C         16.8550   31.1070   13.9790 C.2    68  PRO68       0.2269
     81  O         18.0110   30.8150   13.5990 O.2    68  PRO68      -0.2865
     82  CB        15.4400   29.0850   13.5950 C.3    68  PRO68       0.0296
     83  CG        16.1900   28.3400   12.4670 C.3    68  PRO68       0.0237
     84  CD        15.8350   29.1870   11.2180 C.3    68  PRO68       0.0939
     85  N         22.8780   24.4460   11.0330 N.3    82  ILE82      -0.1245
     86  CA        22.5270   24.4880    9.5920 C.3    82  ILE82       0.1561
     87  C         23.7750   24.6410    8.7130 C.2    82  ILE82       0.2260
     88  O         23.9280   23.9700    7.6490 O.2    82  ILE82      -0.2867
     89  CB        21.5040   25.6580    9.2870 C.3    82  ILE82       0.0252
     90  CG1       20.1100   25.3630    9.9060 C.3    82  ILE82       0.0019
     91  CG2       21.3160   25.8880    7.7480 C.3    82  ILE82       0.0019
     92  CD1       19.1510   26.5640   10.0110 C.3    82  ILE82       0.0001
     93  N         23.4270   24.8510    2.5370 N.3    91  SER91      -0.1217
     94  CA        24.0590   25.8990    3.3160 C.3    91  SER91       0.1889
     95  C         25.4250   25.4580    3.8120 C.2    91  SER91       0.2288
     96  O         26.4040   26.1970    3.7010 O.2    91  SER91      -0.2866
     97  CB        23.1660   26.2630    4.5070 C.3    91  SER91       0.2089
     98  OG        21.9400   26.8110    3.9990 O.3    91  SER91      -0.2183
     99  N         14.6980   39.6410   12.4750 N.3   107  ARG107     -0.1245
    100  CA        13.3570   39.3020   12.9490 C.3   107  ARG107      0.1563
    101  C         13.1360   39.7400   14.3800 C.2   107  ARG107      0.2260
    102  O         14.1120   39.8720   15.1600 O.2   107  ARG107     -0.2867
    103  CB        13.0280   37.8100   12.8070 C.3   107  ARG107      0.0307
    104  CG        14.1220   36.8340   13.2400 C.3   107  ARG107      0.0489
    105  CD        13.7790   35.4240   12.8820 C.3   107  ARG107      0.2205
    106  NE        12.6410   34.9610   13.6350 N.pl3 107  ARG107     -0.0865
    107  CZ        12.0300   33.7920   13.4360 C.cat 107  ARG107      0.5346
    108  NH1       12.4430   32.9280   12.5080 N.pl3 107  ARG107      0.1354
    109  NH2       10.9960   33.4770   14.2130 N.pl3 107  ARG107      0.1354
    110  N         16.6240   37.0410    5.6880 N.3   139  THR139     -0.1218
    111  CA        17.9410   36.3790    5.7670 C.3   139  THR139      0.1862
    112  C         18.8420   37.0050    4.7100 C.2   139  THR139      0.2287
    113  O         18.3920   37.3000    3.5920 O.2   139  THR139     -0.2866
    114  CB        17.7930   34.8370    5.5740 C.3   139  THR139      0.1770
    115  OG1       16.9050   34.2990    6.5960 O.3   139  THR139     -0.2211
    116  CG2       19.1370   34.0920    5.5870 C.3   139  THR139      0.0375
    117  N         22.8700   36.1760    3.1810 N.3   141  VAL141     -0.1245
    118  CA        24.0210   35.2740    3.1960 C.3   141  VAL141      0.1561
    119  C         25.0140   35.8350    2.2190 C.2   141  VAL141      0.2260
    120  O         24.6870   36.1100    1.0300 O.2   141  VAL141     -0.2867
    121  CB        23.6490   33.7960    2.8260 C.3   141  VAL141      0.0252
    122  CG1       24.8870   32.8790    2.7560 C.3   141  VAL141      0.0019
    123  CG2       22.6550   33.2110    3.8720 C.3   141  VAL141      0.0019
@<TRIPOS>BOND
     1    37    35    1
     2     1     2    1
     3     3     2    1
     4     3     4    2
     5    36    35    1
     6    35    32    1
     7     2     5    1
     8     9    10    1
     9    32    31    1
    10    32    33    1
    11    19    20    2
    12    19    18    1
    13     5     6    1
    14     5     7    1
    15    21    18    1
    16    41    40    2
    17     6     8    1
    18    17    18    1
    19    17    11   am
    20    38    33   am
    21    38    39    1
    22    33    34    2
    23    10    11    1
    24    10    13    1
    25    11    12    2
    26    40    39    1
    27    40    47   am
    28    39    42    1
    29    22    23    1
    30    15    14    2
    31    42    43    1
    32    24    25    2
    33    24    23    1
    34    13    14    1
    35    14    16   am
    36   120   119    2
    37    51    48    1
    38    51    52    1
    39    48    47    1
    40    48    49    1
    41    23    26    1
    42    45    44    2
    43    43    44    1
    44    26    27    1
    45   119   118    1
    46    49    50    2
    47    54    52   ar
    48    44    46   am
    49    52    53   ar
    50    93    94    1
    51   122   121    1
    52   121   118    1
    53   121   123    1
    54   117   118    1
    55    27    28    1
    56    94    95    1
    57    94    97    1
    58   113   112    2
    59    96    95    2
    60    98    97    1
    61    28    29   ar
    62    28    30   ar
    63   112   111    1
    64   114   116    1
    65   114   111    1
    66   114   115    1
    67   110   111    1
    68    65    63    1
    69    55    56    1
    70    63    62    2
    71    63    64    1
    72    62    61    1
    73    88    87    2
    74    91    89    1
    75    60    61    1
    76    60    59    1
    77    76    77    1
    78    76    75    1
    79    56    59    1
    80    56    57    1
    81    75    74    1
    82    66    57   am
    83    66    67    1
    84    87    86    1
    85    57    58    2
    86    67    68    1
    87    70    68   am
    88    70    71    1
    89    89    86    1
    90    89    90    1
    91    68    69    2
    92    74    71    1
    93    86    85    1
    94    71    72    1
    95    90    92    1
    96    72    78   am
    97    72    73    2
    98    84    78    1
    99    84    83    1
   100    78    79    1
   101    83    82    1
   102    99   100    1
   103   108   107    1
   104   103   100    1
   105   103   104    1
   106   105   104    1
   107   105   106    1
   108   100   101    1
   109    79    82    1
   110    79    80    1
   111   107   106    2
   112   107   109    1
   113    81    80    2
   114   101   102    2
