@<TRIPOS>MOLECULE
tmp/4mp6A01.pdb
 139 126 0 0 0
SMALL
GASTEIGER

@<TRIPOS>ATOM
      1  N        -16.4480   -9.7850   -2.2840 N.3    43  LYS43      -0.1245
      2  CA       -15.6490   -8.9440   -1.3870 C.3    43  LYS43       0.1561
      3  C        -15.8460   -9.3470    0.0950 C.2    43  LYS43       0.2260
      4  O        -16.9500   -9.2380    0.6170 O.2    43  LYS43      -0.2867
      5  CB       -15.9780   -7.4640   -1.6410 C.3    43  LYS43       0.0271
      6  CG       -17.4710   -7.1170   -1.6620 C.3    43  LYS43       0.0035
      7  CD       -17.6970   -5.6530   -2.0080 C.3    43  LYS43       0.0206
      8  CE       -19.1330   -5.1990   -1.7300 C.3    43  LYS43       0.1093
      9  NZ       -19.4280   -3.8120   -2.2260 N.3    43  LYS43      -0.1314
     10  N        -15.7290   -9.1630    4.1950 N.3    45  TYR45      -0.1241
     11  CA       -15.7800   -8.1610    5.2540 C.3    45  TYR45       0.1605
     12  C        -14.9720   -8.7020    6.4160 C.2    45  TYR45       0.2264
     13  O        -15.1500   -9.8410    6.8370 O.2    45  TYR45      -0.2867
     14  CB       -17.2370   -7.9210    5.7080 C.3    45  TYR45       0.0534
     15  CG       -18.0940   -7.1070    4.7440 C.ar   45  TYR45      -0.0201
     16  CD1      -18.0750   -7.3810    3.3750 C.ar   45  TYR45      -0.0009
     17  CD2      -18.9420   -6.0850    5.2030 C.ar   45  TYR45      -0.0009
     18  CE1      -18.8420   -6.6540    2.4810 C.ar   45  TYR45       0.0417
     19  CE2      -19.7310   -5.3500    4.3160 C.ar   45  TYR45       0.0417
     20  CZ       -19.6700   -5.6430    2.9490 C.ar   45  TYR45       0.1957
     21  OH       -20.4090   -4.9530    2.0120 O.3    45  TYR45      -0.2866
     22  N        -16.1220   -2.1740    9.8860 N.3    58  ARG58      -0.1245
     23  CA       -15.5530   -3.2520    9.1220 C.3    58  ARG58       0.1563
     24  C        -14.4200   -2.7160    8.2370 C.2    58  ARG58       0.2260
     25  O        -14.2740   -1.5060    8.0500 O.2    58  ARG58      -0.2867
     26  CB       -16.6290   -3.9110    8.2610 C.3    58  ARG58       0.0307
     27  CG       -16.9910   -3.1570    6.9920 C.3    58  ARG58       0.0489
     28  CD       -17.9550   -2.0070    7.2260 C.3    58  ARG58       0.2205
     29  NE       -18.0150   -1.1250    6.0550 N.pl3  58  ARG58      -0.0865
     30  CZ       -19.1350   -0.6410    5.5200 C.cat  58  ARG58       0.5346
     31  NH1      -20.3060   -0.9330    6.0500 N.pl3  58  ARG58       0.1354
     32  NH2      -19.0820    0.1520    4.4540 N.pl3  58  ARG58       0.1354
     33  N        -13.1750   -3.8630    4.2580 N.3    60  ILE60      -0.1245
     34  CA       -13.5400   -4.7130    3.1050 C.3    60  ILE60       0.1561
     35  C        -12.3920   -4.8010    2.1190 C.2    60  ILE60       0.2260
     36  O        -11.8140   -3.7810    1.7350 O.2    60  ILE60      -0.2867
     37  CB       -14.8060   -4.1820    2.3580 C.3    60  ILE60       0.0252
     38  CG1      -15.8550   -3.6970    3.3530 C.3    60  ILE60       0.0019
     39  CG2      -15.3920   -5.2520    1.4280 C.3    60  ILE60       0.0019
     40  CD1      -17.1670   -3.2120    2.7450 C.3    60  ILE60       0.0001
     41  N        -11.4760   -5.6490   -1.6980 N.3    62  MET62      -0.1245
     42  CA       -12.2190   -5.5670   -2.9630 C.3    62  MET62       0.1570
     43  C        -11.2870   -5.7690   -4.1710 C.2    62  MET62       0.2261
     44  O        -10.8770   -4.8110   -4.8270 O.2    62  MET62      -0.2867
     45  CB       -13.0000   -4.2430   -3.0780 C.3    62  MET62       0.0387
     46  CG       -14.0390   -4.0100   -1.9750 C.3    62  MET62       0.0595
     47  SD       -15.0840   -2.5060   -2.0470 S.3    62  MET62      -0.1393
     48  CE       -16.0840   -2.8080   -3.5000 C.3    62  MET62       0.0692
     49  N         -9.1280   -2.6500   -3.6720 N.3    76  LYS76      -0.1245
     50  CA        -9.4250   -1.5700   -2.7160 C.3    76  LYS76       0.1561
     51  C         -9.6090   -2.2200   -1.3520 C.2    76  LYS76       0.2260
     52  O        -10.4080   -3.1500   -1.1930 O.2    76  LYS76      -0.2867
     53  CB       -10.6940   -0.7740   -3.0880 C.3    76  LYS76       0.0271
     54  CG       -11.0020    0.3510   -2.0910 C.3    76  LYS76       0.0035
     55  CD       -12.1030    1.3140   -2.5310 C.3    76  LYS76       0.0206
     56  CE       -13.4830    0.6850   -2.3580 C.3    76  LYS76       0.1093
     57  NZ       -14.6180    1.5980   -2.6780 N.3    76  LYS76      -0.1314
     58  N        -10.6300   -0.9890    2.1040 N.3    78  ILE78      -0.1245
     59  CA       -11.3130    0.1930    2.6170 C.3    78  ILE78       0.1561
     60  C        -11.9420   -0.0960    3.9770 C.2    78  ILE78       0.2260
     61  O        -12.7870   -0.9940    4.1020 O.2    78  ILE78      -0.2867
     62  CB       -12.3780    0.7200    1.6120 C.3    78  ILE78       0.0252
     63  CG1      -13.1120    1.9640    2.1520 C.3    78  ILE78       0.0019
     64  CG2      -13.3630   -0.3790    1.1850 C.3    78  ILE78       0.0019
     65  CD1      -13.3170    3.0240    1.0830 C.3    78  ILE78       0.0001
     66  N        -13.7870    1.2520    7.8190 N.3    80  SER80      -0.1217
     67  CA       -14.8630    2.0970    8.2940 C.3    80  SER80       0.1889
     68  C        -15.0060    1.9320    9.8020 C.2    80  SER80       0.2288
     69  O        -14.9520    0.8180   10.3020 O.2    80  SER80      -0.2866
     70  CB       -16.1410    1.6620    7.5990 C.3    80  SER80       0.2089
     71  OG       -17.2010    2.4940    7.9200 O.3    80  SER80      -0.2183
     72  N        -15.1180    8.8350    8.4270 N.3    92  ARG92      -0.1231
     73  CA       -15.5730    7.4690    8.7390 C.3    92  ARG92       0.1694
     74  C        -14.7240    6.4040    8.0140 C.2    92  ARG92       0.2591
     75  O        -14.2210    5.4670    8.6350 O.2    92  ARG92      -0.2718
     76  CB       -17.0730    7.2880    8.3860 C.3    92  ARG92       0.0321
     77  CG       -17.5270    5.8290    8.2510 C.3    92  ARG92       0.0489
     78  CD       -18.8480    5.6680    7.4850 C.3    92  ARG92       0.2205
     79  NE       -18.7980    5.9940    6.0360 N.pl3  92  ARG92      -0.0865
     80  CZ       -18.4570    5.1590    5.0440 C.cat  92  ARG92       0.5346
     81  NH1      -18.0790    3.9060    5.3150 N.pl3  92  ARG92       0.1354
     82  NH2      -18.4770    5.5750    3.7510 N.pl3  92  ARG92       0.1354
     83  N        -14.5790    6.5720    6.6980 N.am   93  ALA93      -0.1980
     84  CA       -13.8940    5.6140    5.8590 C.3    93  ALA93       0.1597
     85  C        -12.4960    6.1010    5.5200 C.2    93  ALA93       0.2287
     86  O        -12.2120    7.3210    5.5130 O.2    93  ALA93      -0.2864
     87  CB       -14.6880    5.3530    4.5820 C.3    93  ALA93       0.0319
     88  N        -13.0360    6.4830   -3.9280 N.3   117  SER117     -0.1217
     89  CA       -14.2100    5.6840   -3.6380 C.3   117  SER117      0.1889
     90  C        -15.5010    6.5440   -3.6580 C.2   117  SER117      0.2288
     91  O        -16.5180    6.1630   -4.2780 O.2   117  SER117     -0.2866
     92  CB       -14.0240    5.0060   -2.2650 C.3   117  SER117      0.2089
     93  OG       -15.0600    4.0730   -2.0110 O.3   117  SER117     -0.2183
     94  N        -15.9510    7.7400   -7.4110 N.3   120  ARG120     -0.1231
     95  CA       -16.5300    6.7090   -8.2910 C.3   120  ARG120      0.1694
     96  C        -18.0010    6.4040   -7.9140 C.2   120  ARG120      0.2592
     97  O        -18.8340    6.1610   -8.7860 O.2   120  ARG120     -0.2718
     98  CB       -15.6470    5.4370   -8.4110 C.3   120  ARG120      0.0321
     99  CG       -15.5090    4.5600   -7.1770 C.3   120  ARG120      0.0489
    100  CD       -16.7790    3.7860   -6.8550 C.3   120  ARG120      0.2205
    101  NE       -16.4640    2.5440   -6.1600 N.pl3 120  ARG120     -0.0865
    102  CZ       -17.2820    1.8700   -5.3550 C.cat 120  ARG120      0.5346
    103  NH1      -18.4760    2.3520   -5.0710 N.pl3 120  ARG120      0.1354
    104  NH2      -16.8840    0.7050   -4.8180 N.pl3 120  ARG120      0.1354
    105  N        -18.3170    6.4680   -6.6260 N.am  121  THR121     -0.1953
    106  CA       -19.6910    6.2120   -6.1750 C.3   121  THR121      0.1897
    107  C        -20.6550    7.2980   -6.6770 C.2   121  THR121      0.2313
    108  O        -21.7800    7.0000   -7.0850 O.2   121  THR121     -0.2863
    109  CB       -19.7840    6.0460   -4.6350 C.3   121  THR121      0.1794
    110  OG1      -18.8870    4.9990   -4.2230 O.3   121  THR121     -0.2208
    111  CG2      -21.1680    5.6540   -4.2400 C.3   121  THR121      0.0378
    112  N        -19.9340   11.1440    1.4880 N.3   148  ILE148     -0.1245
    113  CA       -20.5640   10.5520    0.3290 C.3   148  ILE148      0.1561
    114  C        -21.5820   11.5360   -0.2660 C.2   148  ILE148      0.2260
    115  O        -21.5440   11.8120   -1.4750 O.2   148  ILE148     -0.2867
    116  CB       -21.1640    9.1690    0.6630 C.3   148  ILE148      0.0252
    117  CG1      -20.0300    8.1650    0.9790 C.3   148  ILE148      0.0019
    118  CG2      -22.0590    8.6590   -0.4640 C.3   148  ILE148      0.0019
    119  CD1      -19.1330    7.7960   -0.2050 C.3   148  ILE148      0.0001
    120  N        -27.6350    4.7170   -3.0370 N.3   233  ILE233     -0.1245
    121  CA       -26.2540    4.5490   -2.7090 C.3   233  ILE233      0.1561
    122  C        -26.0310    3.9640   -1.2950 C.2   233  ILE233      0.2260
    123  O        -25.1320    3.1650   -1.1160 O.2   233  ILE233     -0.2867
    124  CB       -25.4830    5.8720   -2.9150 C.3   233  ILE233      0.0252
    125  CG1      -25.5080    6.2960   -4.4070 C.3   233  ILE233      0.0019
    126  CG2      -24.0560    5.7650   -2.4200 C.3   233  ILE233      0.0019
    127  CD1      -24.7500    5.3940   -5.3600 C.3   233  ILE233      0.0001
    128  N        -24.5580   -2.0820   -5.1420 N.3   305  MET305     -0.1230
    129  CA       -23.7940   -2.5720   -3.9940 C.3   305  MET305      0.1702
    130  C        -22.3670   -2.0220   -3.9030 C.2   305  MET305      0.2592
    131  O        -21.7760   -2.0130   -2.8180 O.2   305  MET305     -0.2718
    132  CB       -23.7310   -4.0980   -4.0150 C.3   305  MET305      0.0401
    133  CG       -24.9080   -4.7830   -3.3360 C.3   305  MET305      0.0596
    134  SD       -24.9330   -4.5560   -1.5390 S.3   305  MET305     -0.1393
    135  CE       -23.4100   -5.3750   -1.0400 C.3   305  MET305      0.0692
    136  N        -21.8220   -1.5760   -5.0390 N.am  306  GLY306     -0.1957
    137  CA       -20.4130   -1.1600   -5.1380 C.3   306  GLY306      0.1869
    138  C        -19.5790   -2.2880   -5.7390 C.2   306  GLY306      0.2309
    139  O        -19.7210   -3.4480   -5.3150 O.2   306  GLY306     -0.2863
@<TRIPOS>BOND
     1    97    96    2
     2    98    95    1
     3    98    99    1
     4    95    96    1
     5    95    94    1
     6    96   105   am
     7    99   100    1
     8   108   107    2
     9   100   101    1
    10   107   106    1
    11   105   106    1
    12   106   109    1
    13   101   102    2
    14   138   139    2
    15   138   137    1
    16   127   125    1
    17   102   103    1
    18   102   104    1
    19   128   129    1
    20   137   136    1
    21   136   130   am
    22    44    43    2
    23   109   111    1
    24   109   110    1
    25   125   124    1
    26    91    90    2
    27    43    42    1
    28   132   129    1
    29   132   133    1
    30   129   130    1
    31    88    89    1
    32   130   131    2
    33    49    50    1
    34    90    89    1
    35    89    92    1
    36    48    47    1
    37   133   134    1
    38    53    50    1
    39    53    54    1
    40    45    42    1
    41    45    46    1
    42   120   121    1
    43    42    41    1
    44   124   121    1
    45   124   126    1
    46    50    51    1
    47   121   122    1
    48    57    56    1
    49    55    56    1
    50    55    54    1
    51     1     2    1
    52    92    93    1
    53     9     8    1
    54    47    46    1
    55     7     8    1
    56     7     6    1
    57     6     5    1
    58     5     2    1
    59   134   135    1
    60   115   114    2
    61     2     3    1
    62    51    52    2
    63   122   123    2
    64   118   116    1
    65   114   113    1
    66   119   117    1
    67     3     4    2
    68   113   116    1
    69   113   112    1
    70   116   117    1
    71    65    63    1
    72    64    62    1
    73    39    37    1
    74    62    63    1
    75    62    59    1
    76    36    35    2
    77    21    20    1
    78    58    59    1
    79    35    34    1
    80    37    34    1
    81    37    38    1
    82    18    20   ar
    83    18    16   ar
    84    59    60    1
    85    40    38    1
    86    20    19   ar
    87    34    33    1
    88    16    15   ar
    89    82    80    1
    90    60    61    2
    91    10    11    1
    92    19    17   ar
    93    32    30    1
    94    87    84    1
    95    15    17   ar
    96    15    14    1
    97    80    81    1
    98    80    79    2
    99    11    14    1
   100    11    12    1
   101    86    85    2
   102    85    84    1
   103    30    31    1
   104    30    29    2
   105    84    83    1
   106    79    78    1
   107    29    28    1
   108    12    13    2
   109    83    74   am
   110    27    28    1
   111    27    26    1
   112    78    77    1
   113    70    71    1
   114    70    67    1
   115    66    67    1
   116    74    75    2
   117    74    73    1
   118    25    24    2
   119    24    23    1
   120    77    76    1
   121    26    23    1
   122    67    68    1
   123    76    73    1
   124    72    73    1
   125    23    22    1
   126    68    69    2
