@<TRIPOS>MOLECULE
tmp/4mp7A00.pdb
 119 106 0 0 0
SMALL
GASTEIGER

@<TRIPOS>ATOM
      1  N         10.3310   11.3680  -36.4170 N.3   237  LEU237     -0.1245
      2  CA         9.8670   10.1720  -37.1190 C.3   237  LEU237      0.1561
      3  C         10.5590    9.9930  -38.4770 C.2   237  LEU237      0.2260
      4  O         10.9360    8.8770  -38.8480 O.2   237  LEU237     -0.2867
      5  CB         8.3430   10.1970  -37.2920 C.3   237  LEU237      0.0270
      6  CG         7.5740   10.0760  -35.9640 C.3   237  LEU237      0.0019
      7  CD1        6.0780   10.1370  -36.2130 C.3   237  LEU237      0.0001
      8  CD2        7.9440    8.7790  -35.2290 C.3   237  LEU237      0.0001
      9  N         14.1610    8.6270  -38.0610 N.3   240  ASN240     -0.1225
     10  CA        14.1720    7.1880  -37.8140 C.3   240  ASN240      0.1785
     11  C         13.8280    6.4000  -39.0760 C.2   240  ASN240      0.2597
     12  O         14.4870    5.4170  -39.4030 O.2   240  ASN240     -0.2718
     13  CB        13.1860    6.8230  -36.6970 C.3   240  ASN240      0.1169
     14  CG        13.5650    7.4490  -35.3490 C.2   240  ASN240      0.2627
     15  OD1       14.7310    7.5610  -35.0250 O.2   240  ASN240     -0.2716
     16  ND2       12.5750    7.8320  -34.5710 N.am  240  ASN240     -0.0877
     17  N         12.7750    6.8130  -39.7720 N.am  241  ALA241     -0.1979
     18  CA        12.3620    6.1000  -40.9870 C.3   241  ALA241      0.1597
     19  C         13.4360    6.1500  -42.0640 C.2   241  ALA241      0.2287
     20  O         13.6740    5.1660  -42.7780 O.2   241  ALA241     -0.2864
     21  CB        11.0510    6.6710  -41.5310 C.3   241  ALA241      0.0319
     22  N         16.7960    6.6380  -41.6560 N.3   243  ARG243     -0.1231
     23  CA        17.9370    5.8510  -41.2240 C.3   243  ARG243      0.1694
     24  C         17.6550    4.3670  -41.4220 C.2   243  ARG243      0.2591
     25  O         18.4910    3.6390  -41.9460 O.2   243  ARG243     -0.2718
     26  CB        18.2780    6.1520  -39.7650 C.3   243  ARG243      0.0321
     27  CG        19.5760    5.5060  -39.3070 C.3   243  ARG243      0.0489
     28  CD        20.1150    6.1670  -38.0440 C.3   243  ARG243      0.2205
     29  NE        21.3950    5.5870  -37.6520 N.pl3 243  ARG243     -0.0865
     30  CZ        21.5540    4.7230  -36.6540 C.cat 243  ARG243      0.5346
     31  NH1       20.5100    4.3380  -35.9300 N.pl3 243  ARG243      0.1354
     32  NH2       22.7620    4.2480  -36.3750 N.pl3 243  ARG243      0.1354
     33  N         16.4750    3.9150  -41.0080 N.am  244  ALA244     -0.1980
     34  CA        16.1290    2.5080  -41.2120 C.3   244  ALA244      0.1597
     35  C         16.1720    2.1350  -42.6870 C.2   244  ALA244      0.2287
     36  O         16.7060    1.0980  -43.0630 O.2   244  ALA244     -0.2864
     37  CB        14.7460    2.2010  -40.6250 C.3   244  ALA244      0.0319
     38  N         19.8700    2.1260  -44.0490 N.3   247  GLU247     -0.1231
     39  CA        20.7150    1.1100  -43.4330 C.3   247  GLU247      0.1699
     40  C         20.3010   -0.3220  -43.7900 C.2   247  GLU247      0.2592
     41  O         21.1400   -1.2220  -43.8630 O.2   247  GLU247     -0.2718
     42  CB        20.7890    1.3260  -41.9320 C.3   247  GLU247      0.0402
     43  CG        21.4260    2.6630  -41.5840 C.3   247  GLU247      0.1161
     44  CD        22.0340    2.6760  -40.2090 C.2   247  GLU247      0.3649
     45  OE1       21.8630    1.6780  -39.4800 O.co2 247  GLU247     -0.2457
     46  OE2       22.6860    3.6830  -39.8570 O.co2 247  GLU247     -0.2457
     47  N         19.0100   -0.5220  -44.0240 N.am  248  SER248     -0.1952
     48  CA        18.5130   -1.8240  -44.4590 C.3   248  SER248      0.1924
     49  C         18.6510   -2.0330  -45.9620 C.2   248  SER248      0.2314
     50  O         18.2570   -3.0750  -46.4920 O.2   248  SER248     -0.2863
     51  CB        17.0440   -1.9910  -44.0590 C.3   248  SER248      0.2116
     52  OG        16.2310   -1.0020  -44.6710 O.3   248  SER248     -0.2180
     53  N          7.3670    3.0400  -43.5140 N.3   275  ASP275     -0.1239
     54  CA         8.6350    2.8180  -44.2040 C.3   275  ASP275      0.1674
     55  C          8.8580    1.3340  -44.4460 C.2   275  ASP275      0.2266
     56  O          8.1530    0.4800  -43.8700 O.2   275  ASP275     -0.2867
     57  CB         9.8070    3.4650  -43.4250 C.3   275  ASP275      0.1410
     58  CG        10.1120    2.7620  -42.1010 C.2   275  ASP275      0.3668
     59  OD1       10.3900    1.5380  -42.1150 O.co2 275  ASP275     -0.2456
     60  OD2       10.0920    3.4500  -41.0480 O.co2 275  ASP275     -0.2456
     61  N         11.9560   -0.0670  -43.9460 N.3   277  GLY277     -0.1225
     62  CA        13.3130   -0.0690  -43.4180 C.3   277  GLY277      0.1811
     63  C         13.7140   -1.3110  -42.6340 C.2   277  GLY277      0.2280
     64  O         14.7070   -1.3010  -41.9030 O.2   277  GLY277     -0.2866
     65  N         12.3400   -2.9040  -40.1760 N.3   279  GLY279     -0.1210
     66  CA        11.6650   -3.0300  -38.8920 C.3   279  GLY279      0.1956
     67  C         12.5300   -3.3870  -37.6900 C.2   279  GLY279      0.2611
     68  O         13.7640   -3.4450  -37.7590 O.2   279  GLY279     -0.2717
     69  N         11.8460   -3.6500  -36.5760 N.am  280  VAL280     -0.1979
     70  CA        12.4340   -3.9240  -35.2620 C.3   280  VAL280      0.1595
     71  C         11.5780   -5.0140  -34.6050 C.2   280  VAL280      0.2287
     72  O         10.3490   -4.9530  -34.6820 O.2   280  VAL280     -0.2864
     73  CB        12.3780   -2.6640  -34.3690 C.3   280  VAL280      0.0276
     74  CG1       12.7690   -2.9830  -32.9200 C.3   280  VAL280      0.0022
     75  CG2       13.2500   -1.5410  -34.9410 C.3   280  VAL280      0.0022
     76  N         10.6200   -2.7870  -29.0540 N.3   285  ILE285     -0.1245
     77  CA         9.8030   -1.5880  -29.2560 C.3   285  ILE285      0.1561
     78  C          9.7570   -0.7030  -28.0120 C.2   285  ILE285      0.2260
     79  O          9.9580    0.5060  -28.0950 O.2   285  ILE285     -0.2867
     80  CB         8.3770   -1.9510  -29.7070 C.3   285  ILE285      0.0252
     81  CG1        8.4340   -2.4670  -31.1400 C.3   285  ILE285      0.0019
     82  CG2        7.4750   -0.7360  -29.6390 C.3   285  ILE285      0.0019
     83  CD1        8.8750   -1.3980  -32.1210 C.3   285  ILE285      0.0001
     84  N         12.4160    1.8350  -27.2860 N.3   288  LEU288     -0.1245
     85  CA        12.4970    3.0580  -28.0660 C.3   288  LEU288      0.1561
     86  C         11.9220    4.2390  -27.2990 C.2   288  LEU288      0.2260
     87  O         12.2580    5.3900  -27.5850 O.2   288  LEU288     -0.2867
     88  CB        11.7800    2.9140  -29.4120 C.3   288  LEU288      0.0270
     89  CG        12.4880    1.9170  -30.3330 C.3   288  LEU288      0.0019
     90  CD1       11.7190    1.7640  -31.6370 C.3   288  LEU288      0.0001
     91  CD2       13.9200    2.3520  -30.5940 C.3   288  LEU288      0.0001
     92  N         12.1590   10.1210  -29.4300 N.3   299  LEU299     -0.1245
     93  CA        10.8460    9.4820  -29.5060 C.3   299  LEU299      0.1561
     94  C         10.0100    9.6900  -28.2570 C.2   299  LEU299      0.2260
     95  O          8.8530   10.0560  -28.3580 O.2   299  LEU299     -0.2867
     96  CB        10.9400    7.9930  -29.8330 C.3   299  LEU299      0.0270
     97  CG        11.1110    7.6970  -31.3180 C.3   299  LEU299      0.0019
     98  CD1       11.5720    6.2620  -31.5350 C.3   299  LEU299      0.0001
     99  CD2        9.7950    7.9750  -32.0420 C.3   299  LEU299      0.0001
    100  N          3.9820    3.2780  -32.3330 N.3   315  LEU315     -0.1245
    101  CA         4.8350    2.6120  -33.3310 C.3   315  LEU315      0.1561
    102  C          4.3960    1.1740  -33.4320 C.2   315  LEU315      0.2260
    103  O          4.1310    0.5140  -32.4000 O.2   315  LEU315     -0.2867
    104  CB         6.3140    2.5850  -32.8930 C.3   315  LEU315      0.0270
    105  CG         7.0520    3.9080  -32.7540 C.3   315  LEU315      0.0019
    106  CD1        8.4720    3.6860  -32.1960 C.3   315  LEU315      0.0001
    107  CD2        7.1180    4.5890  -34.0990 C.3   315  LEU315      0.0001
    108  N          8.4000   -0.2960  -40.6920 N.3   323  THR323     -0.1218
    109  CA         7.7370    0.2230  -39.5040 C.3   323  THR323      0.1862
    110  C          6.7060    1.2740  -39.8480 C.2   323  THR323      0.2287
    111  O          6.9360    2.1020  -40.7410 O.2   323  THR323     -0.2866
    112  CB         8.7840    0.8190  -38.5450 C.3   323  THR323      0.1770
    113  OG1        9.6430   -0.2320  -38.1040 O.3   323  THR323     -0.2211
    114  CG2        8.1190    1.4690  -37.3270 C.3   323  THR323      0.0375
    115  N          4.5990    4.4150  -38.0360 N.3   325  ALA325     -0.1245
    116  CA         4.4590    5.2790  -36.8630 C.3   325  ALA325      0.1562
    117  C          3.2080    6.1150  -37.0730 C.2   325  ALA325      0.2260
    118  O          2.9670    6.6080  -38.1910 O.2   325  ALA325     -0.2867
    119  CB         5.6810    6.1830  -36.7150 C.3   325  ALA325      0.0290
@<TRIPOS>BOND
     1    50    49    2
     2    49    48    1
     3    52    51    1
     4    48    51    1
     5    48    47    1
     6    55    54    1
     7    55    56    2
     8    54    53    1
     9    54    57    1
    10    38    39    1
    11    47    40   am
    12    61    62    1
    13    41    40    2
    14    40    39    1
    15    39    42    1
    16    57    58    1
    17    62    63    1
    18    36    35    2
    19    20    19    2
    20    35    34    1
    21    63    64    2
    22    59    58   ar
    23    58    60   ar
    24    19    18    1
    25    25    24    2
    26    42    43    1
    27    22    23    1
    28    43    44    1
    29    21    18    1
    30    24    23    1
    31    24    33   am
    32    23    26    1
    33    34    33    1
    34    34    37    1
    35    18    17    1
    36   111   110    2
    37   108   109    1
    38    44    46   ar
    39    44    45   ar
    40    65    66    1
    41   110   109    1
    42    17    11   am
    43    26    27    1
    44   109   112    1
    45    12    11    2
    46    27    28    1
    47    11    10    1
    48    66    67    1
    49     4     3    2
    50   112   113    1
    51   112   114    1
    52     3     2    1
    53   118   117    2
    54     9    10    1
    55    28    29    1
    56   115   116    1
    57    10    13    1
    58    68    67    2
    59    67    69   am
    60    29    30    2
    61     5     2    1
    62     5     6    1
    63     2     1    1
    64   117   116    1
    65   116   119    1
    66    13    14    1
    67    30    32    1
    68    30    31    1
    69    69    70    1
    70     7     6    1
    71     6     8    1
    72    14    15    2
    73    14    16   am
    74    70    71    1
    75    70    73    1
    76    75    73    1
    77    72    71    2
    78    73    74    1
    79   107   105    1
    80   102   101    1
    81   102   103    2
    82   101   104    1
    83   101   100    1
    84   104   105    1
    85   105   106    1
    86    83    81    1
    87    99    97    1
    88    90    89    1
    89    98    97    1
    90    97    96    1
    91    81    80    1
    92    91    89    1
    93    89    88    1
    94    96    93    1
    95    80    82    1
    96    80    77    1
    97    93    92    1
    98    93    94    1
    99    88    85    1
   100    77    76    1
   101    77    78    1
   102    95    94    2
   103    79    78    2
   104    85    86    1
   105    85    84    1
   106    87    86    2
