@<TRIPOS>MOLECULE
tmp/4mp8A01.pdb
 112 100 0 0 0
SMALL
GASTEIGER

@<TRIPOS>ATOM
      1  N        -16.3700   -9.8980   -2.1580 N.3    43  LYS43      -0.1245
      2  CA       -15.5970   -9.0490   -1.2280 C.3    43  LYS43       0.1561
      3  C        -15.6440   -9.5850    0.2040 C.2    43  LYS43       0.2260
      4  O        -16.7340   -9.7890    0.7390 O.2    43  LYS43      -0.2867
      5  CB       -16.1190   -7.6100   -1.2120 C.3    43  LYS43       0.0271
      6  CG       -16.4990   -6.9960   -2.5390 C.3    43  LYS43       0.0035
      7  CD       -17.3850   -5.7860   -2.2630 C.3    43  LYS43       0.0206
      8  CE       -18.2640   -5.4340   -3.4610 C.3    43  LYS43       0.1093
      9  NZ       -19.3430   -4.4490   -3.0900 N.3    43  LYS43      -0.1314
     10  N        -15.9490   -2.0220    9.8520 N.3    58  ARG58      -0.1245
     11  CA       -15.4540   -3.0980    9.0240 C.3    58  ARG58       0.1563
     12  C        -14.2780   -2.6100    8.1990 C.2    58  ARG58       0.2260
     13  O        -14.0670   -1.4020    8.0580 O.2    58  ARG58      -0.2867
     14  CB       -16.5810   -3.6240    8.1040 C.3    58  ARG58       0.0307
     15  CG       -16.8240   -2.8020    6.8390 C.3    58  ARG58       0.0489
     16  CD       -17.9450   -1.7870    6.9670 C.3    58  ARG58       0.2205
     17  NE       -18.0660   -0.9350    5.7670 N.pl3  58  ARG58      -0.0865
     18  CZ       -19.2210   -0.4600    5.3160 C.cat  58  ARG58       0.5346
     19  NH1      -20.3520   -0.7490    5.9550 N.pl3  58  ARG58       0.1354
     20  NH2      -19.2530    0.3160    4.2480 N.pl3  58  ARG58       0.1354
     21  N        -13.1940   -3.7550    4.2170 N.3    60  ILE60      -0.1245
     22  CA       -13.6180   -4.5570    3.0440 C.3    60  ILE60       0.1561
     23  C        -12.4690   -4.6500    2.0620 C.2    60  ILE60       0.2260
     24  O        -11.8450   -3.6370    1.7220 O.2    60  ILE60      -0.2867
     25  CB       -14.8050   -3.8970    2.2700 C.3    60  ILE60       0.0252
     26  CG1      -15.9460   -3.5180    3.2030 C.3    60  ILE60       0.0019
     27  CG2      -15.3470   -4.8100    1.1590 C.3    60  ILE60       0.0019
     28  CD1      -17.0970   -2.8180    2.4560 C.3    60  ILE60       0.0001
     29  N        -11.5710   -5.5530   -1.7770 N.3    62  MET62      -0.1245
     30  CA       -12.3150   -5.5320   -3.0330 C.3    62  MET62       0.1570
     31  C        -11.3460   -5.6920   -4.1850 C.2    62  MET62       0.2261
     32  O        -10.9480   -4.7060   -4.7780 O.2    62  MET62      -0.2867
     33  CB       -13.0850   -4.1950   -3.1760 C.3    62  MET62       0.0387
     34  CG       -14.1010   -3.9630   -2.0610 C.3    62  MET62       0.0595
     35  SD       -15.1950   -2.5270   -2.2390 S.3    62  MET62      -0.1393
     36  CE       -15.7300   -2.6190   -3.9440 C.3    62  MET62       0.0692
     37  N         -9.0720   -2.6310   -3.6630 N.3    76  LYS76      -0.1245
     38  CA        -9.3610   -1.5670   -2.7330 C.3    76  LYS76       0.1561
     39  C         -9.5330   -2.2080   -1.3610 C.2    76  LYS76       0.2260
     40  O        -10.2840   -3.1580   -1.1950 O.2    76  LYS76      -0.2867
     41  CB       -10.6260   -0.7670   -3.1500 C.3    76  LYS76       0.0271
     42  CG       -10.9350    0.3530   -2.1460 C.3    76  LYS76       0.0035
     43  CD       -12.1030    1.2670   -2.5540 C.3    76  LYS76       0.0206
     44  CE       -13.4720    0.5880   -2.4560 C.3    76  LYS76       0.1093
     45  NZ       -14.5790    1.5700   -2.7250 N.3    76  LYS76      -0.1314
     46  N        -10.5740   -0.9580    2.2220 N.3    78  ILE78      -0.1245
     47  CA       -11.2460    0.2890    2.6800 C.3    78  ILE78       0.1561
     48  C        -11.9090    0.0220    4.0120 C.2    78  ILE78       0.2260
     49  O        -12.7840   -0.8850    4.1260 O.2    78  ILE78      -0.2867
     50  CB       -12.2750    0.7950    1.6530 C.3    78  ILE78       0.0252
     51  CG1      -12.9740    2.0760    2.1460 C.3    78  ILE78       0.0019
     52  CG2      -13.2830   -0.3010    1.2790 C.3    78  ILE78       0.0019
     53  CD1      -12.9880    3.1760    1.1030 C.3    78  ILE78       0.0001
     54  N        -13.6750    1.3550    7.8410 N.3    80  SER80      -0.1217
     55  CA       -14.7520    2.2230    8.2710 C.3    80  SER80       0.1889
     56  C        -14.8840    2.0430    9.7780 C.2    80  SER80       0.2288
     57  O        -14.7550    0.9380   10.2630 O.2    80  SER80      -0.2866
     58  CB       -16.0250    1.8040    7.5450 C.3    80  SER80       0.2089
     59  OG       -17.1520    2.5110    7.9760 O.3    80  SER80      -0.2183
     60  N        -15.0190    8.8680    8.3530 N.3    92  ARG92      -0.1231
     61  CA       -15.5050    7.5030    8.6260 C.3    92  ARG92       0.1694
     62  C        -14.6350    6.4330    7.9490 C.2    92  ARG92       0.2591
     63  O        -14.0800    5.5410    8.6080 O.2    92  ARG92      -0.2718
     64  CB       -16.9670    7.3440    8.1420 C.3    92  ARG92       0.0321
     65  CG       -17.5130    5.9290    8.3500 C.3    92  ARG92       0.0489
     66  CD       -18.7670    5.6580    7.5340 C.3    92  ARG92       0.2205
     67  NE       -18.6110    6.0190    6.1200 N.pl3  92  ARG92      -0.0865
     68  CZ       -18.2800    5.1830    5.1520 C.cat  92  ARG92       0.5346
     69  NH1      -18.0650    3.8920    5.4260 N.pl3  92  ARG92       0.1354
     70  NH2      -18.1830    5.6280    3.8800 N.pl3  92  ARG92       0.1354
     71  N        -14.5650    6.5210    6.6260 N.am   93  ALA93      -0.1980
     72  CA       -13.8540    5.5530    5.7990 C.3    93  ALA93       0.1597
     73  C        -12.4310    6.0140    5.5400 C.2    93  ALA93       0.2287
     74  O        -12.1350    7.2130    5.5770 O.2    93  ALA93      -0.2864
     75  CB       -14.5860    5.3710    4.4700 C.3    93  ALA93       0.0319
     76  N        -12.9020    6.4460   -3.9370 N.3   117  SER117     -0.1217
     77  CA       -14.0820    5.6430   -3.6410 C.3   117  SER117      0.1889
     78  C        -15.3280    6.5280   -3.7030 C.2   117  SER117      0.2288
     79  O        -16.3710    6.1460   -4.2580 O.2   117  SER117     -0.2866
     80  CB       -13.9480    5.0030   -2.2490 C.3   117  SER117      0.2089
     81  OG       -15.0470    4.1570   -1.9990 O.3   117  SER117     -0.2183
     82  N        -15.8730    7.7550   -7.4560 N.3   120  ARG120     -0.1245
     83  CA       -16.4010    6.7140   -8.3610 C.3   120  ARG120      0.1563
     84  C        -17.8630    6.3890   -7.9830 C.2   120  ARG120      0.2260
     85  O        -18.6770    6.1330   -8.8460 O.2   120  ARG120     -0.2867
     86  CB       -15.5090    5.4470   -8.4180 C.3   120  ARG120      0.0307
     87  CG       -15.4780    4.5910   -7.1610 C.3   120  ARG120      0.0489
     88  CD       -16.7330    3.7230   -6.9650 C.3   120  ARG120      0.2205
     89  NE       -16.4110    2.5370   -6.1740 N.pl3 120  ARG120     -0.0865
     90  CZ       -17.2560    1.8560   -5.3920 C.cat 120  ARG120      0.5346
     91  NH1      -18.5050    2.2550   -5.2640 N.pl3 120  ARG120      0.1354
     92  NH2      -16.8430    0.7360   -4.7430 N.pl3 120  ARG120      0.1354
     93  N        -19.6660   11.1480    1.2290 N.3   148  ILE148     -0.1245
     94  CA       -20.3280   10.5730    0.0750 C.3   148  ILE148      0.1561
     95  C        -21.3590   11.5870   -0.4500 C.2   148  ILE148      0.2260
     96  O        -21.3900   11.8950   -1.6440 O.2   148  ILE148     -0.2867
     97  CB       -20.9660    9.2090    0.4310 C.3   148  ILE148      0.0252
     98  CG1      -19.8660    8.1530    0.6880 C.3   148  ILE148      0.0019
     99  CG2      -21.9200    8.7340   -0.6610 C.3   148  ILE148      0.0019
    100  CD1      -18.9290    7.8580   -0.4780 C.3   148  ILE148      0.0001
    101  N        -24.4470   -2.0500   -5.1970 N.3   305  MET305     -0.1230
    102  CA       -23.6200   -2.4860   -4.0760 C.3   305  MET305      0.1702
    103  C        -22.2030   -1.8890   -4.1130 C.2   305  MET305      0.2592
    104  O        -21.5330   -1.8030   -3.0880 O.2   305  MET305     -0.2718
    105  CB       -23.5560   -4.0010   -4.0440 C.3   305  MET305      0.0401
    106  CG       -24.8550   -4.6460   -3.5630 C.3   305  MET305      0.0596
    107  SD       -25.2080   -4.3010   -1.8210 S.3   305  MET305     -0.1393
    108  CE       -23.7940   -5.0740   -1.0170 C.3   305  MET305      0.0692
    109  N        -21.7490   -1.4770   -5.2960 N.am  306  GLY306     -0.1957
    110  CA       -20.3730   -0.9900   -5.4700 C.3   306  GLY306      0.1869
    111  C        -19.5540   -2.1660   -5.9640 C.2   306  GLY306      0.2309
    112  O        -19.7440   -3.3040   -5.4750 O.2   306  GLY306     -0.2863
@<TRIPOS>BOND
     1    85    84    2
     2    86    83    1
     3    86    87    1
     4    83    84    1
     5    83    82    1
     6    87    88    1
     7    88    89    1
     8    89    90    2
     9   111   112    2
    10   111   110    1
    11   110   109    1
    12    90    91    1
    13    90    92    1
    14   109   103   am
    15   101   102    1
    16    32    31    2
    17    79    78    2
    18    31    30    1
    19   103   102    1
    20   103   104    2
    21   102   105    1
    22   105   106    1
    23    36    35    1
    24    76    77    1
    25    78    77    1
    26    37    38    1
    27    77    80    1
    28   106   107    1
    29     8     9    1
    30     8     7    1
    31    33    30    1
    32    33    34    1
    33    41    38    1
    34    41    42    1
    35    30    29    1
    36    38    39    1
    37    45    44    1
    38    43    44    1
    39    43    42    1
    40     6     7    1
    41     6     5    1
    42    80    81    1
    43    35    34    1
    44     1     2    1
    45   107   108    1
    46    96    95    2
    47    39    40    2
    48     2     5    1
    49     2     3    1
    50    99    97    1
    51   100    98    1
    52    95    94    1
    53    94    97    1
    54    94    93    1
    55     3     4    2
    56    97    98    1
    57    53    51    1
    58    27    25    1
    59    52    50    1
    60    50    51    1
    61    50    47    1
    62    24    23    2
    63    23    22    1
    64    46    47    1
    65    25    22    1
    66    25    26    1
    67    28    26    1
    68    47    48    1
    69    22    21    1
    70    70    68    1
    71    48    49    2
    72    20    18    1
    73    75    72    1
    74    68    69    1
    75    68    67    2
    76    18    17    2
    77    18    19    1
    78    73    74    2
    79    73    72    1
    80    17    16    1
    81    72    71    1
    82    67    66    1
    83    71    62   am
    84    15    16    1
    85    15    14    1
    86    66    65    1
    87    58    59    1
    88    58    55    1
    89    54    55    1
    90    62    63    2
    91    62    61    1
    92    13    12    2
    93    14    11    1
    94    64    65    1
    95    64    61    1
    96    12    11    1
    97    55    56    1
    98    60    61    1
    99    11    10    1
   100    56    57    2
