@<TRIPOS>MOLECULE
tmp/4mpdA01.pdb
 124 112 0 0 0
SMALL
GASTEIGER

@<TRIPOS>ATOM
      1  N        -15.4420   40.1610   -2.1110 N.3    43  LYS43      -0.1245
      2  CA       -16.1670   39.3770   -1.1230 C.3    43  LYS43       0.1561
      3  C        -16.0330   39.9800    0.2680 C.2    43  LYS43       0.2260
      4  O        -14.9240   40.2680    0.7190 O.2    43  LYS43      -0.2867
      5  CB       -15.6440   37.9410   -1.1160 C.3    43  LYS43       0.0271
      6  CG       -14.1290   37.8230   -1.0330 C.3    43  LYS43       0.0035
      7  CD       -13.7450   36.3740   -1.0060 C.3    43  LYS43       0.0206
      8  CE       -14.1520   35.6820   -2.2930 C.3    43  LYS43       0.1093
      9  NZ       -13.7960   34.2480   -2.2640 N.3    43  LYS43      -0.1314
     10  N        -16.0750   39.3140    4.1940 N.3    45  TYR45      -0.1241
     11  CA       -15.9770   38.2120    5.1450 C.3    45  TYR45       0.1605
     12  C        -16.7370   38.5580    6.4180 C.2    45  TYR45       0.2264
     13  O        -16.5270   39.6190    7.0050 O.2    45  TYR45      -0.2867
     14  CB       -14.5140   37.9060    5.4830 C.3    45  TYR45       0.0534
     15  CG       -13.7670   37.1380    4.4130 C.ar   45  TYR45      -0.0201
     16  CD1      -13.3520   37.7620    3.2450 C.ar   45  TYR45      -0.0009
     17  CD2      -13.4600   35.7920    4.5810 C.ar   45  TYR45      -0.0009
     18  CE1      -12.6640   37.0670    2.2680 C.ar   45  TYR45       0.0417
     19  CE2      -12.7710   35.0880    3.6100 C.ar   45  TYR45       0.0417
     20  CZ       -12.3750   35.7310    2.4560 C.ar   45  TYR45       0.1957
     21  OH       -11.6900   35.0370    1.4850 O.3    45  TYR45      -0.2866
     22  N        -15.6290   31.9150    9.8220 N.3    51  ARG51      -0.1245
     23  CA       -16.0710   32.9630    8.9170 C.3    51  ARG51       0.1563
     24  C        -17.3000   32.5400    8.1260 C.2    51  ARG51       0.2260
     25  O        -17.5830   31.3510    7.9830 O.2    51  ARG51      -0.2867
     26  CB       -14.9470   33.2830    7.9320 C.3    51  ARG51       0.0307
     27  CG       -14.5710   32.0960    7.0510 C.3    51  ARG51       0.0489
     28  CD       -13.4710   32.4370    6.0590 C.3    51  ARG51       0.2205
     29  NE       -13.3520   31.4210    5.0160 N.pl3  51  ARG51      -0.0865
     30  CZ       -12.4620   30.4330    5.0220 C.cat  51  ARG51       0.5346
     31  NH1      -11.5940   30.3210    6.0190 N.pl3  51  ARG51       0.1354
     32  NH2      -12.4360   29.5580    4.0260 N.pl3  51  ARG51       0.1354
     33  N        -18.7380   33.8930    4.2360 N.3    53  ILE53      -0.1245
     34  CA       -18.2690   34.7510    3.1540 C.3    53  ILE53       0.1561
     35  C        -19.2800   34.8030    2.0150 C.2    53  ILE53       0.2260
     36  O        -19.6950   33.7720    1.4830 O.2    53  ILE53      -0.2867
     37  CB       -16.8600   34.2990    2.6730 C.3    53  ILE53       0.0252
     38  CG1      -16.6600   34.5370    1.1690 C.3    53  ILE53       0.0019
     39  CG2      -16.6070   32.8440    3.0790 C.3    53  ILE53       0.0019
     40  CD1      -15.6240   33.6160    0.5380 C.3    53  ILE53       0.0001
     41  N        -20.2830   35.5430   -1.6750 N.3    55  MET55      -0.1245
     42  CA       -19.6310   35.5650   -2.9770 C.3    55  MET55       0.1570
     43  C        -20.6270   35.7960   -4.1050 C.2    55  MET55       0.2261
     44  O        -21.0810   34.8450   -4.7400 O.2    55  MET55      -0.2867
     45  CB       -18.8710   34.2600   -3.2110 C.3    55  MET55       0.0387
     46  CG       -17.7380   34.0360   -2.2350 C.3    55  MET55       0.0595
     47  SD       -16.9340   32.4360   -2.4320 S.3    55  MET55      -0.1393
     48  CE       -16.2460   32.5950   -4.0760 C.3    55  MET55       0.0692
     49  N        -22.8310   32.8470   -3.5790 N.3    64  LYS64      -0.1245
     50  CA       -22.5610   31.7280   -2.6870 C.3    64  LYS64       0.1561
     51  C        -22.3690   32.2440   -1.2670 C.2    64  LYS64       0.2260
     52  O        -21.4900   33.0640   -1.0050 O.2    64  LYS64      -0.2867
     53  CB       -21.3390   30.9250   -3.1370 C.3    64  LYS64       0.0271
     54  CG       -21.1620   29.6230   -2.3640 C.3    64  LYS64       0.0035
     55  CD       -20.0320   28.7720   -2.9200 C.3    64  LYS64       0.0206
     56  CE       -18.6770   29.3600   -2.5760 C.3    64  LYS64       0.1093
     57  NZ       -17.5600   28.4830   -3.0260 N.3    64  LYS64      -0.1314
     58  N        -21.3500   30.8540    1.9140 N.3    66  ILE66      -0.1245
     59  CA       -20.7230   29.6660    2.4770 C.3    66  ILE66       0.1561
     60  C        -20.0700   29.9080    3.8410 C.2    66  ILE66       0.2260
     61  O        -19.1550   30.7180    3.9770 O.2    66  ILE66      -0.2867
     62  CB       -19.7260   29.0290    1.4710 C.3    66  ILE66       0.0252
     63  CG1      -19.1050   27.7600    2.0560 C.3    66  ILE66       0.0019
     64  CG2      -18.6670   30.0300    1.0390 C.3    66  ILE66       0.0019
     65  CD1      -18.3640   26.9070    1.0430 C.3    66  ILE66       0.0001
     66  N        -18.0840   28.6490    7.4250 N.3    68  SER68      -0.1217
     67  CA       -17.0260   27.7430    7.8370 C.3    68  SER68       0.1889
     68  C        -16.6470   27.9790    9.2840 C.2    68  SER68       0.2288
     69  O        -16.6840   29.1110    9.7670 O.2    68  SER68      -0.2866
     70  CB       -15.7830   27.9470    6.9750 C.3    68  SER68       0.2089
     71  OG       -14.6570   27.3120    7.5600 O.3    68  SER68      -0.2183
     72  N        -16.7990   21.0720    8.0180 N.3    80  ARG80      -0.1231
     73  CA       -16.3430   22.4350    8.2570 C.3    80  ARG80       0.1694
     74  C        -17.1570   23.4200    7.4340 C.2    80  ARG80       0.2591
     75  O        -17.7080   24.3850    7.9640 O.2    80  ARG80      -0.2718
     76  CB       -14.8660   22.5800    7.8940 C.3    80  ARG80       0.0321
     77  CG       -14.3780   24.0210    7.9010 C.3    80  ARG80       0.0489
     78  CD       -13.1130   24.1860    7.0750 C.3    80  ARG80       0.2205
     79  NE       -13.3380   23.9060    5.6590 N.pl3  80  ARG80      -0.0865
     80  CZ       -13.6380   24.8300    4.7520 C.cat  80  ARG80       0.5346
     81  NH1      -13.8260   24.4830    3.4860 N.pl3  80  ARG80       0.1354
     82  NH2      -13.7480   26.1020    5.1100 N.pl3  80  ARG80       0.1354
     83  N        -17.2320   23.1620    6.1340 N.am   81  ALA81      -0.1980
     84  CA       -17.9250   24.0510    5.2140 C.3    81  ALA81       0.1597
     85  C        -19.3990   23.6910    5.0740 C.2    81  ALA81       0.2287
     86  O        -19.7740   22.5180    5.1240 O.2    81  ALA81      -0.2864
     87  CB       -17.2450   24.0400    3.8530 C.3    81  ALA81       0.0319
     88  N        -18.9680   23.7670   -4.2590 N.3   105  SER105     -0.1217
     89  CA       -17.7680   24.5380   -3.9490 C.3   105  SER105      0.1889
     90  C        -16.5020   23.6930   -4.0430 C.2   105  SER105      0.2288
     91  O        -15.4900   24.1340   -4.5860 O.2   105  SER105     -0.2866
     92  CB       -17.8740   25.1560   -2.5530 C.3   105  SER105      0.2089
     93  OG       -16.6790   25.8330   -2.2020 O.3   105  SER105     -0.2183
     94  N        -15.9050   22.4560   -7.8820 N.3   108  ARG108     -0.1245
     95  CA       -15.4370   23.5230   -8.7620 C.3   108  ARG108      0.1563
     96  C        -13.9900   23.8800   -8.4370 C.2   108  ARG108      0.2260
     97  O        -13.2040   24.2020   -9.3270 O.2   108  ARG108     -0.2867
     98  CB       -16.3530   24.7550   -8.6870 C.3   108  ARG108      0.0307
     99  CG       -16.3020   25.5560   -7.3850 C.3   108  ARG108      0.0489
    100  CD       -15.3280   26.7290   -7.4840 C.3   108  ARG108      0.2205
    101  NE       -15.6870   27.8340   -6.5990 N.pl3 108  ARG108     -0.0865
    102  CZ       -14.9170   28.2950   -5.6180 C.cat 108  ARG108      0.5346
    103  NH1      -13.7320   27.7480   -5.3850 N.pl3 108  ARG108      0.1354
    104  NH2      -15.3330   29.3080   -4.8700 N.pl3 108  ARG108      0.1354
    105  N        -12.5520   18.8450    0.5080 N.3   136  ILE136     -0.1245
    106  CA       -11.7970   19.4250   -0.5970 C.3   136  ILE136      0.1561
    107  C        -10.8210   18.4130   -1.1850 C.2   136  ILE136      0.2260
    108  O        -10.8500   18.1400   -2.3840 O.2   136  ILE136     -0.2867
    109  CB       -11.0240   20.6810   -0.1560 C.3   136  ILE136      0.0252
    110  CG1      -11.9980   21.8000    0.2160 C.3   136  ILE136      0.0019
    111  CG2      -10.0850   21.1450   -1.2580 C.3   136  ILE136      0.0019
    112  CD1      -12.8800   22.2440   -0.9270 C.3   136  ILE136      0.0001
    113  N         -7.6760   32.3110   -5.2800 N.3   289  MET289     -0.1230
    114  CA        -8.4290   32.7800   -4.1250 C.3   289  MET289      0.1702
    115  C         -9.8480   32.2340   -4.1640 C.2   289  MET289      0.2592
    116  O        -10.5680   32.2690   -3.1660 O.2   289  MET289     -0.2718
    117  CB        -8.4690   34.3090   -4.0970 C.3   289  MET289      0.0401
    118  CG        -7.1080   34.9650   -3.9540 C.3   289  MET289      0.0596
    119  SD        -6.2680   34.4850   -2.4340 S.3   289  MET289     -0.1393
    120  CE        -7.4840   34.9680   -1.2110 C.3   289  MET289      0.0692
    121  N        -10.2420   31.7250   -5.3260 N.am  290  GLY290     -0.1957
    122  CA       -11.6080   31.2910   -5.5400 C.3   290  GLY290      0.1869
    123  C        -12.4530   32.4680   -5.9820 C.2   290  GLY290      0.2309
    124  O        -12.4210   33.5310   -5.3630 O.2   290  GLY290     -0.2863
@<TRIPOS>BOND
     1    97    96    2
     2    95    98    1
     3    95    96    1
     4    95    94    1
     5    98    99    1
     6   100    99    1
     7   100   101    1
     8   101   102    2
     9   123   122    1
    10   123   124    2
    11   102   103    1
    12   102   104    1
    13   122   121    1
    14   121   115   am
    15   113   114    1
    16    44    43    2
    17    91    90    2
    18    88    89    1
    19   115   114    1
    20   115   116    2
    21   114   117    1
    22    43    42    1
    23   117   118    1
    24    48    47    1
    25    90    89    1
    26   118   119    1
    27    89    92    1
    28    49    50    1
    29    45    42    1
    30    45    46    1
    31    53    50    1
    32    53    54    1
    33    57    56    1
    34    42    41    1
    35    55    56    1
    36    55    54    1
    37    50    51    1
    38    92    93    1
    39   119   120    1
    40    47    46    1
    41   108   107    2
    42     8     9    1
    43     8     7    1
    44     1     2    1
    45    51    52    2
    46   111   109    1
    47   107   106    1
    48     2     5    1
    49     2     3    1
    50     5     6    1
    51     6     7    1
    52   112   110    1
    53   106   109    1
    54   106   105    1
    55   109   110    1
    56     3     4    2
    57    40    38    1
    58    64    62    1
    59    65    63    1
    60    38    37    1
    61    62    63    1
    62    62    59    1
    63    36    35    2
    64    21    20    1
    65    58    59    1
    66    35    34    1
    67    18    20   ar
    68    18    16   ar
    69    20    19   ar
    70    59    60    1
    71    37    39    1
    72    37    34    1
    73    34    33    1
    74    16    15   ar
    75    81    80    1
    76    19    17   ar
    77    60    61    2
    78    87    84    1
    79    32    30    1
    80    10    11    1
    81    15    17   ar
    82    15    14    1
    83    80    82    1
    84    80    79    2
    85    29    30    2
    86    29    28    1
    87    30    31    1
    88    85    86    2
    89    85    84    1
    90    11    14    1
    91    11    12    1
    92    84    83    1
    93    79    78    1
    94    28    27    1
    95    83    74   am
    96    12    13    2
    97    70    71    1
    98    70    67    1
    99    27    26    1
   100    78    77    1
   101    66    67    1
   102    74    75    2
   103    74    73    1
   104    67    68    1
   105    76    77    1
   106    76    73    1
   107    26    23    1
   108    25    24    2
   109    72    73    1
   110    24    23    1
   111    23    22    1
   112    68    69    2
