@<TRIPOS>MOLECULE
tmp/4mpeA00.pdb
 127 113 0 0 0
SMALL
GASTEIGER

@<TRIPOS>ATOM
      1  N         10.4770   11.3660  -36.4750 N.3   237  LEU237     -0.1245
      2  CA        10.0160   10.1650  -37.1970 C.3   237  LEU237      0.1561
      3  C         10.6970   10.0000  -38.5550 C.2   237  LEU237      0.2260
      4  O         11.0700    8.8820  -38.9320 O.2   237  LEU237     -0.2867
      5  CB         8.4820   10.1540  -37.3720 C.3   237  LEU237      0.0270
      6  CG         7.6740   10.1300  -36.0600 C.3   237  LEU237      0.0019
      7  CD1        6.1550   10.2000  -36.3110 C.3   237  LEU237      0.0001
      8  CD2        8.0260    8.8780  -35.2580 C.3   237  LEU237      0.0001
      9  N         14.3260    8.6670  -38.1820 N.3   240  ASN240     -0.1225
     10  CA        14.3300    7.2180  -37.9610 C.3   240  ASN240      0.1785
     11  C         13.9510    6.4170  -39.2110 C.2   240  ASN240      0.2597
     12  O         14.5860    5.4040  -39.5230 O.2   240  ASN240     -0.2718
     13  CB        13.3930    6.8370  -36.8200 C.3   240  ASN240      0.1169
     14  CG        13.9480    7.2320  -35.4590 C.2   240  ASN240      0.2627
     15  OD1       14.9100    6.6400  -34.9780 O.2   240  ASN240     -0.2716
     16  ND2       13.3270    8.2100  -34.8290 N.am  240  ASN240     -0.0877
     17  N         12.8900    6.8470  -39.8960 N.am  241  ALA241     -0.1979
     18  CA        12.4410    6.1250  -41.0840 C.3   241  ALA241      0.1597
     19  C         13.5070    6.1700  -42.1850 C.2   241  ALA241      0.2287
     20  O         13.7140    5.1890  -42.9060 O.2   241  ALA241     -0.2864
     21  CB        11.1100    6.6850  -41.6000 C.3   241  ALA241      0.0319
     22  N         16.8810    6.6550  -41.8130 N.3   243  ARG243     -0.1231
     23  CA        18.0270    5.8620  -41.4060 C.3   243  ARG243      0.1694
     24  C         17.7340    4.3680  -41.6050 C.2   243  ARG243      0.2591
     25  O         18.5660    3.6500  -42.1430 O.2   243  ARG243     -0.2718
     26  CB        18.4250    6.1670  -39.9620 C.3   243  ARG243      0.0321
     27  CG        19.6670    5.4270  -39.5000 C.3   243  ARG243      0.0489
     28  CD        20.2020    5.9860  -38.1810 C.3   243  ARG243      0.2205
     29  NE        21.4760    5.3650  -37.8240 N.pl3 243  ARG243     -0.0865
     30  CZ        21.6490    4.5310  -36.8010 C.cat 243  ARG243      0.5346
     31  NH1       20.6290    4.2190  -36.0100 N.pl3 243  ARG243      0.1354
     32  NH2       22.8490    4.0150  -36.5630 N.pl3 243  ARG243      0.1354
     33  N         16.5610    3.9050  -41.1770 N.am  244  ALA244     -0.1980
     34  CA        16.1980    2.4980  -41.3540 C.3   244  ALA244      0.1597
     35  C         16.2010    2.1230  -42.8390 C.2   244  ALA244      0.2287
     36  O         16.7380    1.0900  -43.2410 O.2   244  ALA244     -0.2864
     37  CB        14.8220    2.2300  -40.7570 C.3   244  ALA244      0.0319
     38  N         19.9340    2.1820  -44.3380 N.3   247  GLU247     -0.1231
     39  CA        20.7860    1.1470  -43.7550 C.3   247  GLU247      0.1699
     40  C         20.3670   -0.2870  -44.0990 C.2   247  GLU247      0.2592
     41  O         21.2170   -1.1680  -44.2470 O.2   247  GLU247     -0.2718
     42  CB        20.9140    1.3550  -42.2570 C.3   247  GLU247      0.0402
     43  CG        21.5890    2.6660  -41.9240 C.3   247  GLU247      0.1161
     44  CD        22.0690    2.7280  -40.4990 C.2   247  GLU247      0.3649
     45  OE1       21.6420    1.8730  -39.6930 O.co2 247  GLU247     -0.2457
     46  OE2       22.8780    3.6300  -40.1860 O.co2 247  GLU247     -0.2457
     47  N         19.0680   -0.5070  -44.2640 N.am  248  SER248     -0.1952
     48  CA        18.5630   -1.8170  -44.6480 C.3   248  SER248      0.1924
     49  C         18.6490   -2.0370  -46.1540 C.2   248  SER248      0.2314
     50  O         18.2440   -3.0850  -46.6600 O.2   248  SER248     -0.2863
     51  CB        17.1120   -1.9760  -44.2030 C.3   248  SER248      0.2116
     52  OG        16.2960   -1.0030  -44.8460 O.3   248  SER248     -0.2180
     53  N          3.2870    7.4370  -40.8430 N.3   273  MET273     -0.1245
     54  CA         4.5240    7.3900  -41.6200 C.3   273  MET273      0.1570
     55  C          4.9750    5.9370  -41.7610 C.2   273  MET273      0.2261
     56  O          5.2800    5.2820  -40.7690 O.2   273  MET273     -0.2867
     57  CB         5.6270    8.2120  -40.9400 C.3   273  MET273      0.0387
     58  CG         6.9100    8.3460  -41.8070 C.3   273  MET273      0.0595
     59  SD         8.2060    9.2900  -40.9670 S.3   273  MET273     -0.1393
     60  CE         7.4340   10.8850  -40.7570 C.3   273  MET273      0.0692
     61  N          7.5540    3.1110  -43.4290 N.3   275  ASP275     -0.1239
     62  CA         8.8260    2.8650  -44.0970 C.3   275  ASP275      0.1674
     63  C          9.0070    1.3770  -44.3780 C.2   275  ASP275      0.2266
     64  O          8.3070    0.5330  -43.8170 O.2   275  ASP275     -0.2867
     65  CB        10.0080    3.4400  -43.2980 C.3   275  ASP275      0.1410
     66  CG        10.2950    2.6640  -42.0110 C.2   275  ASP275      0.3668
     67  OD1       10.5290    1.4390  -42.0890 O.co2 275  ASP275     -0.2456
     68  OD2       10.2880    3.3000  -40.9290 O.co2 275  ASP275     -0.2456
     69  N         12.0410   -0.0170  -43.9300 N.3   277  GLY277     -0.1225
     70  CA        13.3850   -0.0760  -43.3950 C.3   277  GLY277      0.1811
     71  C         13.7540   -1.3520  -42.6550 C.2   277  GLY277      0.2280
     72  O         14.7420   -1.3620  -41.9090 O.2   277  GLY277     -0.2866
     73  N         12.3080   -2.9850  -40.2410 N.3   279  GLY279     -0.1210
     74  CA        11.6220   -3.1970  -38.9740 C.3   279  GLY279      0.1956
     75  C         12.5090   -3.5880  -37.7960 C.2   279  GLY279      0.2611
     76  O         13.7420   -3.5910  -37.8770 O.2   279  GLY279     -0.2717
     77  N         11.8570   -3.9470  -36.6970 N.am  280  VAL280     -0.1979
     78  CA        12.5330   -4.2970  -35.4560 C.3   280  VAL280      0.1595
     79  C         11.5920   -5.2640  -34.7340 C.2   280  VAL280      0.2287
     80  O         10.3720   -5.1460  -34.8720 O.2   280  VAL280     -0.2864
     81  CB        12.7760   -3.0180  -34.6110 C.3   280  VAL280      0.0276
     82  CG1       11.4690   -2.2850  -34.3740 C.3   280  VAL280      0.0022
     83  CG2       13.4500   -3.3310  -33.2790 C.3   280  VAL280      0.0022
     84  N         10.5250   -2.7230  -29.1140 N.3   285  ILE285     -0.1245
     85  CA         9.7380   -1.4980  -29.2930 C.3   285  ILE285      0.1561
     86  C          9.6820   -0.6370  -28.0330 C.2   285  ILE285      0.2260
     87  O          9.9280    0.5760  -28.0850 O.2   285  ILE285     -0.2867
     88  CB         8.3010   -1.8080  -29.7530 C.3   285  ILE285      0.0252
     89  CG1        8.3080   -2.3020  -31.1990 C.3   285  ILE285      0.0019
     90  CG2        7.4220   -0.5700  -29.6170 C.3   285  ILE285      0.0019
     91  CD1        8.7660   -1.2590  -32.1970 C.3   285  ILE285      0.0001
     92  N         12.3400    1.7950  -27.2560 N.3   288  LEU288     -0.1245
     93  CA        12.4470    3.0300  -28.0280 C.3   288  LEU288      0.1561
     94  C         11.8970    4.2280  -27.2610 C.2   288  LEU288      0.2260
     95  O         12.2390    5.3740  -27.5510 O.2   288  LEU288     -0.2867
     96  CB        11.7250    2.9130  -29.3700 C.3   288  LEU288      0.0270
     97  CG        12.3680    1.8960  -30.3180 C.3   288  LEU288      0.0019
     98  CD1       11.6310    1.9030  -31.6410 C.3   288  LEU288      0.0001
     99  CD2       13.8490    2.1930  -30.5150 C.3   288  LEU288      0.0001
    100  N         12.3310   10.1490  -29.4350 N.3   299  LEU299     -0.1245
    101  CA        11.0420    9.4710  -29.5270 C.3   299  LEU299      0.1561
    102  C         10.1480    9.6650  -28.2970 C.2   299  LEU299      0.2260
    103  O          8.9770   10.0090  -28.4480 O.2   299  LEU299     -0.2867
    104  CB        11.2080    7.9890  -29.8600 C.3   299  LEU299      0.0270
    105  CG        11.5250    7.6950  -31.3310 C.3   299  LEU299      0.0019
    106  CD1       11.9030    6.2360  -31.5250 C.3   299  LEU299      0.0001
    107  CD2       10.3400    8.0710  -32.2110 C.3   299  LEU299      0.0001
    108  N          4.0260    3.2500  -32.3980 N.3   315  LEU315     -0.1245
    109  CA         4.8640    2.5880  -33.3960 C.3   315  LEU315      0.1561
    110  C          4.4410    1.1410  -33.4940 C.2   315  LEU315      0.2260
    111  O          4.1810    0.4840  -32.4690 O.2   315  LEU315     -0.2867
    112  CB         6.3480    2.6220  -32.9820 C.3   315  LEU315      0.0270
    113  CG         7.0300    3.9760  -32.8150 C.3   315  LEU315      0.0019
    114  CD1        8.4230    3.8080  -32.1810 C.3   315  LEU315      0.0001
    115  CD2        7.1510    4.6530  -34.1520 C.3   315  LEU315      0.0001
    116  N          8.3260   -0.3650  -40.7460 N.3   323  THR323     -0.1218
    117  CA         7.6620    0.1650  -39.5650 C.3   323  THR323      0.1862
    118  C          6.6690    1.2610  -39.9000 C.2   323  THR323      0.2287
    119  O          6.9320    2.1060  -40.7700 O.2   323  THR323     -0.2866
    120  CB         8.7190    0.7180  -38.5870 C.3   323  THR323      0.1770
    121  OG1        9.5570   -0.3600  -38.1630 O.3   323  THR323     -0.2211
    122  CG2        8.0660    1.3530  -37.3580 C.3   323  THR323      0.0375
    123  N          4.6700    4.4200  -38.1020 N.3   325  ALA325     -0.1245
    124  CA         4.5410    5.2950  -36.9360 C.3   325  ALA325      0.1562
    125  C          3.3130    6.1600  -37.1390 C.2   325  ALA325      0.2260
    126  O          3.0990    6.7020  -38.2380 O.2   325  ALA325     -0.2867
    127  CB         5.7870    6.1730  -36.7930 C.3   325  ALA325      0.0290
@<TRIPOS>BOND
     1    50    49    2
     2    49    48    1
     3    52    51    1
     4    48    47    1
     5    48    51    1
     6    63    62    1
     7    63    64    2
     8    38    39    1
     9    47    40   am
    10    41    40    2
    11    40    39    1
    12    62    61    1
    13    62    65    1
    14    69    70    1
    15    39    42    1
    16    70    71    1
    17    65    66    1
    18    36    35    2
    19    20    19    2
    20    35    34    1
    21    71    72    2
    22    42    43    1
    23    19    18    1
    24    25    24    2
    25    67    66   ar
    26    66    68   ar
    27    43    44    1
    28    22    23    1
    29    58    59    1
    30    58    57    1
    31    55    54    1
    32    55    56    2
    33    54    57    1
    34    54    53    1
    35    24    23    1
    36    24    33   am
    37    21    18    1
    38    23    26    1
    39    34    33    1
    40    34    37    1
    41    18    17    1
    42    59    60    1
    43   119   118    2
    44   116   117    1
    45    44    46   ar
    46    44    45   ar
    47    73    74    1
    48    26    27    1
    49   118   117    1
    50    17    11   am
    51   117   120    1
    52    12    11    2
    53    27    28    1
    54    11    10    1
    55    74    75    1
    56     4     3    2
    57   120   121    1
    58   120   122    1
    59     3     2    1
    60   126   125    2
    61     9    10    1
    62    28    29    1
    63   123   124    1
    64    10    13    1
    65    76    75    2
    66    29    30    2
    67    75    77   am
    68     5     2    1
    69     5     6    1
    70     2     1    1
    71   125   124    1
    72   124   127    1
    73    13    14    1
    74    30    32    1
    75    30    31    1
    76    77    78    1
    77     7     6    1
    78     6     8    1
    79    14    15    2
    80    14    16   am
    81    78    79    1
    82    78    81    1
    83    80    79    2
    84    81    82    1
    85    81    83    1
    86   115   113    1
    87   110   109    1
    88   110   111    2
    89   109   112    1
    90   109   108    1
    91   112   113    1
    92   113   114    1
    93   107   105    1
    94    91    89    1
    95    98    97    1
    96   106   105    1
    97   105   104    1
    98    89    88    1
    99    99    97    1
   100    97    96    1
   101   104   101    1
   102    88    90    1
   103    88    85    1
   104   101   100    1
   105   101   102    1
   106    96    93    1
   107    85    84    1
   108    85    86    1
   109   103   102    2
   110    87    86    2
   111    93    94    1
   112    93    92    1
   113    95    94    2
