@<TRIPOS>MOLECULE
tmp/4mpgB00.pdb
 131 123 0 0 0
SMALL
GASTEIGER

@<TRIPOS>ATOM
      1  N         16.6890   66.4990   30.1390 N.3    18  VAL18      -0.1231
      2  CA        16.1950   65.3490   29.3480 C.3    18  VAL18       0.1692
      3  C         15.9960   65.7500   27.8620 C.2    18  VAL18       0.2593
      4  O         16.0000   64.8900   26.9670 O.2    18  VAL18      -0.2718
      5  CB        14.9110   64.7310   29.9750 C.3    18  VAL18       0.0266
      6  CG1       13.6830   65.5880   29.7050 C.3    18  VAL18       0.0020
      7  CG2       14.6640   63.3310   29.4320 C.3    18  VAL18       0.0020
      8  N         15.8580   67.0610   27.6220 N.am   19  SER19      -0.1938
      9  CA        15.6880   67.6530   26.2880 C.3    19  SER19       0.2055
     10  C         17.0210   67.9530   25.5960 C.2    19  SER19       0.2642
     11  O         17.9270   68.5620   26.1730 O.2    19  SER19      -0.2714
     12  CB        14.8480   68.9400   26.3880 C.3    19  SER19       0.2130
     13  OG        15.0960   69.8360   25.3120 O.3    19  SER19      -0.2179
     14  N         17.1070   67.5590   24.3330 N.am   20  GLN20      -0.1976
     15  CA        18.3370   67.6740   23.5430 C.3    20  GLN20       0.1601
     16  C         18.7350   69.1380   23.2620 C.2    20  GLN20       0.2287
     17  O         19.8900   69.5040   23.4420 O.2    20  GLN20      -0.2864
     18  CB        18.2080   66.9030   22.2060 C.3    20  GLN20       0.0394
     19  CG        17.6830   65.4670   22.3320 C.3    20  GLN20       0.0908
     20  CD        16.1830   65.3550   22.1430 C.2    20  GLN20       0.2608
     21  OE1       15.4320   66.1730   22.6540 O.2    20  GLN20      -0.2717
     22  NE2       15.7400   64.3540   21.3910 N.am   20  GLN20      -0.0878
     23  N          9.6680   68.4860   32.1320 N.3    43  LEU43      -0.1231
     24  CA         8.8580   68.0300   30.9980 C.3    43  LEU43       0.1693
     25  C          7.9740   66.8330   31.3300 C.2    43  LEU43       0.2591
     26  O          6.7800   66.8290   31.0280 O.2    43  LEU43      -0.2718
     27  CB         9.7670   67.6610   29.8210 C.3    43  LEU43       0.0284
     28  CG        10.4470   68.8570   29.1310 C.3    43  LEU43       0.0019
     29  CD1       11.5370   68.3860   28.1760 C.3    43  LEU43       0.0001
     30  CD2        9.4190   69.7230   28.3940 C.3    43  LEU43       0.0001
     31  N          8.5390   65.8070   31.9460 N.am   44  VAL44      -0.1980
     32  CA         7.7310   64.5980   32.1770 C.3    44  VAL44       0.1595
     33  C          6.5590   64.9220   33.1090 C.2    44  VAL44       0.2287
     34  O          5.4460   64.4450   32.8990 O.2    44  VAL44      -0.2864
     35  CB         8.5910   63.4200   32.6890 C.3    44  VAL44       0.0276
     36  CG1        7.7280   62.1980   32.9390 C.3    44  VAL44       0.0022
     37  CG2        9.6930   63.1060   31.6690 C.3    44  VAL44       0.0022
     38  N          6.0530   72.5740   31.7770 N.3    48  HIS48      -0.1241
     39  CA         6.0660   73.3710   30.5490 C.3    48  HIS48       0.1621
     40  C          4.6750   73.7490   30.0470 C.2    48  HIS48       0.2264
     41  O          4.5370   74.6660   29.2280 O.2    48  HIS48      -0.2867
     42  CB         6.8860   72.6650   29.4240 C.3    48  HIS48       0.0745
     43  CG         6.3480   71.3290   28.9880 C.ar   48  HIS48       0.0817
     44  ND1        6.1510   70.2670   29.8500 N.ar   48  HIS48      -0.2268
     45  CD2        6.0060   70.8760   27.7590 C.ar   48  HIS48       0.1154
     46  CE1        5.6850   69.2300   29.1740 C.ar   48  HIS48       0.1986
     47  NE2        5.5970   69.5710   27.8990 N.ar   48  HIS48      -0.2212
     48  N         16.3030   66.3210   14.0400 N.3   114  ARG114     -0.1245
     49  CA        15.2780   66.6880   14.9890 C.3   114  ARG114      0.1563
     50  C         13.9780   66.0190   14.6080 C.2   114  ARG114      0.2260
     51  O         13.5540   66.0800   13.4570 O.2   114  ARG114     -0.2867
     52  CB        15.0900   68.2040   15.0350 C.3   114  ARG114      0.0307
     53  CG        14.0510   68.6770   16.0450 C.3   114  ARG114      0.0489
     54  CD        14.4960   68.3680   17.4680 C.3   114  ARG114      0.2205
     55  NE        13.4570   68.6740   18.4470 N.pl3 114  ARG114     -0.0865
     56  CZ        13.4770   68.2910   19.7210 C.cat 114  ARG114      0.5346
     57  NH1       14.4700   67.5570   20.2140 N.pl3 114  ARG114      0.1354
     58  NH2       12.4720   68.6260   20.5110 N.pl3 114  ARG114      0.1354
     59  N         14.9280   61.4790   18.5360 N.3   118  GLY118     -0.1225
     60  CA        14.3050   61.4620   19.8550 C.3   118  GLY118      0.1811
     61  C         13.2490   60.3750   20.0290 C.2   118  GLY118      0.2280
     62  O         12.8180   60.1090   21.1410 O.2   118  GLY118     -0.2866
     63  N         13.1670   57.4950   22.9040 N.3   121  LEU121     -0.1231
     64  CA        12.6810   57.8280   24.2570 C.3   121  LEU121      0.1693
     65  C         11.1620   57.6610   24.3700 C.2   121  LEU121      0.2592
     66  O         10.6540   57.2290   25.4130 O.2   121  LEU121     -0.2718
     67  CB        13.0780   59.2520   24.6580 C.3   121  LEU121      0.0284
     68  CG        12.7750   59.6240   26.1210 C.3   121  LEU121      0.0019
     69  CD1       13.6070   58.8260   27.1230 C.3   121  LEU121      0.0001
     70  CD2       12.9830   61.1030   26.3400 C.3   121  LEU121      0.0001
     71  N         10.4470   58.0230   23.3120 N.am  122  TRP122     -0.1976
     72  CA         8.9910   57.8440   23.2410 C.3   122  TRP122      0.1640
     73  C          8.6130   56.3800   23.1910 C.2   122  TRP122      0.2290
     74  O          7.6640   55.9590   23.8530 O.2   122  TRP122     -0.2864
     75  CB         8.3950   58.5860   22.0480 C.3   122  TRP122      0.0576
     76  CG         8.5320   60.0490   22.2490 C.ar  122  TRP122      0.0006
     77  CD1        9.5740   60.8370   21.8480 C.ar  122  TRP122      0.0946
     78  CD2        7.6430   60.8930   22.9680 C.ar  122  TRP122      0.0152
     79  NE1        9.3800   62.1200   22.2590 N.ar  122  TRP122     -0.2442
     80  CE2        8.2010   62.1870   22.9580 C.ar  122  TRP122      0.0810
     81  CE3        6.4120   60.6910   23.5990 C.ar  122  TRP122      0.0012
     82  CZ2        7.5700   63.2750   23.5540 C.ar  122  TRP122      0.0191
     83  CZ3        5.7970   61.7700   24.2030 C.ar  122  TRP122      0.0001
     84  CH2        6.3700   63.0440   24.1730 C.ar  122  TRP122      0.0015
     85  N          8.4320   57.0670   27.3550 N.3   126  LEU126     -0.1245
     86  CA         7.3290   58.0290   27.5340 C.3   126  LEU126      0.1561
     87  C          5.9760   57.5140   27.1080 C.2   126  LEU126      0.2260
     88  O          4.9790   57.7910   27.7700 O.2   126  LEU126     -0.2867
     89  CB         7.6310   59.3110   26.7830 C.3   126  LEU126      0.0270
     90  CG         8.8490   60.0860   27.2870 C.3   126  LEU126      0.0019
     91  CD1        9.1250   61.2580   26.3580 C.3   126  LEU126      0.0001
     92  CD2        8.6400   60.5730   28.7140 C.3   126  LEU126      0.0001
     93  N         20.5500   61.0960   22.5980 N.3   182  GLN182     -0.1245
     94  CA        19.2460   60.6380   23.0840 C.3   182  GLN182      0.1566
     95  C         19.0880   59.1360   22.8610 C.2   182  GLN182      0.2260
     96  O         18.7920   58.4100   23.8140 O.2   182  GLN182     -0.2867
     97  CB        18.0690   61.4270   22.4750 C.3   182  GLN182      0.0367
     98  CG        16.8070   61.4310   23.3410 C.3   182  GLN182      0.0905
     99  CD        16.8180   62.5280   24.4130 C.2   182  GLN182      0.2608
    100  OE1       17.8660   62.9140   24.9130 O.2   182  GLN182     -0.2717
    101  NE2       15.6420   63.0480   24.7410 N.am  182  GLN182     -0.0878
    102  N          1.6530   64.5390   24.9100 N.3   243  MET243     -0.1245
    103  CA         2.3780   63.3130   24.6700 C.3   243  MET243      0.1570
    104  C          1.6450   62.4830   23.6200 C.2   243  MET243      0.2261
    105  O          2.2790   61.9350   22.7290 O.2   243  MET243     -0.2867
    106  CB         2.5840   62.5280   25.9850 C.3   243  MET243      0.0387
    107  CG         3.6020   63.1690   26.8960 C.3   243  MET243      0.0595
    108  SD         3.5280   62.5470   28.6000 S.3   243  MET243     -0.1393
    109  CE         4.3840   60.9870   28.4330 C.3   243  MET243      0.0692
    110  N          2.3310   63.9610   20.2330 N.3   246  ARG246     -0.1245
    111  CA         3.6880   63.6730   19.7560 C.3   246  ARG246      0.1563
    112  C          3.7680   62.2320   19.2710 C.2   246  ARG246      0.2260
    113  O          4.3400   61.9540   18.2100 O.2   246  ARG246     -0.2867
    114  CB         4.7550   63.9290   20.8260 C.3   246  ARG246      0.0307
    115  CG         6.1800   64.0630   20.2710 C.3   246  ARG246      0.0489
    116  CD         6.8280   62.7240   19.9060 C.3   246  ARG246      0.2205
    117  NE         7.9720   62.8600   19.0020 N.pl3 246  ARG246     -0.0865
    118  CZ         7.8720   62.9360   17.6760 C.cat 246  ARG246      0.5346
    119  NH1        8.9660   63.0600   16.9360 N.pl3 246  ARG246      0.1354
    120  NH2        6.6790   62.8990   17.0870 N.pl3 246  ARG246      0.1354
    121  N          2.3300   61.7340   15.9450 N.3   249  ARG249     -0.1245
    122  CA         3.1630   62.3200   14.8760 C.3   249  ARG249      0.1563
    123  C          4.2550   61.3630   14.4140 C.2   249  ARG249      0.2260
    124  O          4.9390   61.6440   13.4290 O.2   249  ARG249     -0.2867
    125  CB         3.8800   63.6180   15.3320 C.3   249  ARG249      0.0307
    126  CG         3.0400   64.8680   15.3750 C.3   249  ARG249      0.0489
    127  CD         3.8800   66.1410   15.2170 C.3   249  ARG249      0.2205
    128  NE         4.8130   66.4640   16.3080 N.pl3 249  ARG249     -0.0865
    129  CZ         4.4780   66.8960   17.5370 C.cat 249  ARG249      0.5346
    130  NH1        5.4390   67.1850   18.3990 N.pl3 249  ARG249      0.1354
    131  NH2        3.2090   67.0220   17.9430 N.pl3 249  ARG249      0.1354
@<TRIPOS>BOND
     1   124   123    2
     2    51    50    2
     3    48    49    1
     4   123   122    1
     5    50    49    1
     6   122   125    1
     7   122   121    1
     8    49    52    1
     9    52    53    1
    10   127   126    1
    11   127   128    1
    12   125   126    1
    13    53    54    1
    14   128   129    2
    15   119   118    1
    16   120   118    1
    17    54    55    1
    18   129   131    1
    19   129   130    1
    20   118   117    2
    21   113   112    2
    22    55    56    2
    23    59    60    1
    24   117   116    1
    25   112   111    1
    26    56    57    1
    27    56    58    1
    28   111   110    1
    29   111   114    1
    30    60    61    1
    31   116   115    1
    32    61    62    2
    33   115   114    1
    34    22    20   am
    35    77    76   ar
    36    77    79   ar
    37    75    76    1
    38    75    72    1
    39    20    19    1
    40    20    21    2
    41    18    19    1
    42    18    15    1
    43    76    78   ar
    44    79    80   ar
    45    97    94    1
    46    97    98    1
    47    93    94    1
    48   105   104    2
    49    95    94    1
    50    95    96    2
    51    63    64    1
    52    80    78   ar
    53    80    82   ar
    54    78    81   ar
    55    73    72    1
    56    73    74    2
    57    72    71    1
    58    16    17    2
    59    16    15    1
    60    71    65   am
    61    98    99    1
    62    15    14    1
    63    82    84   ar
    64    81    83   ar
    65   104   103    1
    66    84    83   ar
    67    64    65    1
    68    64    67    1
    69    14    10   am
    70    65    66    2
    71    99   101   am
    72    99   100    2
    73    67    68    1
    74   103   102    1
    75   103   106    1
    76    13    12    1
    77    10    11    2
    78    10     9    1
    79   106   107    1
    80    68    70    1
    81    68    69    1
    82     9    12    1
    83     9     8    1
    84    91    90    1
    85    89    90    1
    86    89    86    1
    87   107   108    1
    88     4     3    2
    89    87    86    1
    90    87    88    2
    91    90    92    1
    92    85    86    1
    93     8     3   am
    94    45    47   ar
    95    45    43   ar
    96     3     2    1
    97    47    46   ar
    98    29    28    1
    99    30    28    1
   100   109   108    1
   101    43    42    1
   102    43    44   ar
   103    28    27    1
   104    46    44   ar
   105    41    40    2
   106     2     5    1
   107     2     1    1
   108    42    39    1
   109     7     5    1
   110     6     5    1
   111    27    24    1
   112    40    39    1
   113    39    38    1
   114    24    25    1
   115    24    23    1
   116    26    25    2
   117    25    31   am
   118    37    35    1
   119    31    32    1
   120    32    35    1
   121    32    33    1
   122    35    36    1
   123    34    33    2
