@<TRIPOS>MOLECULE
tmp/4mpkA01.pdb
 130 130 0 0 0
SMALL
GASTEIGER

@<TRIPOS>ATOM
      1  N         13.3590    1.1480  -10.5140 N.3     8  THR8       -0.1218
      2  CA        13.8820    2.4220  -10.9840 C.3     8  THR8        0.1862
      3  C         12.8370    3.3170  -11.5910 C.2     8  THR8        0.2287
      4  O         12.0630    2.8930  -12.4510 O.2     8  THR8       -0.2866
      5  CB        14.9300    2.2120  -12.0440 C.3     8  THR8        0.1770
      6  OG1       14.3600    1.4500  -13.1250 O.3     8  THR8       -0.2211
      7  CG2       16.1070    1.5010  -11.4250 C.3     8  THR8        0.0375
      8  N         12.8830    5.8250  -13.7250 N.3    10  TRP10      -0.1241
      9  CA        12.9150    6.2650  -15.0960 C.3    10  TRP10       0.1605
     10  C         12.4830    5.1600  -16.0380 C.2    10  TRP10       0.2264
     11  O         12.3950    5.3860  -17.2200 O.2    10  TRP10      -0.2867
     12  CB        14.3140    6.8110  -15.4300 C.3    10  TRP10       0.0550
     13  CG        15.3950    5.8170  -15.2490 C.ar   10  TRP10       0.0003
     14  CD1       15.8760    4.9770  -16.1820 C.ar   10  TRP10       0.0946
     15  CD2       16.0950    5.5250  -14.0390 C.ar   10  TRP10       0.0152
     16  NE1       16.8590    4.1760  -15.6470 N.ar   10  TRP10      -0.2442
     17  CE2       17.0050    4.4820  -14.3280 C.ar   10  TRP10       0.0810
     18  CE3       16.0320    6.0370  -12.7290 C.ar   10  TRP10       0.0012
     19  CZ2       17.8640    3.9530  -13.3790 C.ar   10  TRP10       0.0191
     20  CZ3       16.8730    5.5070  -11.7720 C.ar   10  TRP10       0.0001
     21  CH2       17.7930    4.4730  -12.1030 C.ar   10  TRP10       0.0015
     22  N         10.0980    4.1720  -20.8710 N.3    14  ARG14      -0.1245
     23  CA        10.5020    3.3110  -21.9660 C.3    14  ARG14       0.1563
     24  C          9.3590    2.9800  -22.9120 C.2    14  ARG14       0.2260
     25  O          8.2080    2.8560  -22.4960 O.2    14  ARG14      -0.2867
     26  CB        11.1650    2.0510  -21.4140 C.3    14  ARG14       0.0307
     27  CG        12.5600    2.3340  -20.8610 C.3    14  ARG14       0.0489
     28  CD        13.1290    1.1510  -20.1020 C.3    14  ARG14       0.2205
     29  NE        14.2770    1.5410  -19.2720 N.pl3  14  ARG14      -0.0865
     30  CZ        14.6630    0.9090  -18.1620 C.cat  14  ARG14       0.5346
     31  NH1       14.0030   -0.1680  -17.7150 N.pl3  14  ARG14       0.1354
     32  NH2       15.7150    1.3720  -17.4830 N.pl3  14  ARG14       0.1354
     33  N         23.7440    7.6310   -9.4000 N.3    78  TRP78      -0.1241
     34  CA        24.8070    8.1380  -10.2190 C.3    78  TRP78       0.1605
     35  C         24.4950    9.4340  -10.9170 C.2    78  TRP78       0.2264
     36  O         25.3670   10.1870  -11.2370 O.2    78  TRP78      -0.2867
     37  CB        25.2140    7.0880  -11.2290 C.3    78  TRP78       0.0550
     38  CG        24.1950    6.7470  -12.1730 C.ar   78  TRP78       0.0003
     39  CD1       23.9070    7.3880  -13.3190 C.ar   78  TRP78       0.0946
     40  CD2       23.3310    5.6420  -12.1140 C.ar   78  TRP78       0.0152
     41  NE1       22.9110    6.7730  -13.9710 N.ar   78  TRP78      -0.2442
     42  CE2       22.5340    5.6850  -13.2460 C.ar   78  TRP78       0.0810
     43  CE3       23.1410    4.6230  -11.2050 C.ar   78  TRP78       0.0012
     44  CZ2       21.5610    4.7450  -13.4960 C.ar   78  TRP78       0.0191
     45  CZ3       22.1890    3.7020  -11.4560 C.ar   78  TRP78       0.0001
     46  CH2       21.4080    3.7630  -12.5860 C.ar   78  TRP78       0.0015
     47  N         20.6530   -7.5970  -15.8580 N.3   239  PHE239     -0.1241
     48  CA        20.9210   -7.0020  -17.1320 C.3   239  PHE239      0.1605
     49  C         22.2030   -7.5890  -17.6590 C.2   239  PHE239      0.2264
     50  O         22.8860   -8.3200  -16.9510 O.2   239  PHE239     -0.2867
     51  CB        21.0540   -5.4870  -16.9940 C.3   239  PHE239      0.0534
     52  CG        22.1220   -5.0670  -16.0560 C.ar  239  PHE239     -0.0203
     53  CD1       21.8510   -4.8890  -14.7060 C.ar  239  PHE239     -0.0042
     54  CD2       23.4100   -4.8730  -16.5060 C.ar  239  PHE239     -0.0042
     55  CE1       22.8470   -4.4920  -13.8300 C.ar  239  PHE239     -0.0003
     56  CE2       24.4120   -4.4950  -15.6320 C.ar  239  PHE239     -0.0003
     57  CZ        24.1260   -4.2980  -14.2880 C.ar  239  PHE239     -0.0000
     58  N         15.6260   -0.2180  -23.8450 N.3   266  THR266     -0.1203
     59  CA        16.4730    0.4490  -22.8600 C.3   266  THR266      0.1994
     60  C         17.3150    1.5860  -23.4350 C.2   266  THR266      0.2618
     61  O         17.6760    2.4950  -22.7120 O.2   266  THR266     -0.2717
     62  CB        17.4720   -0.5540  -22.2260 C.3   266  THR266      0.1784
     63  OG1       18.0720   -1.3590  -23.2440 O.3   266  THR266     -0.2211
     64  CG2       16.7680   -1.4840  -21.3120 C.3   266  THR266      0.0376
     65  N         17.6320    1.5260  -24.7270 N.am  267  LYS267     -0.1965
     66  CA        18.1420    2.6750  -25.5120 C.3   267  LYS267      0.1728
     67  C         19.3590    3.3320  -24.8980 C.2   267  LYS267      0.2616
     68  O         19.4780    4.5570  -24.7910 O.2   267  LYS267     -0.2715
     69  CB        17.0350    3.7050  -25.7520 C.3   267  LYS267      0.0311
     70  CG        16.2630    3.3970  -26.9960 C.3   267  LYS267      0.0038
     71  CD        14.9390    4.1030  -27.0470 C.3   267  LYS267      0.0206
     72  CE        14.2620    3.6770  -28.3370 C.3   267  LYS267      0.1093
     73  NZ        12.9060    4.2830  -28.4780 N.3   267  LYS267     -0.1314
     74  N         20.2870    2.4840  -24.5080 N.am  268  TRP268     -0.1974
     75  CA        21.4650    2.9570  -23.8520 C.3   268  TRP268      0.1640
     76  C         22.6120    2.0780  -24.2950 C.2   268  TRP268      0.2290
     77  O         22.5420    0.8770  -24.1680 O.2   268  TRP268     -0.2864
     78  CB        21.2540    2.9640  -22.3260 C.3   268  TRP268      0.0576
     79  CG        22.4050    3.5450  -21.6230 C.ar  268  TRP268      0.0006
     80  CD1       23.1220    2.9690  -20.6180 C.ar  268  TRP268      0.0946
     81  CD2       23.0490    4.8050  -21.9110 C.ar  268  TRP268      0.0152
     82  NE1       24.1690    3.7930  -20.2450 N.ar  268  TRP268     -0.2442
     83  CE2       24.1460    4.9240  -21.0220 C.ar  268  TRP268      0.0810
     84  CE3       22.8030    5.8430  -22.8280 C.ar  268  TRP268      0.0012
     85  CZ2       24.9900    6.0430  -21.0170 C.ar  268  TRP268      0.0191
     86  CZ3       23.6470    6.9470  -22.8260 C.ar  268  TRP268      0.0001
     87  CH2       24.7260    7.0390  -21.9240 C.ar  268  TRP268      0.0015
     88  N         24.3800   -1.5930  -22.4910 N.3   271  ILE271     -0.1245
     89  CA        23.4980   -2.3070  -21.5830 C.3   271  ILE271      0.1561
     90  C         22.3190   -2.9260  -22.3450 C.2   271  ILE271      0.2260
     91  O         21.7900   -2.3290  -23.2660 O.2   271  ILE271     -0.2867
     92  CB        22.8770   -1.3390  -20.5430 C.3   271  ILE271      0.0252
     93  CG1       23.9390   -0.5440  -19.7900 C.3   271  ILE271      0.0019
     94  CG2       21.9860   -2.0790  -19.5540 C.3   271  ILE271      0.0019
     95  CD1       24.6790   -1.3610  -18.7540 C.3   271  ILE271      0.0001
     96  N         19.2620   -6.1280   -9.1570 N.3   330  TRP330     -0.1227
     97  CA        19.2190   -4.9040   -9.8710 C.3   330  TRP330      0.1737
     98  C         19.0160   -5.3270  -11.2740 C.2   330  TRP330      0.2595
     99  O         19.9510   -5.8850  -11.8350 O.2   330  TRP330     -0.2718
    100  CB        20.5270   -4.1060   -9.7430 C.3   330  TRP330      0.0564
    101  CG        20.4130   -2.8190  -10.4630 C.ar  330  TRP330      0.0003
    102  CD1       20.4870   -2.6390  -11.8050 C.ar  330  TRP330      0.0946
    103  CD2       20.1290   -1.5350   -9.9010 C.ar  330  TRP330      0.0152
    104  NE1       20.2920   -1.3260  -12.1160 N.ar  330  TRP330     -0.2442
    105  CE2       20.0530   -0.6260  -10.9650 C.ar  330  TRP330      0.0810
    106  CE3       19.9230   -1.0680   -8.6050 C.ar  330  TRP330      0.0012
    107  CZ2       19.7990    0.7140  -10.7750 C.ar  330  TRP330      0.0191
    108  CZ3       19.6670    0.2930   -8.4140 C.ar  330  TRP330      0.0001
    109  CH2       19.6240    1.1620   -9.4880 C.ar  330  TRP330      0.0015
    110  N         17.8370   -5.0810  -11.8640 N.am  331  ALA331     -0.1980
    111  CA        16.6250   -4.4860  -11.2090 C.3   331  ALA331      0.1597
    112  C         15.3500   -5.0550  -11.8140 C.2   331  ALA331      0.2287
    113  O         15.3690   -5.6250  -12.8870 O.2   331  ALA331     -0.2864
    114  CB        16.6110   -2.9800  -11.3530 C.3   331  ALA331      0.0319
    115  N         12.7490   -3.8330  -13.2860 N.3   333  ASP333     -0.1225
    116  CA        12.3390   -3.3650  -14.6170 C.3   333  ASP333      0.1805
    117  C         13.2050   -3.8880  -15.7420 C.2   333  ASP333      0.2597
    118  O         12.8830   -3.7210  -16.9160 O.2   333  ASP333     -0.2718
    119  CB        12.2810   -1.8510  -14.6660 C.3   333  ASP333      0.1424
    120  CG        13.4740   -1.1720  -13.9900 C.2   333  ASP333      0.3668
    121  OD1       14.4130   -0.7850  -14.7150 O.co2 333  ASP333     -0.2456
    122  OD2       13.4440   -0.9990  -12.7340 O.co2 333  ASP333     -0.2456
    123  N         14.3160   -4.5140  -15.3820 N.am  334  LEU334     -0.1979
    124  CA        15.2590   -5.0630  -16.3550 C.3   334  LEU334      0.1596
    125  C         15.1730   -6.5540  -16.4530 C.2   334  LEU334      0.2287
    126  O         15.8700   -7.1470  -17.2410 O.2   334  LEU334     -0.2864
    127  CB        16.6750   -4.6780  -15.9610 C.3   334  LEU334      0.0297
    128  CG        16.8980   -3.1950  -16.0510 C.3   334  LEU334      0.0022
    129  CD1       18.2800   -2.9020  -15.5620 C.3   334  LEU334      0.0001
    130  CD2       16.7350   -2.6690  -17.4600 C.3   334  LEU334      0.0001
@<TRIPOS>BOND
     1    73    72    1
     2    72    71    1
     3    71    70    1
     4    70    69    1
     5    69    66    1
     6    66    67    1
     7    66    65    1
     8    67    68    2
     9    67    74   am
    10    65    60   am
    11    74    75    1
    12    76    77    2
    13    76    75    1
    14    75    78    1
    15    58    59    1
    16    60    59    1
    17    60    61    2
    18    91    90    2
    19    63    62    1
    20    24    25    2
    21    24    23    1
    22    59    62    1
    23    84    86   ar
    24    84    81   ar
    25    86    87   ar
    26    88    89    1
    27    90    89    1
    28    78    79    1
    29    62    64    1
    30    23    26    1
    31    23    22    1
    32    87    85   ar
    33    81    79   ar
    34    81    83   ar
    35    79    80   ar
    36    89    92    1
    37    26    27    1
    38    83    85   ar
    39    83    82   ar
    40    27    28    1
    41    80    82   ar
    42    92    93    1
    43    92    94    1
    44    28    29    1
    45    93    95    1
    46    29    30    2
    47    30    31    1
    48    30    32    1
    49    49    48    1
    50    49    50    2
    51   130   128    1
    52   126   125    2
    53    11    10    2
    54    48    51    1
    55    48    47    1
    56    51    52    1
    57   118   117    2
    58    54    52   ar
    59    54    56   ar
    60   125   124    1
    61   124   127    1
    62   124   123    1
    63    14    16   ar
    64    14    13   ar
    65    52    53   ar
    66   128   127    1
    67   128   129    1
    68    10     9    1
    69   117   123   am
    70   117   116    1
    71    16    17   ar
    72    56    57   ar
    73    12    13    1
    74    12     9    1
    75    13    15   ar
    76     9     8    1
    77   121   120   ar
    78    53    55   ar
    79   119   116    1
    80   119   120    1
    81   116   115    1
    82    17    15   ar
    83    17    19   ar
    84    57    55   ar
    85    15    18   ar
    86   120   122   ar
    87    41    39   ar
    88    41    42   ar
    89    44    42   ar
    90    44    46   ar
    91    19    21   ar
    92    39    38   ar
    93    42    40   ar
    94     6     5    1
    95   113   112    2
    96    18    20   ar
    97    46    45   ar
    98     4     3    2
    99    38    40   ar
   100    38    37    1
   101   104   102   ar
   102   104   105   ar
   103    40    43   ar
   104    21    20   ar
   105     5     7    1
   106     5     2    1
   107   110    98   am
   108   110   111    1
   109    99    98    2
   110   112   111    1
   111   102   101   ar
   112     3     2    1
   113    45    43   ar
   114   114   111    1
   115    98    97    1
   116    36    35    2
   117    37    34    1
   118     2     1    1
   119   105   107   ar
   120   105   103   ar
   121    35    34    1
   122   107   109   ar
   123   101   103   ar
   124   101   100    1
   125    34    33    1
   126   103   106   ar
   127    97   100    1
   128    97    96    1
   129   109   108   ar
   130   106   108   ar
