@<TRIPOS>MOLECULE
tmp/4mpoB00.pdb
 140 137 0 0 0
SMALL
GASTEIGER

@<TRIPOS>ATOM
      1  N       -194.1390  -99.5890  471.9340 N.3    33  HIS33      -0.1241
      2  CA      -195.0110 -100.7200  472.2360 C.3    33  HIS33       0.1621
      3  C       -194.2000 -102.0210  472.2870 C.2    33  HIS33       0.2264
      4  O       -193.5730 -102.4200  471.2900 O.2    33  HIS33      -0.2867
      5  CB      -196.1290 -100.8170  471.1920 C.3    33  HIS33       0.0745
      6  CG      -197.0210  -99.6070  471.1160 C.ar   33  HIS33       0.0817
      7  ND1     -198.1580  -99.4740  471.8850 N.ar   33  HIS33      -0.2268
      8  CD2     -196.9650  -98.4970  470.3410 C.ar   33  HIS33       0.1154
      9  CE1     -198.7510  -98.3250  471.6060 C.ar   33  HIS33       0.1986
     10  NE2     -198.0540  -97.7190  470.6610 N.ar   33  HIS33      -0.2212
     11  N       -195.1960 -104.9430  472.0340 N.3    35  ASP35      -0.1225
     12  CA      -195.6610 -105.8210  470.9620 C.3    35  ASP35       0.1805
     13  C       -195.5900 -105.0570  469.6440 C.2    35  ASP35       0.2598
     14  O       -196.5290 -104.3660  469.2540 O.2    35  ASP35      -0.2718
     15  CB      -197.0840 -106.3110  471.2350 C.3    35  ASP35       0.1424
     16  CG      -197.1680 -107.2110  472.4580 C.2    35  ASP35       0.3668
     17  OD1     -196.8760 -108.4180  472.3240 O.co2  35  ASP35      -0.2456
     18  OD2     -197.5270 -106.7190  473.5490 O.co2  35  ASP35      -0.2456
     19  N       -194.4690 -105.2010  468.9350 N.am   36  GLY36      -0.1957
     20  CA      -194.2780 -104.5970  467.6260 C.3    36  GLY36       0.1869
     21  C       -193.0910 -103.6580  467.5630 C.2    36  GLY36       0.2309
     22  O       -192.5400 -103.4410  466.4780 O.2    36  GLY36      -0.2863
     23  N       -193.0410 -100.5210  467.6690 N.3    38  HIS38      -0.1241
     24  CA      -193.3520  -99.2280  467.0660 C.3    38  HIS38       0.1621
     25  C       -193.6980  -98.2160  468.1550 C.2    38  HIS38       0.2264
     26  O       -194.0330  -98.5770  469.2880 O.2    38  HIS38      -0.2867
     27  CB      -194.5040  -99.3450  466.0570 C.3    38  HIS38       0.0745
     28  CG      -195.7960  -99.8370  466.6500 C.ar   38  HIS38       0.0817
     29  ND1     -195.9500 -101.1170  467.1360 N.ar   38  HIS38      -0.2268
     30  CD2     -197.0010  -99.2260  466.8110 C.ar   38  HIS38       0.1154
     31  CE1     -197.1880 -101.2750  467.5800 C.ar   38  HIS38       0.1986
     32  NE2     -197.8430 -100.1390  467.4070 N.ar   38  HIS38      -0.2212
     33  N       -202.5890  -96.1780  474.9300 N.3    43  LYS43      -0.1245
     34  CA      -203.9750  -96.3820  474.5130 C.3    43  LYS43       0.1561
     35  C       -204.3970  -97.7800  474.9420 C.2    43  LYS43       0.2260
     36  O       -203.5560  -98.6450  475.2110 O.2    43  LYS43      -0.2867
     37  CB      -204.1120  -96.2360  472.9910 C.3    43  LYS43       0.0271
     38  CG      -203.3440  -97.3270  472.2080 C.3    43  LYS43       0.0035
     39  CD      -203.4910  -97.1810  470.7130 C.3    43  LYS43       0.0206
     40  CE      -202.9770  -98.4110  469.9780 C.3    43  LYS43       0.1093
     41  NZ      -201.7830  -98.0860  469.1730 N.3    43  LYS43      -0.1314
     42  N       -207.5870  -91.6190  464.7490 N.3    78  GLU78      -0.1245
     43  CA      -206.9260  -92.3420  463.6620 C.3    78  GLU78       0.1567
     44  C       -207.6330  -93.6610  463.3720 C.2    78  GLU78       0.2260
     45  O       -208.1320  -94.3400  464.2800 O.2    78  GLU78      -0.2867
     46  CB      -205.4330  -92.6600  463.9570 C.3    78  GLU78       0.0388
     47  CG      -205.1830  -93.4870  465.2200 C.3    78  GLU78       0.1160
     48  CD      -203.7320  -93.9510  465.3460 C.2    78  GLU78       0.3649
     49  OE1     -202.9540  -93.7500  464.3850 O.co2  78  GLU78      -0.2457
     50  OE2     -203.3690  -94.4960  466.4130 O.co2  78  GLU78      -0.2457
     51  N       -206.8620  -97.2410  461.1240 N.3    80  TYR80      -0.1227
     52  CA      -205.8730  -98.0030  460.3710 C.3    80  TYR80       0.1736
     53  C       -206.2430  -99.4790  460.4130 C.2    80  TYR80       0.2596
     54  O       -207.1240  -99.9020  461.1690 O.2    80  TYR80      -0.2718
     55  CB      -204.4480  -97.7510  460.8990 C.3    80  TYR80       0.0548
     56  CG      -204.2280  -98.0520  462.3660 C.ar   80  TYR80      -0.0200
     57  CD1     -203.8990  -99.3350  462.7920 C.ar   80  TYR80      -0.0009
     58  CD2     -204.3280  -97.0580  463.3190 C.ar   80  TYR80      -0.0009
     59  CE1     -203.6940  -99.6200  464.1270 C.ar   80  TYR80       0.0417
     60  CE2     -204.1040  -97.3300  464.6710 C.ar   80  TYR80       0.0417
     61  CZ      -203.7840  -98.6160  465.0620 C.ar   80  TYR80       0.1957
     62  OH      -203.5960  -98.9160  466.3920 O.3    80  TYR80      -0.2866
     63  N       -205.5550 -100.2600  459.5730 N.am   81  SER81      -0.1938
     64  CA      -205.8800 -101.6600  459.3280 C.3    81  SER81       0.2055
     65  C       -204.6310 -102.5200  459.4330 C.2    81  SER81       0.2643
     66  O       -203.5480 -102.1060  459.0320 O.2    81  SER81      -0.2714
     67  CB      -206.4870 -101.8760  457.9280 C.3    81  SER81       0.2130
     68  OG      -207.6840 -101.1480  457.7740 O.3    81  SER81      -0.2179
     69  N       -204.7990 -103.7390  459.9320 N.am   82  PHE82      -0.1959
     70  CA      -203.6910 -104.6910  459.9710 C.3    82  PHE82       0.1771
     71  C       -204.2630 -106.1030  460.0040 C.2    82  PHE82       0.2619
     72  O       -205.4780 -106.3000  460.0940 O.2    82  PHE82      -0.2715
     73  CB      -202.7930 -104.4360  461.1820 C.3    82  PHE82       0.0574
     74  CG      -203.5110 -104.5630  462.4760 C.ar   82  PHE82      -0.0200
     75  CD1     -204.3000 -103.5230  462.9440 C.ar   82  PHE82      -0.0042
     76  CD2     -203.4350 -105.7230  463.2090 C.ar   82  PHE82      -0.0042
     77  CE1     -204.9900 -103.6380  464.1300 C.ar   82  PHE82      -0.0003
     78  CE2     -204.1170 -105.8450  464.3980 C.ar   82  PHE82      -0.0003
     79  CZ      -204.8940 -104.8020  464.8650 C.ar   82  PHE82      -0.0000
     80  N       -203.3660 -107.0890  459.9510 N.am   83  ASN83      -0.1972
     81  CA      -203.7240 -108.5000  460.0340 C.3    83  ASN83       0.1688
     82  C       -203.1830 -109.0750  461.3350 C.2    83  ASN83       0.2292
     83  O       -201.9640 -109.1030  461.5460 O.2    83  ASN83      -0.2864
     84  CB      -203.1910 -109.2590  458.8230 C.3    83  ASN83       0.1181
     85  CG      -203.8290 -108.7930  457.5430 C.2    83  ASN83       0.2629
     86  OD1     -204.9650 -109.1630  457.2380 O.2    83  ASN83      -0.2716
     87  ND2     -203.1230 -107.9510  456.7980 N.am   83  ASN83      -0.0877
     88  N       -202.4700 -111.8120  464.5420 N.3    85  LYS85      -0.1245
     89  CA      -201.7290 -113.0680  464.5690 C.3    85  LYS85       0.1561
     90  C       -202.5490 -114.2450  464.0490 C.2    85  LYS85       0.2260
     91  O       -201.9690 -115.2560  463.6400 O.2    85  LYS85      -0.2867
     92  CB      -201.2520 -113.3530  465.9950 C.3    85  LYS85       0.0271
     93  CG      -200.2080 -112.4800  466.5740 C.3    85  LYS85       0.0035
     94  CD      -198.9300 -112.3460  465.7890 C.3    85  LYS85       0.0206
     95  CE      -198.0590 -111.2030  466.3750 C.3    85  LYS85       0.1093
     96  NZ      -198.9340 -110.0490  466.9150 N.3    85  LYS85      -0.1314
     97  N       -209.0290 -100.9300  462.9460 N.3    92  LYS92      -0.1245
     98  CA      -208.9290 -100.3300  464.2680 C.3    92  LYS92       0.1561
     99  C       -209.1620  -98.8250  464.2020 C.2    92  LYS92       0.2260
    100  O       -208.7630  -98.1670  463.2400 O.2    92  LYS92      -0.2867
    101  CB      -207.5610 -100.6280  464.8840 C.3    92  LYS92       0.0271
    102  CG      -207.4680 -100.2830  466.3550 C.3    92  LYS92       0.0035
    103  CD      -206.4070 -101.1410  467.0200 C.3    92  LYS92       0.0206
    104  CE      -205.9500 -100.5690  468.3370 C.3    92  LYS92       0.1093
    105  NZ      -205.0580 -101.5370  469.0220 N.3    92  LYS92      -0.1314
    106  N       -195.7190  -95.1850  460.7500 N.3   129  PHE129     -0.1228
    107  CA      -197.0470  -95.2960  460.1450 C.3   129  PHE129      0.1721
    108  C       -197.6520  -93.9170  459.8910 C.2   129  PHE129      0.2437
    109  O       -197.6020  -93.0460  460.7690 O.2   129  PHE129     -0.2733
    110  CB      -197.9720  -96.0850  461.0570 C.3   129  PHE129      0.0547
    111  CG      -197.5730  -97.5240  461.2210 C.ar  129  PHE129     -0.0202
    112  CD1     -197.7210  -98.4240  460.1720 C.ar  129  PHE129     -0.0042
    113  CD2     -197.0650  -97.9770  462.4200 C.ar  129  PHE129     -0.0042
    114  CE1     -197.3500  -99.7670  460.3280 C.ar  129  PHE129     -0.0003
    115  CE2     -196.7050  -99.2980  462.5810 C.ar  129  PHE129     -0.0003
    116  CZ      -196.8450 -100.1950  461.5320 C.ar  129  PHE129     -0.0000
    117  N       -198.2790  -93.7000  458.7280 N.am  130  PRO130     -0.2718
    118  CA      -198.7810  -92.3450  458.4210 C.3   130  PRO130      0.1535
    119  C       -199.9110  -91.8670  459.3130 C.2   130  PRO130      0.2598
    120  O       -199.9690  -90.6740  459.6340 O.2   130  PRO130     -0.2715
    121  CB      -199.2370  -92.4620  456.9640 C.3   130  PRO130      0.0310
    122  CG      -199.4840  -93.9320  456.7490 C.3   130  PRO130      0.0237
    123  CD      -198.5290  -94.6600  457.6350 C.3   130  PRO130      0.0939
    124  N       -200.8390  -92.7400  459.7080 N.am  131  GLU131     -0.1964
    125  CA      -201.9710  -92.2700  460.4930 C.3   131  GLU131      0.1733
    126  C       -201.5300  -91.5970  461.8000 C.2   131  GLU131      0.2616
    127  O       -202.0410  -90.5290  462.1450 O.2   131  GLU131     -0.2715
    128  CB      -202.9350  -93.4290  460.7390 C.3   131  GLU131      0.0429
    129  CG      -203.6230  -93.8940  459.4290 C.3   131  GLU131      0.1163
    130  CD      -202.8310  -94.9320  458.6090 C.2   131  GLU131      0.3649
    131  OE1     -201.6320  -95.1470  458.8640 O.co2 131  GLU131     -0.2457
    132  OE2     -203.4250  -95.5630  457.6970 O.co2 131  GLU131     -0.2457
    133  N       -200.5740  -92.1780  462.5310 N.am  132  ILE132     -0.1977
    134  CA      -200.1340  -91.5310  463.7710 C.3   132  ILE132      0.1596
    135  C       -199.2740  -90.3030  463.4580 C.2   132  ILE132      0.2287
    136  O       -199.1850  -89.3730  464.2720 O.2   132  ILE132     -0.2864
    137  CB      -199.3940  -92.5330  464.6840 C.3   132  ILE132      0.0276
    138  CG1     -199.1400  -91.9570  466.0960 C.3   132  ILE132      0.0022
    139  CG2     -198.0680  -92.9680  464.0450 C.3   132  ILE132      0.0022
    140  CD1     -200.3730  -91.7430  466.9210 C.3   132  ILE132      0.0001
@<TRIPOS>BOND
     1   122   121    1
     2   122   123    1
     3    87    85   am
     4   121   118    1
     5    86    85    2
     6    85    84    1
     7   123   117    1
     8   132   130   ar
     9    68    67    1
    10    67    64    1
    11   118   117    1
    12   118   119    1
    13   130   131   ar
    14   130   129    1
    15   117   108   am
    16    84    81    1
    17    66    65    2
    18   119   120    2
    19   119   124   am
    20    64    65    1
    21    64    63    1
    22   129   128    1
    23    65    69   am
    24    63    53   am
    25   124   125    1
    26   108   107    1
    27   108   109    2
    28    69    70    1
    29    80    71   am
    30    80    81    1
    31    70    71    1
    32    70    73    1
    33    71    72    2
    34    81    82    1
    35   107   106    1
    36   107   110    1
    37   112   114   ar
    38   112   111   ar
    39   114   116   ar
    40    52    53    1
    41    52    55    1
    42    52    51    1
    43    53    54    2
    44   125   128    1
    45   125   126    1
    46    55    56    1
    47   110   111    1
    48    73    74    1
    49   111   113   ar
    50    82    83    2
    51   116   115   ar
    52   126   127    2
    53   126   133   am
    54    56    57   ar
    55    56    58   ar
    56   113   115   ar
    57    74    75   ar
    58    74    76   ar
    59   133   134    1
    60    57    59   ar
    61    75    77   ar
    62    97    98    1
    63    76    78   ar
    64   100    99    2
    65    58    60   ar
    66    44    43    1
    67    44    45    2
    68   135   134    1
    69   135   136    2
    70    91    90    2
    71    43    46    1
    72    43    42    1
    73   134   137    1
    74    46    47    1
    75   139   137    1
    76    90    89    1
    77    59    61   ar
    78    77    79   ar
    79    99    98    1
    80    98   101    1
    81    49    48   ar
    82    78    79   ar
    83    88    89    1
    84    89    92    1
    85    60    61   ar
    86   137   138    1
    87   101   102    1
    88    61    62    1
    89    47    48    1
    90    48    50   ar
    91    94    95    1
    92    94    93    1
    93    92    93    1
    94    27    28    1
    95    27    24    1
    96   138   140    1
    97   102   103    1
    98    95    96    1
    99    22    21    2
   100    28    30   ar
   101    28    29   ar
   102    30    32   ar
   103   103   104    1
   104    24    23    1
   105    24    25    1
   106    29    31   ar
   107    32    31   ar
   108    21    20    1
   109    20    19    1
   110    25    26    2
   111   104   105    1
   112    19    13   am
   113    41    40    1
   114    14    13    2
   115    13    12    1
   116    40    39    1
   117     8    10   ar
   118     8     6   ar
   119    10     9   ar
   120    39    38    1
   121    12    15    1
   122    12    11    1
   123     6     5    1
   124     6     7   ar
   125     5     2    1
   126    15    16    1
   127     4     3    2
   128     9     7   ar
   129     1     2    1
   130    38    37    1
   131     2     3    1
   132    17    16   ar
   133    16    18   ar
   134    37    34    1
   135    34    33    1
   136    34    35    1
   137    35    36    2
