@<TRIPOS>MOLECULE
tmp/4mpuA02.pdb
 151 149 0 0 0
SMALL
GASTEIGER

@<TRIPOS>ATOM
      1  N        -26.4320   16.9640    6.6720 N.3    44  HIS44      -0.1241
      2  CA       -26.1480   17.1310    8.0960 C.3    44  HIS44       0.1621
      3  C        -25.0960   18.2120    8.3840 C.2    44  HIS44       0.2264
      4  O        -24.9780   18.6860    9.5250 O.2    44  HIS44      -0.2867
      5  CB       -25.8070   15.8050    8.7640 C.3    44  HIS44       0.0745
      6  CG       -24.4120   15.3400    8.6300 C.ar   44  HIS44       0.0817
      7  ND1      -23.9910   14.3660    7.7370 N.ar   44  HIS44      -0.2268
      8  CD2      -23.3030   15.7430    9.2900 C.ar   44  HIS44       0.1154
      9  CE1      -22.7030   14.1660    7.8910 C.ar   44  HIS44       0.1986
     10  NE2      -22.2640   14.9770    8.8370 N.ar   44  HIS44      -0.2212
     11  N        -33.6400   14.4850    7.9550 N.3    84  TYR84      -0.1227
     12  CA       -33.6590   14.8340    9.3410 C.3    84  TYR84       0.1736
     13  C        -32.4040   14.3990   10.0570 C.2    84  TYR84       0.2596
     14  O        -31.8090   15.1670   10.8070 O.2    84  TYR84      -0.2718
     15  CB       -35.0220   14.4450   10.0850 C.3    84  TYR84       0.0548
     16  CG       -35.0250   15.0600   11.4500 C.ar   84  TYR84      -0.0200
     17  CD1      -35.1330   16.4800   11.6270 C.ar   84  TYR84      -0.0009
     18  CD2      -34.7580   14.3340   12.5730 C.ar   84  TYR84      -0.0009
     19  CE1      -35.0210   17.0650   12.9040 C.ar   84  TYR84       0.0417
     20  CE2      -34.6680   14.9380   13.8290 C.ar   84  TYR84       0.0417
     21  CZ       -34.8160   16.2900   13.9680 C.ar   84  TYR84       0.1957
     22  OH       -34.6660   16.8900   15.1870 O.3    84  TYR84      -0.2866
     23  N        -31.9770   13.1530    9.8930 N.am   85  THR85      -0.1939
     24  CA       -30.6930   12.6630   10.4060 C.3    85  THR85       0.2028
     25  C        -30.0550   11.7060    9.4660 C.2    85  THR85       0.2642
     26  O        -30.6660   11.0910    8.6050 O.2    85  THR85      -0.2714
     27  CB       -30.7500   11.8550   11.7560 C.3    85  THR85       0.1808
     28  OG1      -31.1730   10.5440   11.4710 O.3    85  THR85      -0.2208
     29  CG2      -31.6240   12.4100   12.7300 C.3    85  THR85       0.0379
     30  N        -28.7140   11.6170    9.5640 N.am   86  ALA86      -0.1963
     31  CA       -27.9260   10.7850    8.6570 C.3    86  ALA86       0.1728
     32  C        -28.3020    9.3090    8.7520 C.2    86  ALA86       0.2616
     33  O        -28.2970    8.6230    7.7930 O.2    86  ALA86      -0.2715
     34  CB       -26.5020   10.9810    8.9810 C.3    86  ALA86       0.0334
     35  N        -28.6930    8.8900    9.9520 N.am   87  GLN87      -0.1977
     36  CA       -29.1200    7.4650   10.1150 C.3    87  GLN87       0.1601
     37  C        -30.3990    7.1210    9.4620 C.2    87  GLN87       0.2287
     38  O        -30.6370    5.9400    9.0600 O.2    87  GLN87      -0.2864
     39  CB       -29.1030    6.9520   11.6000 C.3    87  GLN87       0.0394
     40  CG       -27.7360    6.9910   12.2560 C.3    87  GLN87       0.0908
     41  CD       -27.3500    8.3780   12.4750 C.2    87  GLN87       0.2608
     42  OE1      -28.1820    9.2570   12.9260 O.2    87  GLN87      -0.2717
     43  NE2      -26.1140    8.6490   12.1790 N.am   87  GLN87      -0.0878
     44  N        -10.6880    4.8000    5.9900 N.3   188  ASP188     -0.1225
     45  CA       -12.0260    5.3300    6.2540 C.3   188  ASP188      0.1805
     46  C        -11.9910    6.8500    6.1640 C.2   188  ASP188      0.2598
     47  O        -10.9240    7.4960    6.2130 O.2   188  ASP188     -0.2718
     48  CB       -12.5290    4.8680    7.6540 C.3   188  ASP188      0.1424
     49  CG       -14.0330    4.7670    7.7920 C.2   188  ASP188      0.3668
     50  OD1      -14.7880    5.0970    6.8510 O.co2 188  ASP188     -0.2456
     51  OD2      -14.5050    4.4240    8.8840 O.co2 188  ASP188     -0.2456
     52  N        -13.1660    7.3890    6.0400 N.am  189  SER189     -0.1938
     53  CA       -13.4580    8.7740    6.2790 C.3   189  SER189      0.2055
     54  C        -13.6710    8.9360    7.7730 C.2   189  SER189      0.2643
     55  O        -13.8700    7.9740    8.5210 O.2   189  SER189     -0.2714
     56  CB       -14.7170    9.1390    5.4630 C.3   189  SER189      0.2130
     57  OG       -15.7480    8.3100    5.8480 O.3   189  SER189     -0.2179
     58  N        -13.6900   10.1760    8.2320 N.am  190  CYS190     -0.1953
     59  CA       -13.8670   10.5030    9.6240 C.3   190  CYS190      0.1843
     60  C        -14.4910   11.8940    9.8010 C.2   190  CYS190      0.2625
     61  O        -14.7930   12.5560    8.8100 O.2   190  CYS190     -0.2714
     62  CB       -12.5070   10.2650   10.3850 C.3   190  CYS190      0.0997
     63  SG       -12.7230   10.0100   12.1850 S.3   190  CYS190     -0.0797
     64  N        -14.7200   12.3410   11.0460 N.am  191  GLN191     -0.1977
     65  CA       -15.3700   13.6170   11.2610 C.3   191  GLN191      0.1601
     66  C        -14.5390   14.7230   10.6740 C.2   191  GLN191      0.2287
     67  O        -13.3330   14.7680   10.9350 O.2   191  GLN191     -0.2864
     68  CB       -15.6810   13.9030   12.7310 C.3   191  GLN191      0.0394
     69  CG       -16.7870   12.9380   13.2270 C.3   191  GLN191      0.0908
     70  CD       -16.9610   12.8880   14.7230 C.2   191  GLN191      0.2608
     71  OE1      -16.2260   12.2130   15.4190 O.2   191  GLN191     -0.2717
     72  NE2      -17.9580   13.5820   15.2190 N.am  191  GLN191     -0.0878
     73  N        -17.0940   14.7180    6.3620 N.3   194  SER194     -0.1217
     74  CA       -18.4950   14.6620    5.9490 C.3   194  SER194      0.1889
     75  C        -18.8230   15.6650    4.9030 C.2   194  SER194      0.2288
     76  O        -18.2810   16.8090    4.9220 O.2   194  SER194     -0.2866
     77  CB       -19.5100   14.9310    7.0450 C.3   194  SER194      0.2089
     78  OG       -19.4240   13.9370    8.0850 O.3   194  SER194     -0.2183
     79  N        -19.8020   11.5770    1.8320 N.3   212  VAL212     -0.1231
     80  CA       -19.4430   11.1390    3.2040 C.3   212  VAL212      0.1692
     81  C        -20.5660   11.4960    4.1590 C.2   212  VAL212      0.2593
     82  O        -20.9540   12.6310    4.2950 O.2   212  VAL212     -0.2718
     83  CB       -18.1050   11.7730    3.7080 C.3   212  VAL212      0.0266
     84  CG1      -17.8560   11.4000    5.1380 C.3   212  VAL212      0.0020
     85  CG2      -16.9590   11.3170    2.8090 C.3   212  VAL212      0.0020
     86  N        -21.1160   10.4670    4.8650 N.am  213  SER213     -0.1938
     87  CA       -22.2810   10.6790    5.6670 C.3   213  SER213      0.2055
     88  C        -22.2050   10.3530    7.1210 C.2   213  SER213      0.2643
     89  O        -22.3380   11.2560    7.9880 O.2   213  SER213     -0.2714
     90  CB       -23.5350   10.0680    5.0000 C.3   213  SER213      0.2130
     91  OG       -24.7340   10.2380    5.8000 O.3   213  SER213     -0.2179
     92  N        -21.9000    9.0760    7.4560 N.am  214  TRP214     -0.1959
     93  CA       -21.8290    8.6730    8.8950 C.3   214  TRP214      0.1771
     94  C        -21.2000    7.2790    8.9860 C.2   214  TRP214      0.2620
     95  O        -20.7100    6.7490    8.0000 O.2   214  TRP214     -0.2715
     96  CB       -23.2230    8.8070    9.5450 C.3   214  TRP214      0.0590
     97  CG       -24.1900    7.7260    9.0710 C.ar  214  TRP214      0.0006
     98  CD1      -24.8330    7.7110    7.8910 C.ar  214  TRP214      0.0946
     99  CD2      -24.6140    6.5160    9.7790 C.ar  214  TRP214      0.0152
    100  NE1      -25.6350    6.6180    7.8140 N.ar  214  TRP214     -0.2442
    101  CE2      -25.5450    5.8800    8.9540 C.ar  214  TRP214      0.0810
    102  CE3      -24.3320    5.9800   11.0190 C.ar  214  TRP214      0.0012
    103  CZ2      -26.1700    4.6520    9.2800 C.ar  214  TRP214      0.0191
    104  CZ3      -24.9640    4.7760   11.3840 C.ar  214  TRP214      0.0001
    105  CH2      -25.9020    4.1560   10.5220 C.ar  214  TRP214      0.0015
    106  N        -21.1680    6.8000   10.2100 N.am  215  GLY215     -0.1940
    107  CA       -20.6170    5.5350   10.5560 C.3   215  GLY215      0.2014
    108  C        -20.5830    5.5060   12.0570 C.2   215  GLY215      0.2639
    109  O        -20.8440    6.4890   12.6940 O.2   215  GLY215     -0.2714
    110  N        -20.3260    4.3090   12.6130 N.am  216  GLU216     -0.1963
    111  CA       -19.9830    4.2180   14.0360 C.3   216  GLU216      0.1733
    112  C        -18.5000    4.3890   14.1790 C.2   216  GLU216      0.2617
    113  O        -17.6800    3.5030   13.8710 O.2   216  GLU216     -0.2715
    114  CB       -20.4900    2.9380   14.7160 C.3   216  GLU216      0.0429
    115  CG       -20.0880    2.8900   16.1950 C.3   216  GLU216      0.1163
    116  CD       -20.4150    1.5390   16.8700 C.2   216  GLU216      0.3649
    117  OE1      -19.5260    0.8950   17.4370 O.co2 216  GLU216     -0.2457
    118  OE2      -21.5790    1.1140   16.8130 O.co2 216  GLU216     -0.2457
    119  N        -18.1230    5.6200   14.5880 N.am  217  GLY217     -0.1940
    120  CA       -16.7420    5.9260   14.6720 C.3   217  GLY217      0.2014
    121  C        -16.1220    5.7850   13.2820 C.2   217  GLY217      0.2639
    122  O        -16.8330    5.8990   12.2800 O.2   217  GLY217     -0.2714
    123  N        -14.7940    5.6890   13.2720 N.am  218  CYS218     -0.1967
    124  CA       -13.9710    5.6610   12.1330 C.3   218  CYS218      0.1712
    125  C        -13.0490    4.4580   12.2440 C.2   218  CYS218      0.2296
    126  O        -12.3510    4.3380   13.2350 O.2   218  CYS218     -0.2864
    127  CB       -13.1020    6.9630   12.1370 C.3   218  CYS218      0.0983
    128  SG       -14.1540    8.4110   12.2960 S.3   218  CYS218     -0.0798
    129  N        -17.7180   -1.9140   11.2300 N.3   223  ARG223     -0.1301
    130  CA       -18.4340   -0.6250   11.1060 C.3   223  ARG223      0.1248
    131  C        -17.8630    0.2130    9.9160 C.3   223  ARG223      0.2009
    132  O        -17.2500    1.3230   10.1610 O.3   223  ARG223     -0.2188
    133  CB       -18.3740    0.1670   12.4240 C.3   223  ARG223      0.0254
    134  CG       -19.0050   -0.5530   13.6420 C.3   223  ARG223      0.0485
    135  CD       -20.5130   -0.7620   13.4660 C.3   223  ARG223      0.2205
    136  NE       -21.1680   -1.2730   14.6790 N.pl3 223  ARG223     -0.0865
    137  CZ       -21.3900   -2.5640   14.9430 C.cat 223  ARG223      0.5346
    138  NH1      -21.1020   -3.5060   14.0980 N.pl3 223  ARG223      0.1354
    139  NH2      -21.9310   -2.8400   16.1040 N.pl3 223  ARG223      0.1354
    140  N        -17.4560    2.7770    6.7610 N.3   225  GLY225     -0.1210
    141  CA       -18.1010    4.0990    6.5810 C.3   225  GLY225      0.1956
    142  C        -19.3200    4.0280    5.6620 C.2   225  GLY225      0.2611
    143  O        -19.3350    3.3100    4.6550 O.2   225  GLY225     -0.2717
    144  N        -20.2900    4.8660    5.9470 N.am  226  ILE226     -0.1979
    145  CA       -21.5190    4.9980    5.2170 C.3   226  ILE226      0.1595
    146  C        -21.6060    6.3610    4.5180 C.2   226  ILE226      0.2287
    147  O        -21.2440    7.4370    5.0780 O.2   226  ILE226     -0.2864
    148  CB       -22.6980    4.8310    6.1680 C.3   226  ILE226      0.0276
    149  CG1      -22.5620    3.4560    6.9030 C.3   226  ILE226      0.0022
    150  CG2      -23.9810    4.8180    5.3720 C.3   226  ILE226      0.0022
    151  CD1      -23.5410    3.2960    7.9720 C.3   226  ILE226      0.0001
@<TRIPOS>BOND
     1    79    80    1
     2    85    83    1
     3    80    83    1
     4    80    81    1
     5    83    84    1
     6    81    82    2
     7    81    86   am
     8   146   147    2
     9   146   145    1
    10   143   142    2
    11    86    87    1
    12    75    76    2
    13    75    74    1
    14    90    87    1
    15    90    91    1
    16   145   144    1
    17   145   148    1
    18   150   148    1
    19    56    57    1
    20    56    53    1
    21   142   144   am
    22   142   141    1
    23    87    88    1
    24    74    73    1
    25    74    77    1
    26    44    45    1
    27    52    46   am
    28    52    53    1
    29    46    47    2
    30    46    45    1
    31   148   149    1
    32    45    48    1
    33    53    54    1
    34   141   140    1
    35     1     2    1
    36    50    49   ar
    37   149   151    1
    38    77    78    1
    39    88    92   am
    40    88    89    2
    41    92    93    1
    42    48    49    1
    43     7     9   ar
    44     7     6   ar
    45    54    58   am
    46    54    55    2
    47    49    51   ar
    48    33    32    2
    49   100    98   ar
    50   100   101   ar
    51     9    10   ar
    52    98    97   ar
    53    11    12    1
    54    95    94    2
    55     2     3    1
    56     2     5    1
    57    58    59    1
    58     3     4    2
    59    26    25    2
    60     6     5    1
    61     6     8   ar
    62    31    32    1
    63    31    34    1
    64    31    30    1
    65    32    35   am
    66    61    60    2
    67    10     8   ar
    68    93    94    1
    69    93    96    1
    70   101   103   ar
    71   101    99   ar
    72    94   106   am
    73    38    37    2
    74    97    96    1
    75    97    99   ar
    76   103   105   ar
    77    12    13    1
    78    12    15    1
    79    37    36    1
    80    25    30   am
    81    25    24    1
    82    59    60    1
    83    59    62    1
    84    99   102   ar
    85    60    64   am
    86    23    13   am
    87    23    24    1
    88   131   132    1
    89   131   130    1
    90    35    36    1
    91    13    14    2
    92    15    16    1
    93    36    39    1
    94   106   107    1
    95    62    63    1
    96    24    27    1
    97   105   104   ar
    98   107   108    1
    99    66    67    2
   100    66    65    1
   101   102   104   ar
   102    64    65    1
   103   130   129    1
   104   130   133    1
   105    65    68    1
   106    16    17   ar
   107    16    18   ar
   108    28    27    1
   109    39    40    1
   110    17    19   ar
   111    27    29    1
   112   108   110   am
   113   108   109    2
   114   124   127    1
   115   124   125    1
   116   124   123    1
   117   127   128    1
   118    43    41   am
   119    63   128    1
   120   125   126    2
   121    40    41    1
   122   122   121    2
   123   133   134    1
   124    41    42    2
   125    18    20   ar
   126   110   111    1
   127    68    69    1
   128    19    21   ar
   129    69    70    1
   130   123   121   am
   131   121   120    1
   132   135   134    1
   133   135   136    1
   134    20    21   ar
   135   113   112    2
   136    21    22    1
   137   111   112    1
   138   111   114    1
   139   138   137    1
   140   112   119   am
   141   119   120    1
   142   136   137    2
   143   114   115    1
   144    70    72   am
   145    70    71    2
   146   137   139    1
   147   115   116    1
   148   118   116   ar
   149   116   117   ar
