@<TRIPOS>MOLECULE
tmp/4mpvA00.pdb
 151 149 0 0 0
SMALL
GASTEIGER

@<TRIPOS>ATOM
      1  N         26.3920  -17.0450    6.8280 N.3    44  HIS44      -0.1241
      2  CA        26.2100  -17.1940    8.2840 C.3    44  HIS44       0.1621
      3  C         25.1570  -18.2500    8.5900 C.2    44  HIS44       0.2264
      4  O         25.0460  -18.7140    9.7140 O.2    44  HIS44      -0.2867
      5  CB        25.9010  -15.8430    8.9500 C.3    44  HIS44       0.0745
      6  CG        24.4980  -15.3670    8.7660 C.ar   44  HIS44       0.0817
      7  ND1       24.1360  -14.4530    7.7940 N.ar   44  HIS44      -0.2268
      8  CD2       23.3690  -15.6460    9.4610 C.ar   44  HIS44       0.1154
      9  CE1       22.8390  -14.2310    7.8680 C.ar   44  HIS44       0.1986
     10  NE2       22.3550  -14.9290    8.8810 N.ar   44  HIS44      -0.2212
     11  N         33.7400  -14.4580    7.9340 N.3    84  TYR84      -0.1227
     12  CA        33.7870  -14.8070    9.3310 C.3    84  TYR84       0.1736
     13  C         32.5520  -14.3870   10.0970 C.2    84  TYR84       0.2596
     14  O         31.9880  -15.2140   10.7860 O.2    84  TYR84      -0.2718
     15  CB        35.1000  -14.3940   10.0590 C.3    84  TYR84       0.0548
     16  CG        35.1540  -15.1120   11.3940 C.ar   84  TYR84      -0.0200
     17  CD1       35.3690  -16.5080   11.4740 C.ar   84  TYR84      -0.0009
     18  CD2       34.8830  -14.4390   12.5720 C.ar   84  TYR84      -0.0009
     19  CE1       35.3080  -17.1750   12.6940 C.ar   84  TYR84       0.0417
     20  CE2       34.8560  -15.1060   13.7910 C.ar   84  TYR84       0.0417
     21  CZ        35.0790  -16.4430   13.8430 C.ar   84  TYR84       0.1957
     22  OH        35.0270  -17.0080   15.0730 O.3    84  TYR84      -0.2866
     23  N         32.1100  -13.1410    9.9710 N.am   85  THR85      -0.1939
     24  CA        30.7840  -12.7450   10.5080 C.3    85  THR85       0.2028
     25  C         30.1200  -11.8270    9.5180 C.2    85  THR85       0.2642
     26  O         30.7830  -11.2140    8.6670 O.2    85  THR85      -0.2714
     27  CB        30.8950  -11.8820   11.7860 C.3    85  THR85       0.1808
     28  OG1       31.5170  -10.6200   11.4700 O.3    85  THR85      -0.2208
     29  CG2       31.7310  -12.5620   12.8060 C.3    85  THR85       0.0379
     30  N         28.8240  -11.6290    9.6870 N.am   86  ALA86      -0.1963
     31  CA        28.0680  -10.8700    8.7440 C.3    86  ALA86       0.1728
     32  C         28.4570   -9.4120    8.7460 C.2    86  ALA86       0.2616
     33  O         28.4260   -8.7600    7.7010 O.2    86  ALA86      -0.2715
     34  CB        26.6060  -11.0120    9.0690 C.3    86  ALA86       0.0334
     35  N         28.8510   -8.8960    9.9110 N.am   87  GLN87      -0.1977
     36  CA        29.2520   -7.4920   10.0440 C.3    87  GLN87       0.1601
     37  C         30.6100   -7.2440    9.4020 C.2    87  GLN87       0.2287
     38  O         30.8750   -6.1710    8.9090 O.2    87  GLN87      -0.2864
     39  CB        29.3120   -7.0780   11.5010 C.3    87  GLN87       0.0394
     40  CG        27.9820   -6.9270   12.1570 C.3    87  GLN87       0.0908
     41  CD        27.3710   -8.2730   12.4410 C.2    87  GLN87       0.2608
     42  OE1       28.0540   -9.2160   12.8590 O.2    87  GLN87      -0.2717
     43  NE2       26.0960   -8.3970   12.1430 N.am   87  GLN87      -0.0878
     44  N         10.7510   -4.7100    6.0320 N.3   188  ASP188     -0.1225
     45  CA        12.1080   -5.2080    6.2800 C.3   188  ASP188      0.1805
     46  C         12.0340   -6.7290    6.1980 C.2   188  ASP188      0.2598
     47  O         10.9560   -7.3190    6.2740 O.2   188  ASP188     -0.2718
     48  CB        12.6660   -4.7420    7.6650 C.3   188  ASP188      0.1424
     49  CG        14.2590   -4.8040    7.7950 C.2   188  ASP188      0.3668
     50  OD1       14.9870   -5.3370    6.8900 O.co2 188  ASP188     -0.2456
     51  OD2       14.8070   -4.3290    8.8490 O.co2 188  ASP188     -0.2456
     52  N         13.1920   -7.3440    6.0100 N.am  189  SER189     -0.1938
     53  CA        13.3750   -8.7500    6.2250 C.3   189  SER189      0.2055
     54  C         13.7120   -8.9380    7.6940 C.2   189  SER189      0.2643
     55  O         14.0070   -7.9770    8.4320 O.2   189  SER189     -0.2714
     56  CB        14.5280   -9.2880    5.3550 C.3   189  SER189      0.2130
     57  OG        15.7100   -8.5290    5.5530 O.3   189  SER189     -0.2179
     58  N         13.6940  -10.1900    8.1160 N.am  190  CYS190     -0.1953
     59  CA        13.8580  -10.5070    9.5140 C.3   190  CYS190      0.1843
     60  C         14.5310  -11.8700    9.6730 C.2   190  CYS190      0.2625
     61  O         14.8790  -12.5210    8.7050 O.2   190  CYS190     -0.2714
     62  CB        12.4730  -10.4380   10.1910 C.3   190  CYS190      0.0997
     63  SG        12.5650   -9.9440   11.9230 S.3   190  CYS190     -0.0797
     64  N         14.7110  -12.2850   10.9060 N.am  191  GLN191     -0.1977
     65  CA        15.3290  -13.5480   11.2430 C.3   191  GLN191      0.1601
     66  C         14.5660  -14.6950   10.6010 C.2   191  GLN191      0.2287
     67  O         13.3800  -14.7540   10.7040 O.2   191  GLN191     -0.2864
     68  CB        15.3170  -13.7110   12.7590 C.3   191  GLN191      0.0394
     69  CG        16.5710  -14.3330   13.2970 C.3   191  GLN191      0.0908
     70  CD        17.2670  -13.4930   14.3550 C.2   191  GLN191      0.2608
     71  OE1       16.6550  -12.6360   14.9830 O.2   191  GLN191     -0.2717
     72  NE2       18.5610  -13.7350   14.5460 N.am  191  GLN191     -0.0878
     73  N         17.1410  -14.6720    6.2920 N.3   194  SER194     -0.1217
     74  CA        18.5450  -14.6980    5.9410 C.3   194  SER194      0.1889
     75  C         18.8710  -15.6730    4.8730 C.2   194  SER194      0.2288
     76  O         18.3820  -16.7830    4.8700 O.2   194  SER194     -0.2866
     77  CB        19.4020  -15.1140    7.1400 C.3   194  SER194      0.2089
     78  OG        19.3410  -14.1500    8.1650 O.3   194  SER194     -0.2183
     79  N         19.8880  -11.5750    1.9380 N.3   212  VAL212     -0.1231
     80  CA        19.5080  -11.0780    3.2580 C.3   212  VAL212      0.1692
     81  C         20.6140  -11.4920    4.2290 C.2   212  VAL212      0.2593
     82  O         20.9700  -12.6680    4.2770 O.2   212  VAL212     -0.2718
     83  CB        18.2050  -11.6780    3.7070 C.3   212  VAL212      0.0266
     84  CG1       17.9360  -11.2630    5.1430 C.3   212  VAL212      0.0020
     85  CG2       17.0230  -11.1970    2.8500 C.3   212  VAL212      0.0020
     86  N         21.2470  -10.5180    4.8980 N.am  213  SER213     -0.1938
     87  CA        22.4260  -10.8060    5.6830 C.3   213  SER213      0.2055
     88  C         22.2700  -10.4260    7.1550 C.2   213  SER213      0.2643
     89  O         22.3720  -11.2750    7.9970 O.2   213  SER213     -0.2714
     90  CB        23.6250  -10.1190    5.0280 C.3   213  SER213      0.2130
     91  OG        24.8590  -10.3310    5.7300 O.3   213  SER213     -0.2179
     92  N         22.0430   -9.1600    7.4860 N.am  214  TRP214     -0.1959
     93  CA        21.9550   -8.7260    8.8950 C.3   214  TRP214      0.1771
     94  C         21.2920   -7.3550    9.0300 C.2   214  TRP214      0.2620
     95  O         20.8030   -6.7960    8.0680 O.2   214  TRP214     -0.2715
     96  CB        23.3190   -8.7020    9.5970 C.3   214  TRP214      0.0590
     97  CG        24.2880   -7.6890    9.0860 C.ar  214  TRP214      0.0006
     98  CD1       24.9830   -7.7640    7.9410 C.ar  214  TRP214      0.0946
     99  CD2       24.7100   -6.4780    9.7320 C.ar  214  TRP214      0.0152
    100  NE1       25.7890   -6.6870    7.7920 N.ar  214  TRP214     -0.2442
    101  CE2       25.6640   -5.8810    8.8900 C.ar  214  TRP214      0.0810
    102  CE3       24.3520   -5.8330   10.9300 C.ar  214  TRP214      0.0012
    103  CZ2       26.2720   -4.6520    9.1760 C.ar  214  TRP214      0.0191
    104  CZ3       24.9800   -4.6550   11.2470 C.ar  214  TRP214      0.0001
    105  CH2       25.9330   -4.0590   10.3440 C.ar  214  TRP214      0.0015
    106  N         21.2090   -6.8570   10.2530 N.am  215  GLY215     -0.1940
    107  CA        20.6290   -5.5350   10.5120 C.3   215  GLY215      0.2014
    108  C         20.6050   -5.4130   12.0130 C.2   215  GLY215      0.2639
    109  O         20.8680   -6.3980   12.7000 O.2   215  GLY215     -0.2714
    110  N         20.2650   -4.2340   12.5240 N.am  216  GLU216     -0.1963
    111  CA        20.0420   -4.0680   13.9470 C.3   216  GLU216      0.1733
    112  C         18.5930   -4.2250   14.2130 C.2   216  GLU216      0.2617
    113  O         17.8130   -3.3560   13.8770 O.2   216  GLU216     -0.2715
    114  CB        20.5980   -2.7530   14.4160 C.3   216  GLU216      0.0429
    115  CG        22.0890   -2.8840   14.6750 C.3   216  GLU216      0.1163
    116  CD        22.7040   -1.6800   15.3970 C.2   216  GLU216      0.3649
    117  OE1       21.9300   -0.8840   16.0290 O.co2 216  GLU216     -0.2457
    118  OE2       23.9690   -1.5530   15.3320 O.co2 216  GLU216     -0.2457
    119  N         18.2180   -5.3830   14.7370 N.am  217  GLY217     -0.1940
    120  CA        16.7880   -5.7480   14.8040 C.3   217  GLY217      0.2014
    121  C         16.1550   -5.7800   13.4160 C.2   217  GLY217      0.2639
    122  O         16.8550   -5.8870   12.3870 O.2   217  GLY217     -0.2714
    123  N         14.8330   -5.6880   13.3960 N.am  218  CYS218     -0.1967
    124  CA        14.0230   -5.6650   12.1930 C.3   218  CYS218      0.1712
    125  C         13.1160   -4.4300   12.2280 C.2   218  CYS218      0.2296
    126  O         12.4420   -4.1580   13.2090 O.2   218  CYS218     -0.2864
    127  CB        13.1310   -6.9050   12.1810 C.3   218  CYS218      0.0983
    128  SG        14.0030   -8.4950   12.3260 S.3   218  CYS218     -0.0798
    129  N         17.7290    1.8850   11.3030 N.3   223  ARG223     -0.1245
    130  CA        18.4660    0.6620   11.0920 C.3   223  ARG223      0.1563
    131  C         17.8980   -0.1660    9.9310 C.2   223  ARG223      0.2260
    132  O         17.3450   -1.2360   10.1460 O.2   223  ARG223     -0.2867
    133  CB        18.4520   -0.1280   12.3840 C.3   223  ARG223      0.0307
    134  CG        19.0790    0.5820   13.5570 C.3   223  ARG223      0.0489
    135  CD        20.5760    0.7490   13.3880 C.3   223  ARG223      0.2205
    136  NE        21.1860    1.2540   14.6090 N.pl3 223  ARG223     -0.0865
    137  CZ        21.4530    2.5410   14.8500 C.cat 223  ARG223      0.5346
    138  NH1       21.1100    3.4850   13.9770 N.pl3 223  ARG223      0.1354
    139  NH2       22.0310    2.8850   16.0030 N.pl3 223  ARG223      0.1354
    140  N         17.7740   -2.7190    6.6760 N.3   225  GLY225     -0.1210
    141  CA        18.3500   -4.0260    6.5060 C.3   225  GLY225      0.1956
    142  C         19.5980   -3.9910    5.6500 C.2   225  GLY225      0.2611
    143  O         19.6840   -3.2510    4.6780 O.2   225  GLY225     -0.2717
    144  N         20.5130   -4.8800    5.9690 N.am  226  ILE226     -0.1979
    145  CA        21.7350   -5.0140    5.2080 C.3   226  ILE226      0.1595
    146  C         21.8310   -6.3470    4.5010 C.2   226  ILE226      0.2287
    147  O         21.6490   -7.4260    5.0660 O.2   226  ILE226     -0.2864
    148  CB        22.9170   -4.7800    6.1430 C.3   226  ILE226      0.0276
    149  CG1       22.8000   -3.3290    6.6580 C.3   226  ILE226      0.0022
    150  CG2       24.2350   -4.9510    5.4290 C.3   226  ILE226      0.0022
    151  CD1       23.3640   -3.2050    8.0390 C.3   226  ILE226      0.0001
@<TRIPOS>BOND
     1    79    80    1
     2    85    83    1
     3    80    83    1
     4    80    81    1
     5    83    84    1
     6    81    82    2
     7    81    86   am
     8   146   147    2
     9   146   145    1
    10   143   142    2
    11    76    75    2
    12    75    74    1
    13    86    87    1
    14    90    87    1
    15    90    91    1
    16   145   144    1
    17   145   148    1
    18    56    57    1
    19    56    53    1
    20   150   148    1
    21   142   144   am
    22   142   141    1
    23    87    88    1
    24    74    73    1
    25    74    77    1
    26    52    46   am
    27    52    53    1
    28    44    45    1
    29   148   149    1
    30    46    47    2
    31    46    45    1
    32    53    54    1
    33    45    48    1
    34   141   140    1
    35   149   151    1
    36     1     2    1
    37    50    49   ar
    38    77    78    1
    39    88    92   am
    40    88    89    2
    41    92    93    1
    42    48    49    1
    43    54    58   am
    44    54    55    2
    45    33    32    2
    46   100    98   ar
    47   100   101   ar
    48     7     9   ar
    49     7     6   ar
    50    49    51   ar
    51     9    10   ar
    52    11    12    1
    53    98    97   ar
    54    95    94    2
    55    58    59    1
    56     2     3    1
    57     2     5    1
    58     3     4    2
    59    26    25    2
    60    61    60    2
    61    31    32    1
    62    31    34    1
    63    31    30    1
    64    32    35   am
    65     6     5    1
    66     6     8   ar
    67    10     8   ar
    68   101   103   ar
    69   101    99   ar
    70    93    94    1
    71    93    96    1
    72    38    37    2
    73    94   106   am
    74    97    96    1
    75    97    99   ar
    76   103   105   ar
    77    12    15    1
    78    12    13    1
    79    37    36    1
    80    59    60    1
    81    59    62    1
    82    25    30   am
    83    25    24    1
    84    60    64   am
    85    99   102   ar
    86    35    36    1
    87   131   132    2
    88   131   130    1
    89    23    13   am
    90    23    24    1
    91    36    39    1
    92    15    16    1
    93    13    14    2
    94    62    63    1
    95   106   107    1
    96   105   104   ar
    97    24    27    1
    98   107   108    1
    99    66    67    2
   100    66    65    1
   101    64    65    1
   102   102   104   ar
   103   130   129    1
   104   130   133    1
   105    65    68    1
   106    16    17   ar
   107    16    18   ar
   108    28    27    1
   109    17    19   ar
   110    39    40    1
   111    27    29    1
   112    63   128    1
   113   108   110   am
   114   108   109    2
   115    43    41   am
   116    40    41    1
   117   127   124    1
   118   127   128    1
   119   124   125    1
   120   124   123    1
   121   125   126    2
   122   133   134    1
   123   122   121    2
   124    41    42    2
   125   110   111    1
   126    18    20   ar
   127    19    21   ar
   128    68    69    1
   129    69    70    1
   130   135   134    1
   131   135   136    1
   132   123   121   am
   133   121   120    1
   134    20    21   ar
   135    21    22    1
   136   113   112    2
   137   111   112    1
   138   111   114    1
   139   138   137    1
   140   112   119   am
   141    70    72   am
   142    70    71    2
   143   114   115    1
   144   136   137    2
   145   115   116    1
   146   119   120    1
   147   137   139    1
   148   118   116   ar
   149   116   117   ar
