@<TRIPOS>MOLECULE
tmp/4mpwB00.pdb
 153 152 0 0 0
SMALL
GASTEIGER

@<TRIPOS>ATOM
      1  N         19.0560  -25.2330  -24.2160 N.3    44  HIS44      -0.1241
      2  CA        19.0810  -23.8000  -23.9050 C.3    44  HIS44       0.1621
      3  C         18.7490  -22.9200  -25.0950 C.2    44  HIS44       0.2264
      4  O         18.3820  -21.8280  -24.8930 O.2    44  HIS44      -0.2867
      5  CB        20.3740  -23.3560  -23.2660 C.3    44  HIS44       0.0745
      6  CG        21.4410  -23.0210  -24.2590 C.ar   44  HIS44       0.0817
      7  ND1       22.4810  -23.8700  -24.5270 N.ar   44  HIS44      -0.2268
      8  CD2       21.6420  -21.9190  -25.0220 C.ar   44  HIS44       0.1154
      9  CE1       23.3110  -23.3010  -25.3880 C.ar   44  HIS44       0.1986
     10  NE2       22.8030  -22.1350  -25.7430 N.ar   44  HIS44      -0.2212
     11  N         17.4750  -27.3780  -16.9540 N.3    84  TYR84      -0.1227
     12  CA        17.1240  -26.0410  -16.4910 C.3    84  TYR84       0.1736
     13  C         18.2040  -24.9830  -16.9610 C.2    84  TYR84       0.2596
     14  O         17.8550  -23.9800  -17.5130 O.2    84  TYR84      -0.2718
     15  CB        16.7920  -25.9830  -14.9340 C.3    84  TYR84       0.0548
     16  CG        16.2770  -24.6120  -14.5540 C.ar   84  TYR84      -0.0200
     17  CD1       15.0570  -24.1730  -15.0050 C.ar   84  TYR84      -0.0009
     18  CD2       17.0560  -23.7060  -13.7990 C.ar   84  TYR84      -0.0009
     19  CE1       14.5770  -22.9220  -14.7020 C.ar   84  TYR84       0.0417
     20  CE2       16.6310  -22.4090  -13.5870 C.ar   84  TYR84       0.0417
     21  CZ        15.3940  -22.0130  -14.0060 C.ar   84  TYR84       0.1957
     22  OH        14.8900  -20.7350  -13.7820 O.3    84  TYR84      -0.2866
     23  N         19.4940  -25.2050  -16.7400 N.am   85  THR85      -0.1953
     24  CA        20.5190  -24.3700  -17.3110 C.3    85  THR85       0.1897
     25  C         21.6410  -25.2660  -17.8410 C.2    85  THR85       0.2313
     26  O         21.8150  -26.4210  -17.3930 O.2    85  THR85      -0.2863
     27  CB        21.1860  -23.4050  -16.2750 C.3    85  THR85       0.1794
     28  OG1       22.0640  -24.1090  -15.4030 O.3    85  THR85      -0.2208
     29  CG2       20.1490  -22.6970  -15.4200 C.3    85  THR85       0.0378
     30  N         24.7630  -24.9990  -17.1980 N.3    87  GLN87      -0.1245
     31  CA        25.7910  -25.3090  -16.1750 C.3    87  GLN87       0.1566
     32  C         25.3810  -26.4950  -15.3370 C.2    87  GLN87       0.2260
     33  O         26.2290  -27.2010  -14.8340 O.2    87  GLN87      -0.2867
     34  CB        26.1020  -24.1140  -15.2820 C.3    87  GLN87       0.0367
     35  CG        26.7520  -22.9660  -16.0660 C.3    87  GLN87       0.0905
     36  CD        25.8090  -22.1720  -16.9230 C.2    87  GLN87       0.2608
     37  OE1       24.6780  -21.8510  -16.5450 O.2    87  GLN87      -0.2717
     38  NE2       26.2630  -21.8450  -18.0930 N.am   87  GLN87      -0.0878
     39  N         37.5860  -22.2870  -31.0150 N.3   188  ASP188     -0.1225
     40  CA        36.4420  -22.5160  -30.0990 C.3   188  ASP188      0.1805
     41  C         35.1270  -22.2490  -30.8320 C.2   188  ASP188      0.2598
     42  O         35.0960  -21.6940  -31.9240 O.2   188  ASP188     -0.2718
     43  CB        36.5770  -21.6110  -28.8590 C.3   188  ASP188      0.1424
     44  CG        35.7840  -22.0970  -27.6320 C.2   188  ASP188      0.3668
     45  OD1       35.0810  -23.1530  -27.6830 O.co2 188  ASP188     -0.2456
     46  OD2       35.8870  -21.3770  -26.5840 O.co2 188  ASP188     -0.2456
     47  N         34.0400  -22.7020  -30.2160 N.am  189  SER189     -0.1938
     48  CA        32.7190  -22.3580  -30.6290 C.3   189  SER189      0.2055
     49  C         32.3800  -21.0830  -29.8480 C.2   189  SER189      0.2643
     50  O         33.1030  -20.6890  -28.9630 O.2   189  SER189     -0.2714
     51  CB        31.7730  -23.5350  -30.2630 C.3   189  SER189      0.2130
     52  OG        31.9570  -23.7510  -28.8420 O.3   189  SER189     -0.2179
     53  N         31.3120  -20.4200  -30.1700 N.am  190  CYS190     -0.1953
     54  CA        30.9450  -19.1870  -29.4730 C.3   190  CYS190      0.1843
     55  C         29.4330  -18.9550  -29.6260 C.2   190  CYS190      0.2625
     56  O         28.7390  -19.7610  -30.2560 O.2   190  CYS190     -0.2714
     57  CB        31.7460  -18.0190  -30.0460 C.3   190  CYS190      0.0997
     58  SG        31.8840  -16.4940  -29.0460 S.3   190  CYS190     -0.0797
     59  N         28.9260  -17.8530  -29.0480 N.am  191  GLN191     -0.1977
     60  CA        27.5020  -17.6190  -29.0110 C.3   191  GLN191      0.1601
     61  C         26.9290  -17.6490  -30.4630 C.2   191  GLN191      0.2287
     62  O         27.4910  -17.1010  -31.3980 O.2   191  GLN191     -0.2864
     63  CB        27.1950  -16.3210  -28.1920 C.3   191  GLN191      0.0394
     64  CG        26.0960  -16.4900  -27.1350 C.3   191  GLN191      0.0908
     65  CD        26.3630  -15.9020  -25.7340 C.2   191  GLN191      0.2608
     66  OE1       27.2520  -15.0270  -25.5140 O.2   191  GLN191     -0.2717
     67  NE2       25.5780  -16.4260  -24.7380 N.am  191  GLN191     -0.0878
     68  N         25.8430  -22.4820  -30.5000 N.3   194  SER194     -0.1217
     69  CA        25.0750  -23.3390  -29.5950 C.3   194  SER194      0.1889
     70  C         24.1350  -24.2280  -30.3380 C.2   194  SER194      0.2288
     71  O         23.4300  -23.7800  -31.2750 O.2   194  SER194     -0.2866
     72  CB        24.2560  -22.5200  -28.5650 C.3   194  SER194      0.2089
     73  OG        25.0990  -21.9990  -27.6010 O.3   194  SER194     -0.2183
     74  N         27.2150  -28.2280  -29.0690 N.3   212  VAL212     -0.1231
     75  CA        27.7200  -26.9740  -28.4900 C.3   212  VAL212      0.1692
     76  C         26.7720  -26.5230  -27.3730 C.2   212  VAL212      0.2593
     77  O         25.5570  -26.3060  -27.6450 O.2   212  VAL212     -0.2718
     78  CB        27.8260  -25.8300  -29.5340 C.3   212  VAL212      0.0266
     79  CG1       28.3390  -24.5830  -28.8570 C.3   212  VAL212      0.0020
     80  CG2       28.7400  -26.1770  -30.6790 C.3   212  VAL212      0.0020
     81  N         27.2980  -26.3760  -26.1550 N.am  213  SER213     -0.1938
     82  CA        26.4900  -26.0270  -24.9900 C.3   213  SER213      0.2055
     83  C         26.8750  -24.6850  -24.3050 C.2   213  SER213      0.2643
     84  O         26.0360  -23.8200  -24.1840 O.2   213  SER213     -0.2714
     85  CB        26.4800  -27.1590  -23.9580 C.3   213  SER213      0.2130
     86  OG        25.7160  -26.8250  -22.8360 O.3   213  SER213     -0.2179
     87  N         28.0880  -24.5430  -23.7960 N.am  214  TRP214     -0.1959
     88  CA        28.4490  -23.3290  -23.0430 C.3   214  TRP214      0.1771
     89  C         29.9470  -23.2760  -22.8510 C.2   214  TRP214      0.2620
     90  O         30.6690  -24.1370  -23.3710 O.2   214  TRP214     -0.2715
     91  CB        27.7320  -23.2220  -21.6930 C.3   214  TRP214      0.0590
     92  CG        28.1060  -24.2580  -20.6810 C.ar  214  TRP214      0.0006
     93  CD1       27.7610  -25.5950  -20.7030 C.ar  214  TRP214      0.0946
     94  CD2       28.8440  -24.0670  -19.4790 C.ar  214  TRP214      0.0152
     95  NE1       28.2510  -26.2440  -19.6010 N.ar  214  TRP214     -0.2442
     96  CE2       28.9740  -25.3290  -18.8580 C.ar  214  TRP214      0.0810
     97  CE3       29.5380  -22.9700  -18.9270 C.ar  214  TRP214      0.0012
     98  CZ2       29.6070  -25.4820  -17.6370 C.ar  214  TRP214      0.0191
     99  CZ3       30.2260  -23.1460  -17.7420 C.ar  214  TRP214      0.0001
    100  CH2       30.2460  -24.3840  -17.0970 C.ar  214  TRP214      0.0015
    101  N         30.3700  -22.2660  -22.1000 N.am  215  GLY215     -0.1940
    102  CA        31.7390  -22.1000  -21.6550 C.3   215  GLY215      0.2014
    103  C         31.7990  -20.7280  -21.0470 C.2   215  GLY215      0.2639
    104  O         30.8600  -19.9510  -21.1940 O.2   215  GLY215     -0.2714
    105  N         32.9130  -20.3700  -20.4350 N.am  216  GLU216     -0.1963
    106  CA        33.1540  -18.9820  -20.0060 C.3   216  GLU216      0.1733
    107  C         33.7530  -18.1950  -21.1930 C.2   216  GLU216      0.2617
    108  O         34.9270  -18.3160  -21.4550 O.2   216  GLU216     -0.2715
    109  CB        34.0980  -18.9590  -18.7910 C.3   216  GLU216      0.0429
    110  CG        33.4910  -19.6440  -17.5680 C.3   216  GLU216      0.1163
    111  CD        34.3010  -19.4750  -16.3010 C.2   216  GLU216      0.3649
    112  OE1       35.2150  -18.6170  -16.2970 O.co2 216  GLU216     -0.2457
    113  OE2       34.0270  -20.1790  -15.3340 O.co2 216  GLU216     -0.2457
    114  N         32.9430  -17.4050  -21.8650 N.am  217  GLY217     -0.1940
    115  CA        33.3580  -16.7120  -23.0540 C.3   217  GLY217      0.2014
    116  C         33.7840  -17.7450  -24.0910 C.2   217  GLY217      0.2639
    117  O         33.3580  -18.9110  -24.0700 O.2   217  GLY217     -0.2714
    118  N         34.5700  -17.2680  -25.0290 N.am  218  CYS218     -0.1967
    119  CA        35.0290  -18.0050  -26.1960 C.3   218  CYS218      0.1712
    120  C         36.5210  -17.8140  -26.2730 C.2   218  CYS218      0.2296
    121  O         37.0270  -16.6780  -26.1210 O.2   218  CYS218     -0.2864
    122  CB        34.3340  -17.4510  -27.4480 C.3   218  CYS218      0.0983
    123  SG        32.5250  -17.3000  -27.2660 S.3   218  CYS218     -0.0798
    124  N         39.6610  -21.9910  -20.2690 N.3   223  ARG223     -0.1231
    125  CA        38.2310  -22.1190  -20.3540 C.3   223  ARG223      0.1679
    126  C         37.8040  -22.7220  -21.6830 C.2   223  ARG223      0.2434
    127  O         37.2070  -22.0610  -22.5450 O.2   223  ARG223     -0.2733
    128  CB        37.5870  -20.7370  -20.1510 C.3   223  ARG223      0.0321
    129  CG        37.7990  -20.0520  -18.8190 C.3   223  ARG223      0.0489
    130  CD        37.2590  -20.7930  -17.6070 C.3   223  ARG223      0.2205
    131  NE        37.4080  -20.0030  -16.3750 N.pl3 223  ARG223     -0.0865
    132  CZ        38.4470  -20.1230  -15.5140 C.cat 223  ARG223      0.5346
    133  NH1       39.4100  -21.0290  -15.7040 N.pl3 223  ARG223      0.1354
    134  NH2       38.5070  -19.3520  -14.4360 N.pl3 223  ARG223      0.1354
    135  N         38.1330  -23.9900  -21.8920 N.am  224  PRO224     -0.2718
    136  CA        37.6720  -24.6290  -23.1260 C.3   224  PRO224      0.1535
    137  C         36.1650  -24.6640  -23.3270 C.2   224  PRO224      0.2599
    138  O         35.3800  -24.4920  -22.3740 O.2   224  PRO224     -0.2715
    139  CB        38.2350  -26.0620  -23.0580 C.3   224  PRO224      0.0310
    140  CG        38.6580  -26.2450  -21.6400 C.3   224  PRO224      0.0237
    141  CD        38.8700  -24.8940  -20.9970 C.3   224  PRO224      0.0939
    142  N         35.7650  -24.8590  -24.5790 N.am  225  GLY225     -0.1941
    143  CA        34.3540  -24.9850  -24.9080 C.3   225  GLY225      0.2014
    144  C         33.7820  -26.2340  -24.2960 C.2   225  GLY225      0.2638
    145  O         34.4560  -27.2960  -24.2320 O.2   225  GLY225     -0.2714
    146  N         32.5230  -26.1370  -23.8630 N.am  226  ILE226     -0.1977
    147  CA        31.8420  -27.2650  -23.2560 C.3   226  ILE226      0.1596
    148  C         30.6640  -27.6570  -24.1050 C.2   226  ILE226      0.2287
    149  O         29.8960  -26.7960  -24.6120 O.2   226  ILE226     -0.2864
    150  CB        31.4010  -26.9540  -21.8100 C.3   226  ILE226      0.0276
    151  CG1       32.6230  -26.4750  -21.0080 C.3   226  ILE226      0.0022
    152  CG2       30.7240  -28.1730  -21.1490 C.3   226  ILE226      0.0022
    153  CD1       32.3670  -25.9000  -19.6220 C.3   226  ILE226      0.0001
@<TRIPOS>BOND
     1    42    41    2
     2    62    61    2
     3    71    70    2
     4    39    40    1
     5    41    47   am
     6    41    40    1
     7    80    78    1
     8    48    51    1
     9    48    47    1
    10    48    49    1
    11    68    69    1
    12    61    60    1
    13    70    69    1
    14    51    52    1
    15    56    55    2
    16    53    49   am
    17    53    54    1
    18    40    43    1
    19    57    54    1
    20    57    58    1
    21    49    50    2
    22    55    54    1
    23    55    59   am
    24    69    72    1
    25    78    79    1
    26    78    75    1
    27    74    75    1
    28    59    60    1
    29    58   123    1
    30    60    63    1
    31    43    44    1
    32    72    73    1
    33    75    76    1
    34    63    64    1
    35    45    44   ar
    36    77    76    2
    37    44    46   ar
    38   122   123    1
    39   122   119    1
    40    76    81   am
    41    64    65    1
    42   120   119    1
    43   120   121    2
    44   119   118    1
    45    81    82    1
    46    10     9   ar
    47    10     8   ar
    48    65    66    2
    49    65    67   am
    50     9     7   ar
    51     3     4    2
    52     3     2    1
    53   118   116   am
    54     8     6   ar
    55    82    83    1
    56    82    85    1
    57   143   142    1
    58   143   144    1
    59   149   148    2
    60   142   137   am
    61     7     6   ar
    62    83    84    2
    63    83    87   am
    64   144   145    2
    65   144   146   am
    66     6     5    1
    67     1     2    1
    68   148   147    1
    69   116   117    2
    70   116   115    1
    71    85    86    1
    72     2     5    1
    73   146   147    1
    74    87    88    1
    75    90    89    2
    76   137   136    1
    77   137   138    2
    78   147   150    1
    79   136   139    1
    80   136   135    1
    81   139   140    1
    82   115   114    1
    83    88    89    1
    84    88    91    1
    85    89   101   am
    86   127   126    2
    87   101   102    1
    88   135   126   am
    89   135   141    1
    90   114   107   am
    91   150   152    1
    92   150   151    1
    93    91    92    1
    94   126   125    1
    95   102   103    1
    96   140   141    1
    97   108   107    2
    98   104   103    2
    99   107   106    1
   100   103   105   am
   101   151   153    1
   102    93    92   ar
   103    93    95   ar
   104    92    94   ar
   105   105   106    1
   106   125   124    1
   107   125   128    1
   108   128   129    1
   109   106   109    1
   110    95    96   ar
   111    94    97   ar
   112    94    96   ar
   113    97    99   ar
   114    96    98   ar
   115   129   130    1
   116   109   110    1
   117    38    36   am
   118    25    26    2
   119    25    24    1
   120    99   100   ar
   121    98   100   ar
   122   130   131    1
   123   110   111    1
   124    14    13    2
   125    24    23    1
   126    24    27    1
   127    30    31    1
   128    13    23   am
   129    13    12    1
   130    11    12    1
   131    36    37    2
   132    36    35    1
   133    12    15    1
   134   131   132    2
   135   111   112   ar
   136   111   113   ar
   137    27    29    1
   138    27    28    1
   139    31    32    1
   140    31    34    1
   141    35    34    1
   142   133   132    1
   143   132   134    1
   144    32    33    2
   145    17    19   ar
   146    17    16   ar
   147    15    16    1
   148    19    21   ar
   149    16    18   ar
   150    21    22    1
   151    21    20   ar
   152    18    20   ar
