@<TRIPOS>MOLECULE
tmp/4mpxA01.pdb
 161 159 0 0 0
SMALL
GASTEIGER

@<TRIPOS>ATOM
      1  N        -26.3770  -17.2320   20.8550 N.3    44  HIS44      -0.1241
      2  CA       -26.1390  -17.3450   19.4370 C.3    44  HIS44       0.1621
      3  C        -25.0550  -18.3910   19.1980 C.2    44  HIS44       0.2264
      4  O        -24.9200  -18.9090   18.0900 O.2    44  HIS44      -0.2867
      5  CB       -25.8030  -15.9660   18.7720 C.3    44  HIS44       0.0745
      6  CG       -24.3650  -15.5510   18.8860 C.ar   44  HIS44       0.0817
      7  ND1      -23.9270  -14.6420   19.8150 N.ar   44  HIS44      -0.2268
      8  CD2      -23.2580  -15.9300   18.1980 C.ar   44  HIS44       0.1154
      9  CE1      -22.6500  -14.4080   19.6560 C.ar   44  HIS44       0.1986
     10  NE2      -22.2080  -15.2130   18.7130 N.ar   44  HIS44      -0.2212
     11  N        -33.5550  -14.5140   19.6560 N.3    84  TYR84      -0.1227
     12  CA       -33.6140  -14.9130   18.2450 C.3    84  TYR84       0.1736
     13  C        -32.3750  -14.4980   17.4910 C.2    84  TYR84       0.2596
     14  O        -31.7750  -15.3080   16.8100 O.2    84  TYR84      -0.2718
     15  CB       -34.9210  -14.4930   17.4840 C.3    84  TYR84       0.0548
     16  CG       -34.9140  -15.0840   16.1380 C.ar   84  TYR84      -0.0200
     17  CD1      -35.0800  -16.4660   15.9320 C.ar   84  TYR84      -0.0009
     18  CD2      -34.6210  -14.3080   15.0350 C.ar   84  TYR84      -0.0009
     19  CE1      -34.9480  -17.0180   14.6590 C.ar   84  TYR84       0.0417
     20  CE2      -34.5360  -14.8490   13.7750 C.ar   84  TYR84       0.0417
     21  CZ       -34.6660  -16.1830   13.5920 C.ar   84  TYR84       0.1957
     22  OH       -34.5420  -16.6420   12.3090 O.3    84  TYR84      -0.2866
     23  N        -31.9660  -13.2420   17.6340 N.am   85  THR85      -0.1953
     24  CA       -30.6580  -12.8280   17.1520 C.3    85  THR85       0.1897
     25  C        -30.0090  -11.8890   18.1090 C.2    85  THR85       0.2313
     26  O        -30.6740  -11.1930   18.9290 O.2    85  THR85      -0.2863
     27  CB       -30.7420  -12.0730   15.7920 C.3    85  THR85       0.1794
     28  OG1      -31.2200  -10.7380   15.9910 O.3    85  THR85      -0.2208
     29  CG2      -31.7160  -12.7310   14.9350 C.3    85  THR85       0.0378
     30  N        -28.5550   -9.0620   17.5000 N.3    87  GLN87      -0.1245
     31  CA       -28.9380   -7.6380   17.3170 C.3    87  GLN87       0.1566
     32  C        -30.2630   -7.2670   17.9940 C.2    87  GLN87       0.2260
     33  O        -30.5230   -6.1040   18.2870 O.2    87  GLN87      -0.2867
     34  CB       -29.0450   -7.2620   15.8450 C.3    87  GLN87       0.0367
     35  CG       -27.7090   -7.2230   15.1140 C.3    87  GLN87       0.0905
     36  CD       -27.1160   -8.5840   14.9560 C.2    87  GLN87       0.2608
     37  OE1      -27.8050   -9.5620   14.6160 O.2    87  GLN87      -0.2717
     38  NE2      -25.8390   -8.6810   15.2460 N.am   87  GLN87      -0.0878
     39  N        -10.0050   -8.3700   12.5070 N.3   135  ASN135     -0.1240
     40  CA       -11.0150   -8.8140   11.5170 C.3   135  ASN135      0.1653
     41  C        -10.3900   -9.8340   10.5680 C.2   135  ASN135      0.2266
     42  O         -9.3310   -9.5950   10.0500 O.2   135  ASN135     -0.2867
     43  CB       -11.5730   -7.6640   10.6660 C.3   135  ASN135      0.1155
     44  CG       -12.2960   -6.6140   11.5060 C.2   135  ASN135      0.2627
     45  OD1      -13.4040   -6.8300   12.0410 O.2   135  ASN135     -0.2716
     46  ND2      -11.6350   -5.5320   11.7020 N.am  135  ASN135     -0.0877
     47  N        -10.5700   -4.8340   21.8170 N.3   188  ASP188     -0.1225
     48  CA       -11.8830   -5.4020   21.5690 C.3   188  ASP188      0.1805
     49  C        -11.8650   -6.9420   21.6190 C.2   188  ASP188      0.2598
     50  O        -10.8080   -7.6270   21.6170 O.2   188  ASP188     -0.2718
     51  CB       -12.4080   -4.9220   20.1830 C.3   188  ASP188      0.1424
     52  CG       -13.9300   -4.8930   20.0470 C.2   188  ASP188      0.3668
     53  OD1      -14.6690   -5.3470   20.9460 O.co2 188  ASP188     -0.2456
     54  OD2      -14.4010   -4.4320   18.9970 O.co2 188  ASP188     -0.2456
     55  N        -13.0720   -7.4780   21.5910 N.am  189  SER189     -0.1938
     56  CA       -13.3100   -8.8950   21.4070 C.3   189  SER189      0.2055
     57  C        -13.6010   -9.0960   19.9320 C.2   189  SER189      0.2643
     58  O        -13.8250   -8.1310   19.1630 O.2   189  SER189     -0.2714
     59  CB       -14.5240   -9.3080   22.2320 C.3   189  SER189      0.2130
     60  OG       -15.5950   -8.4410   21.9190 O.3   189  SER189     -0.2179
     61  N        -13.5220  -10.3350   19.4980 N.am  190  CYS190     -0.1953
     62  CA       -13.7130  -10.5960   18.0920 C.3   190  CYS190      0.1843
     63  C        -14.2890  -11.9550   17.8950 C.2   190  CYS190      0.2625
     64  O        -14.5790  -12.6260   18.9020 O.2   190  CYS190     -0.2714
     65  CB       -12.3950  -10.3470   17.3230 C.3   190  CYS190      0.0997
     66  SG       -12.6170  -10.0940   15.5370 S.3   190  CYS190     -0.0797
     67  N        -14.4970  -12.3800   16.6340 N.am  191  GLN191     -0.1977
     68  CA       -15.1140  -13.7260   16.3480 C.3   191  GLN191      0.1601
     69  C        -14.3720  -14.8430   17.0100 C.2   191  GLN191      0.2287
     70  O        -13.1470  -14.8350   16.9770 O.2   191  GLN191     -0.2864
     71  CB       -15.1430  -14.0190   14.8560 C.3   191  GLN191      0.0394
     72  CG       -15.9260  -12.9530   14.1110 C.3   191  GLN191      0.0908
     73  CD       -16.3620  -13.3740   12.7120 C.2   191  GLN191      0.2608
     74  OE1      -16.6890  -14.5480   12.4350 O.2   191  GLN191     -0.2717
     75  NE2      -16.3550  -12.4040   11.8150 N.am  191  GLN191     -0.0878
     76  N        -17.0470  -14.9210   21.3850 N.3   194  SER194     -0.1217
     77  CA       -18.4590  -14.8600   21.7010 C.3   194  SER194      0.1889
     78  C        -18.7420  -15.8690   22.7910 C.2   194  SER194      0.2288
     79  O        -18.1960  -16.9680   22.7670 O.2   194  SER194     -0.2866
     80  CB       -19.2800  -15.1960   20.4570 C.3   194  SER194      0.2089
     81  OG       -19.3260  -14.0990   19.5390 O.3   194  SER194     -0.2183
     82  N        -19.7160  -11.7540   25.8410 N.3   212  VAL212     -0.1231
     83  CA       -19.3950  -11.3130   24.5000 C.3   212  VAL212      0.1692
     84  C        -20.4890  -11.7000   23.5120 C.2   212  VAL212      0.2593
     85  O        -20.7690  -12.8920   23.3380 O.2   212  VAL212     -0.2718
     86  CB       -18.0800  -11.9130   24.0010 C.3   212  VAL212      0.0266
     87  CG1      -17.8180  -11.4830   22.5720 C.3   212  VAL212      0.0020
     88  CG2      -16.9260  -11.5540   24.9280 C.3   212  VAL212      0.0020
     89  N        -21.0380  -10.6960   22.8000 N.am  213  SER213     -0.1938
     90  CA       -22.2120  -10.9660   21.9740 C.3   213  SER213      0.2055
     91  C        -22.0600  -10.6080   20.5260 C.2   213  SER213      0.2643
     92  O        -22.1530  -11.4820   19.7050 O.2   213  SER213     -0.2714
     93  CB       -23.4430  -10.2340   22.5540 C.3   213  SER213      0.2130
     94  OG       -24.5370  -10.4400   21.6640 O.3   213  SER213     -0.2179
     95  N        -21.9060   -9.3230   20.1790 N.am  214  TRP214     -0.1959
     96  CA       -21.7250   -8.9260   18.8020 C.3   214  TRP214      0.1771
     97  C        -21.0390   -7.5440   18.6820 C.2   214  TRP214      0.2620
     98  O        -20.5360   -6.9780   19.6440 O.2   214  TRP214     -0.2715
     99  CB       -23.0310   -8.9860   17.9840 C.3   214  TRP214      0.0590
    100  CG       -24.0390   -7.9720   18.4530 C.ar  214  TRP214      0.0006
    101  CD1      -24.6930   -7.9540   19.6100 C.ar  214  TRP214      0.0946
    102  CD2      -24.4580   -6.7890   17.7290 C.ar  214  TRP214      0.0152
    103  NE1      -25.5200   -6.8670   19.6750 N.ar  214  TRP214     -0.2442
    104  CE2      -25.3800   -6.1400   18.5160 C.ar  214  TRP214      0.0810
    105  CE3      -24.1300   -6.2570   16.4710 C.ar  214  TRP214      0.0012
    106  CZ2      -26.0180   -4.9450   18.1040 C.ar  214  TRP214      0.0191
    107  CZ3      -24.7140   -5.0700   16.0650 C.ar  214  TRP214      0.0001
    108  CH2      -25.7010   -4.4600   16.8620 C.ar  214  TRP214      0.0015
    109  N        -20.8960   -7.1050   17.4450 N.am  215  GLY215     -0.1940
    110  CA       -20.4210   -5.8130   17.1320 C.3   215  GLY215      0.2014
    111  C        -20.4580   -5.7300   15.6230 C.2   215  GLY215      0.2639
    112  O        -20.6440   -6.7610   14.9530 O.2   215  GLY215     -0.2714
    113  N        -20.2040   -4.5280   15.0770 N.am  216  GLU216     -0.1963
    114  CA       -19.9000   -4.3820   13.6590 C.3   216  GLU216      0.1733
    115  C        -18.4040   -4.4980   13.4910 C.2   216  GLU216      0.2617
    116  O        -17.6160   -3.6040   13.8430 O.2   216  GLU216     -0.2715
    117  CB       -20.4360   -3.0800   13.0670 C.3   216  GLU216      0.0429
    118  CG       -21.9660   -2.9900   13.0050 C.3   216  GLU216      0.1163
    119  CD       -22.5230   -1.7060   12.3010 C.2   216  GLU216      0.3649
    120  OE1      -21.7410   -0.9620   11.5720 O.co2 216  GLU216     -0.2457
    121  OE2      -23.7710   -1.4820   12.4630 O.co2 216  GLU216     -0.2457
    122  N        -18.0000   -5.6690   13.0370 N.am  217  GLY217     -0.1940
    123  CA       -16.6030   -6.0660   13.1180 C.3   217  GLY217      0.2014
    124  C        -15.9520   -5.9900   14.4800 C.2   217  GLY217      0.2639
    125  O        -16.6040   -6.1290   15.5390 O.2   217  GLY217     -0.2714
    126  N        -14.6130   -5.8030   14.4540 N.am  218  CYS218     -0.1967
    127  CA       -13.8250   -5.7970   15.6290 C.3   218  CYS218      0.1712
    128  C        -12.9350   -4.6070   15.5630 C.2   218  CYS218      0.2296
    129  O        -12.3300   -4.3900   14.5190 O.2   218  CYS218     -0.2864
    130  CB       -12.9460   -7.0920   15.5900 C.3   218  CYS218      0.0983
    131  SG       -14.0090   -8.5050   15.4400 S.3   218  CYS218     -0.0798
    132  N        -17.6070    1.7440   16.4420 N.3   223  ARG223     -0.1231
    133  CA       -18.3330    0.4910   16.5850 C.3   223  ARG223      0.1679
    134  C        -17.7370   -0.3280   17.7390 C.2   223  ARG223      0.2434
    135  O        -17.1250   -1.3650   17.5250 O.2   223  ARG223     -0.2733
    136  CB       -18.2870   -0.2790   15.2550 C.3   223  ARG223      0.0321
    137  CG       -18.9750    0.4150   14.0990 C.3   223  ARG223      0.0489
    138  CD       -20.4730    0.5880   14.2960 C.3   223  ARG223      0.2205
    139  NE       -21.0850    1.1130   13.0870 N.pl3 223  ARG223     -0.0865
    140  CZ       -21.2830    2.4000   12.8290 C.cat 223  ARG223      0.5346
    141  NH1      -20.8690    3.3380   13.6710 N.pl3 223  ARG223      0.1354
    142  NH2      -21.7970    2.7380   11.6670 N.pl3 223  ARG223      0.1354
    143  N        -17.9280    0.1280   18.9740 N.am  224  PRO224     -0.2718
    144  CA       -17.4680   -0.6780   20.1030 C.3   224  PRO224      0.1535
    145  C        -18.1650   -2.0470   20.1870 C.2   224  PRO224      0.2599
    146  O        -19.2580   -2.2720   19.6390 O.2   224  PRO224     -0.2715
    147  CB       -17.8480    0.1610   21.3480 C.3   224  PRO224      0.0310
    148  CG       -18.2240    1.5170   20.8350 C.3   224  PRO224      0.0237
    149  CD       -18.6200    1.3540   19.4030 C.3   224  PRO224      0.0939
    150  N        -17.5020   -2.9300   20.8970 N.am  225  GLY225     -0.1941
    151  CA       -17.9820   -4.2940   21.0900 C.3   225  GLY225      0.2014
    152  C        -19.2410   -4.2610   21.9350 C.2   225  GLY225      0.2638
    153  O        -19.3840   -3.4640   22.8720 O.2   225  GLY225     -0.2714
    154  N        -20.1470   -5.1570   21.6360 N.am  226  ILE226     -0.1977
    155  CA       -21.3930   -5.2160   22.4020 C.3   226  ILE226      0.1596
    156  C        -21.5040   -6.5250   23.1260 C.2   226  ILE226      0.2287
    157  O        -21.2430   -7.6130   22.5540 O.2   226  ILE226     -0.2864
    158  CB       -22.5800   -4.9850   21.4650 C.3   226  ILE226      0.0276
    159  CG1      -22.4090   -3.5990   20.8080 C.3   226  ILE226      0.0022
    160  CG2      -23.9030   -5.1130   22.2130 C.3   226  ILE226      0.0022
    161  CD1      -23.2060   -3.5130   19.5640 C.3   226  ILE226      0.0001
@<TRIPOS>BOND
     1    42    41    2
     2    41    40    1
     3    43    44    1
     4    43    40    1
     5    44    46   am
     6    44    45    2
     7    40    39    1
     8   120   119   ar
     9   142   140    1
    10    75    73   am
    11   119   121   ar
    12   119   118    1
    13    22    21    1
    14    74    73    2
    15    73    72    1
    16   140   139    2
    17   140   141    1
    18   118   117    1
    19   122   123    1
    20   122   115   am
    21   117   114    1
    22   139   138    1
    23   123   124    1
    24   115   114    1
    25   115   116    2
    26    21    20   ar
    27    21    19   ar
    28   114   113    1
    29    20    18   ar
    30   137   138    1
    31   137   136    1
    32    72    71    1
    33   126   124   am
    34   126   127    1
    35   124   125    2
    36   129   128    2
    37    37    36    2
    38    19    17   ar
    39    71    68    1
    40    29    27    1
    41   112   111    2
    42    36    35    1
    43    36    38   am
    44    18    16   ar
    45   113   111   am
    46    35    34    1
    47   136   133    1
    48   131    66    1
    49   131   130    1
    50    66    65    1
    51   128   127    1
    52   130   127    1
    53   111   110    1
    54    27    28    1
    55    27    24    1
    56    34    31    1
    57    17    16   ar
    58   107   105   ar
    59   107   108   ar
    60    16    15    1
    61    68    67    1
    62    68    69    1
    63   132   133    1
    64   105   102   ar
    65   133   134    1
    66    67    63   am
    67    14    13    2
    68   108   106   ar
    69    70    69    2
    70   110   109    1
    71    24    23    1
    72    24    25    1
    73    31    30    1
    74    31    32    1
    75    65    62    1
    76   109    97   am
    77    15    12    1
    78    13    23   am
    79    13    12    1
    80   135   134    2
    81   102   100   ar
    82   102   104   ar
    83   134   143   am
    84    63    62    1
    85    63    64    2
    86    99   100    1
    87    99    96    1
    88    32    33    2
    89     4     3    2
    90    62    61    1
    91   106   104   ar
    92    25    26    2
    93     8    10   ar
    94     8     6   ar
    95    12    11    1
    96   100   101   ar
    97   104   103   ar
    98    97    96    1
    99    97    98    2
   100    10     9   ar
   101     5     6    1
   102     5     2    1
   103    96    95    1
   104     6     7   ar
   105   143   149    1
   106   143   144    1
   107    54    52   ar
   108    58    57    2
   109     3     2    1
   110   149   148    1
   111     2     1    1
   112    61    57   am
   113    81    80    1
   114   161   159    1
   115   101   103   ar
   116   146   145    2
   117     9     7   ar
   118    92    91    2
   119    57    56    1
   120    52    51    1
   121    52    53   ar
   122   144   145    1
   123   144   147    1
   124    95    91   am
   125    51    48    1
   126   145   150   am
   127    80    77    1
   128    91    90    1
   129   159   158    1
   130   148   147    1
   131   150   151    1
   132   151   152    1
   133    76    77    1
   134    56    55    1
   135    56    59    1
   136   158   160    1
   137   158   155    1
   138    48    49    1
   139    48    47    1
   140    55    49   am
   141    50    49    2
   142   154   152   am
   143   154   155    1
   144    94    93    1
   145    77    78    1
   146    60    59    1
   147   152   153    2
   148    90    93    1
   149    90    89    1
   150   155   156    1
   151   157   156    2
   152    87    86    1
   153    79    78    2
   154    89    84   am
   155    85    84    2
   156    84    83    1
   157    86    83    1
   158    86    88    1
   159    83    82    1
