@<TRIPOS>MOLECULE
tmp/4mq0A01.pdb
 71 68 0 0 0
SMALL
GASTEIGER

@<TRIPOS>ATOM
      1  N         16.7710   -5.6620   21.3230 N.3   304  GLY304     -0.1210
      2  CA        17.4720   -5.2380   20.1010 C.3   304  GLY304      0.1956
      3  C         17.0270   -3.9160   19.4650 C.2   304  GLY304      0.2612
      4  O         16.0500   -3.3320   19.8810 O.2   304  GLY304     -0.2717
      5  N         17.7630   -3.4300   18.4620 N.am  305  GLY305     -0.1942
      6  CA        17.3790   -2.2320   17.7330 C.3   305  GLY305      0.2014
      7  C         17.8950   -0.9320   18.3150 C.2   305  GLY305      0.2638
      8  O         18.2450   -0.8750   19.4800 O.2   305  GLY305     -0.2714
      9  N         17.9490    0.1140   17.4870 N.am  306  ASP306     -0.1971
     10  CA        18.2980    1.4450   17.9280 C.3   306  ASP306      0.1709
     11  C         17.1170    2.1690   18.5680 C.2   306  ASP306      0.2293
     12  O         15.9860    2.0580   18.1020 O.2   306  ASP306     -0.2864
     13  CB        18.8760    2.2650   16.7560 C.3   306  ASP306      0.1436
     14  CG        20.0570    1.5340   16.0520 C.2   306  ASP306      0.3671
     15  OD1       21.1310    1.3280   16.6770 O.co2 306  ASP306     -0.2456
     16  OD2       19.8990    1.1530   14.8780 O.co2 306  ASP306     -0.2456
     17  N         14.8490  -13.1400   16.0980 N.3   382  PHE382     -0.1241
     18  CA        14.6830  -11.8550   16.8050 C.3   382  PHE382      0.1605
     19  C         13.4810  -11.8560   17.7700 C.2   382  PHE382      0.2264
     20  O         12.4990  -12.5610   17.5380 O.2   382  PHE382     -0.2867
     21  CB        14.5260  -10.6930   15.8060 C.3   382  PHE382      0.0534
     22  CG        15.5580  -10.6740   14.7340 C.ar  382  PHE382     -0.0203
     23  CD1       15.2950  -11.2460   13.4950 C.ar  382  PHE382     -0.0042
     24  CD2       16.8030  -10.0890   14.9610 C.ar  382  PHE382     -0.0042
     25  CE1       16.2660  -11.2430   12.4780 C.ar  382  PHE382     -0.0003
     26  CE2       17.7880  -10.0810   13.9690 C.ar  382  PHE382     -0.0003
     27  CZ        17.5240  -10.6510   12.7250 C.ar  382  PHE382     -0.0000
     28  N         10.7680   -9.3730   18.7360 N.3   384  THR384     -0.1218
     29  CA        10.2510   -8.0590   18.3030 C.3   384  THR384      0.1862
     30  C          8.7400   -7.9810   18.5030 C.2   384  THR384      0.2287
     31  O          8.1070   -9.0000   18.7930 O.2   384  THR384     -0.2866
     32  CB        10.4910   -7.8300   16.8280 C.3   384  THR384      0.1770
     33  OG1        9.5620   -8.6440   16.0980 O.3   384  THR384     -0.2211
     34  CG2       11.9360   -8.1740   16.4400 C.3   384  THR384      0.0375
     35  N         14.1170   -0.0830   17.0670 N.3   424  ALA424     -0.1231
     36  CA        13.9170   -0.7170   15.8020 C.3   424  ALA424      0.1694
     37  C         15.1990   -0.8950   15.0150 C.2   424  ALA424      0.2593
     38  O         16.1110   -0.1470   15.1680 O.2   424  ALA424     -0.2718
     39  CB        12.9370    0.0640   15.0110 C.3   424  ALA424      0.0304
     40  N         15.2730   -1.8800   14.2060 N.am  425  GLY425     -0.1942
     41  CA        16.3300   -2.1240   13.2440 C.3   425  GLY425      0.2014
     42  C         15.6920   -2.5310   11.9320 C.2   425  GLY425      0.2639
     43  O         15.1200   -1.7010   11.2250 O.2   425  GLY425     -0.2714
     44  N         15.8930   -3.8270   11.5890 N.am  426  ASP426     -0.1957
     45  CA        15.2240   -4.3940   10.4470 C.3   426  ASP426      0.1840
     46  C         13.7440   -4.3800   10.7440 C.2   426  ASP426      0.2622
     47  O         12.9480   -4.2340    9.8610 O.2   426  ASP426     -0.2715
     48  CB        15.6570   -5.8270   10.2340 C.3   426  ASP426      0.1450
     49  CG        16.9420   -5.9640    9.4280 C.2   426  ASP426      0.3671
     50  OD1       17.7040   -5.0240    9.3010 O.co2 426  ASP426     -0.2456
     51  OD2       17.1910   -7.0570    8.9350 O.co2 426  ASP426     -0.2456
     52  N         13.3900   -4.5230   12.0120 N.am  427  TYR427     -0.1974
     53  CA        12.0050   -4.6080   12.4430 C.3   427  TYR427      0.1639
     54  C         11.6790   -3.6420   13.6000 C.2   427  TYR427      0.2290
     55  O         12.5260   -2.9270   14.0800 O.2   427  TYR427     -0.2864
     56  CB        11.6970   -6.0670   12.8200 C.3   427  TYR427      0.0560
     57  CG        12.2280   -7.0260   11.7880 C.ar  427  TYR427     -0.0198
     58  CD1       13.1840   -7.9810   12.1210 C.ar  427  TYR427     -0.0009
     59  CD2       11.8040   -6.9550   10.4560 C.ar  427  TYR427     -0.0009
     60  CE1       13.7120   -8.8700   11.1520 C.ar  427  TYR427      0.0417
     61  CE2       12.3270   -7.8410    9.4890 C.ar  427  TYR427      0.0417
     62  CZ        13.2950   -8.7950    9.8550 C.ar  427  TYR427      0.1957
     63  OH        13.8270   -9.6650    8.9080 O.3   427  TYR427     -0.2866
     64  N         11.4590   -3.6720   17.0320 N.3   429  ASP429     -0.1239
     65  CA        11.8290   -4.5060   18.1620 C.3   429  ASP429      0.1674
     66  C         10.8890   -4.2590   19.3560 C.2   429  ASP429      0.2266
     67  O         10.4610   -5.1950   20.0350 O.2   429  ASP429     -0.2867
     68  CB        13.2950   -4.2340   18.5950 C.3   429  ASP429      0.1410
     69  CG        14.3130   -4.6890   17.5570 C.2   429  ASP429      0.3668
     70  OD1       14.9230   -5.7490   17.7520 O.co2 429  ASP429     -0.2456
     71  OD2       14.4830   -3.9960   16.5430 O.co2 429  ASP429     -0.2456
@<TRIPOS>BOND
     1    63    62    1
     2    51    49   ar
     3    50    49   ar
     4    49    48    1
     5    61    62   ar
     6    61    59   ar
     7    62    60   ar
     8    47    46    2
     9    48    45    1
    10    45    46    1
    11    45    44    1
    12    59    57   ar
    13    46    52   am
    14    60    58   ar
    15    43    42    2
    16    44    42   am
    17    57    58   ar
    18    57    56    1
    19    42    41    1
    20    52    53    1
    21    53    56    1
    22    53    54    1
    23    25    27   ar
    24    25    23   ar
    25    27    26   ar
    26    41    40    1
    27    23    22   ar
    28    54    55    2
    29    26    24   ar
    30    40    37   am
    31    22    24   ar
    32    22    21    1
    33    16    14   ar
    34    39    36    1
    35    37    38    2
    36    37    36    1
    37    36    35    1
    38    21    18    1
    39    14    15   ar
    40    14    13    1
    41    33    32    1
    42    17    18    1
    43    34    32    1
    44    71    69   ar
    45    13    10    1
    46    18    19    1
    47    32    29    1
    48    64    65    1
    49     9    10    1
    50     9     7   am
    51    20    19    2
    52    69    70   ar
    53    69    68    1
    54     6     7    1
    55     6     5    1
    56    10    11    1
    57    12    11    2
    58    65    68    1
    59    65    66    1
    60    29    30    1
    61    29    28    1
    62     7     8    2
    63     5     3   am
    64    30    31    2
    65    66    67    2
    66     3     4    2
    67     3     2    1
    68     2     1    1
