@<TRIPOS>MOLECULE
tmp/4mq0A02.pdb
 80 77 0 0 0
SMALL
GASTEIGER

@<TRIPOS>ATOM
      1  N         22.6180   31.0090   -3.9620 N.3   160  ALA160     -0.1231
      2  CA        23.1420   29.9190   -4.7660 C.3   160  ALA160      0.1694
      3  C         23.2880   28.6190   -3.9770 C.2   160  ALA160      0.2593
      4  O         23.2950   28.6120   -2.7470 O.2   160  ALA160     -0.2718
      5  CB        24.4460   30.4010   -5.3840 C.3   160  ALA160      0.0304
      6  N         23.5130   27.5200   -4.5900 N.am  161  GLY161     -0.1942
      7  CA        23.2910   26.1820   -4.0740 C.3   161  GLY161      0.2014
      8  C         22.2410   25.5360   -4.9560 C.2   161  GLY161      0.2638
      9  O         21.0890   25.9700   -4.9860 O.2   161  GLY161     -0.2714
     10  N         22.6400   24.4930   -5.6770 N.am  162  ASP162     -0.1971
     11  CA        21.7310   23.7870   -6.5670 C.3   162  ASP162      0.1709
     12  C         20.9500   22.6610   -5.8560 C.2   162  ASP162      0.2293
     13  O         19.8340   22.3540   -6.2870 O.2   162  ASP162     -0.2864
     14  CB        22.4600   23.3080   -7.8330 C.3   162  ASP162      0.1436
     15  CG        23.6260   22.3740   -7.5250 C.2   162  ASP162      0.3671
     16  OD1       24.1910   22.4410   -6.4130 O.co2 162  ASP162     -0.2456
     17  OD2       23.9860   21.5690   -8.4030 O.co2 162  ASP162     -0.2456
     18  N         30.9040   19.4430   -2.1670 N.3   202  GLN202     -0.1245
     19  CA        31.0910   18.8510   -3.4900 C.3   202  GLN202      0.1566
     20  C         32.3320   19.3700   -4.2330 C.2   202  GLN202      0.2260
     21  O         32.4790   19.0780   -5.4000 O.2   202  GLN202     -0.2867
     22  CB        29.8290   19.0340   -4.3530 C.3   202  GLN202      0.0367
     23  CG        28.6630   18.1130   -3.9770 C.3   202  GLN202      0.0905
     24  CD        27.3150   18.6250   -4.4760 C.2   202  GLN202      0.2608
     25  OE1       27.2250   19.3750   -5.4610 O.2   202  GLN202     -0.2717
     26  NE2       26.2520   18.2270   -3.7930 N.am  202  GLN202     -0.0878
     27  N         31.8040   32.8670   -4.3000 N.3   235  PHE235     -0.1241
     28  CA        30.4330   32.4770   -3.8670 C.3   235  PHE235      0.1605
     29  C         30.0370   33.1590   -2.5480 C.2   235  PHE235      0.2264
     30  O         30.8600   33.2960   -1.6440 O.2   235  PHE235     -0.2867
     31  CB        30.3580   30.9750   -3.6390 C.3   235  PHE235      0.0534
     32  CG        30.7680   30.1400   -4.8270 C.ar  235  PHE235     -0.0203
     33  CD1       32.0750   29.5920   -4.9010 C.ar  235  PHE235     -0.0042
     34  CD2       29.8390   29.8540   -5.8570 C.ar  235  PHE235     -0.0042
     35  CE1       32.4480   28.7870   -6.0070 C.ar  235  PHE235     -0.0003
     36  CE2       30.2080   29.0560   -6.9660 C.ar  235  PHE235     -0.0003
     37  CZ        31.5040   28.5210   -7.0430 C.ar  235  PHE235     -0.0000
     38  N         28.6070   32.5940    0.7930 N.3   237  VAL237     -0.1245
     39  CA        28.2600   31.3680    1.4980 C.3   237  VAL237      0.1561
     40  C         28.4320   31.5230    2.9660 C.2   237  VAL237      0.2260
     41  O         28.9130   32.5450    3.4480 O.2   237  VAL237     -0.2867
     42  CB        29.1080   30.1310    1.0380 C.3   237  VAL237      0.0252
     43  CG1       29.0010   29.8850   -0.4900 C.3   237  VAL237      0.0019
     44  CG2       30.5770   30.2460    1.5500 C.3   237  VAL237      0.0019
     45  N         26.2490   23.0160   -2.3490 N.3   278  GLY278     -0.1210
     46  CA        26.8080   22.6310   -3.6490 C.3   278  GLY278      0.1956
     47  C         28.2250   22.2290   -3.3660 C.2   278  GLY278      0.2612
     48  O         28.4490   21.2640   -2.6230 O.2   278  GLY278     -0.2717
     49  N         29.1790   22.9860   -3.9150 N.am  279  TYR279     -0.1962
     50  CA        30.5680   22.8610   -3.4850 C.3   279  TYR279      0.1771
     51  C         30.6720   23.0900   -1.9750 C.2   279  TYR279      0.2619
     52  O         31.4500   22.4360   -1.2670 O.2   279  TYR279     -0.2715
     53  CB        31.4620   23.8700   -4.2360 C.3   279  TYR279      0.0574
     54  CG        32.0790   23.3070   -5.5190 C.ar  279  TYR279     -0.0198
     55  CD1       31.5450   22.1530   -6.1300 C.ar  279  TYR279     -0.0009
     56  CD2       33.1490   23.9550   -6.1470 C.ar  279  TYR279     -0.0009
     57  CE1       32.0810   21.6360   -7.3050 C.ar  279  TYR279      0.0417
     58  CE2       33.7000   23.4510   -7.3440 C.ar  279  TYR279      0.0417
     59  CZ        33.1540   22.2870   -7.9120 C.ar  279  TYR279      0.1957
     60  OH        33.6730   21.7650   -9.0790 O.3   279  TYR279     -0.2866
     61  N         29.8950   24.0510   -1.4870 N.am  280  TYR280     -0.1974
     62  CA        29.9850   24.4570   -0.0720 C.3   280  TYR280      0.1639
     63  C         28.5630   24.7490    0.3850 C.2   280  TYR280      0.2290
     64  O         27.6160   24.3970   -0.3320 O.2   280  TYR280     -0.2864
     65  CB        30.8720   25.7060    0.0910 C.3   280  TYR280      0.0560
     66  CG        32.0570   25.8100   -0.8700 C.ar  280  TYR280     -0.0198
     67  CD1       32.0950   26.8040   -1.8660 C.ar  280  TYR280     -0.0009
     68  CD2       33.1440   24.9340   -0.7710 C.ar  280  TYR280     -0.0009
     69  CE1       33.1690   26.9230   -2.7260 C.ar  280  TYR280      0.0417
     70  CE2       34.2190   25.0330   -1.6550 C.ar  280  TYR280      0.0417
     71  CZ        34.2260   26.0390   -2.6210 C.ar  280  TYR280      0.1957
     72  OH        35.2870   26.1400   -3.4910 O.3   280  TYR280     -0.2866
     73  N         26.0330   27.2690    0.7820 N.3   282  ASP282     -0.1239
     74  CA        25.5460   28.5540    0.3360 C.3   282  ASP282      0.1674
     75  C         24.6810   29.2510    1.3670 C.2   282  ASP282      0.2266
     76  O         24.8430   30.4660    1.5710 O.2   282  ASP282     -0.2867
     77  CB        24.7380   28.3400   -0.9410 C.3   282  ASP282      0.1410
     78  CG        25.6030   27.7820   -2.0480 C.2   282  ASP282      0.3668
     79  OD1       26.0210   28.5740   -2.9230 O.co2 282  ASP282     -0.2456
     80  OD2       25.9330   26.5790   -1.9950 O.co2 282  ASP282     -0.2456
@<TRIPOS>BOND
     1    60    59    1
     2    17    15   ar
     3    59    58   ar
     4    59    57   ar
     5    14    15    1
     6    14    11    1
     7    15    16   ar
     8    58    56   ar
     9    57    55   ar
    10    37    36   ar
    11    37    35   ar
    12    36    34   ar
    13    11    12    1
    14    11    10    1
    15    13    12    2
    16    56    54   ar
    17    55    54   ar
    18    35    33   ar
    19    34    32   ar
    20    10     8   am
    21    54    53    1
    22    25    24    2
    23    21    20    2
    24     5     2    1
    25     9     8    2
    26     8     7    1
    27    33    32   ar
    28    32    31    1
    29     2     3    1
    30     2     1    1
    31     6     7    1
    32     6     3   am
    33    24    23    1
    34    24    26   am
    35    22    23    1
    36    22    19    1
    37    27    28    1
    38    53    50    1
    39    20    19    1
    40     3     4    2
    41    49    50    1
    42    49    47   am
    43    28    31    1
    44    28    29    1
    45    46    47    1
    46    46    45    1
    47    72    71    1
    48    19    18    1
    49    50    51    1
    50    47    48    2
    51    79    78   ar
    52    69    71   ar
    53    69    67   ar
    54    71    70   ar
    55    29    30    2
    56    78    80   ar
    57    78    77    1
    58    51    61   am
    59    51    52    2
    60    67    66   ar
    61    70    68   ar
    62    61    62    1
    63    77    74    1
    64    66    68   ar
    65    66    65    1
    66    43    42    1
    67    64    63    2
    68    62    65    1
    69    62    63    1
    70    74    73    1
    71    74    75    1
    72    38    39    1
    73    42    39    1
    74    42    44    1
    75    75    76    2
    76    39    40    1
    77    40    41    2
