@<TRIPOS>MOLECULE
tmp/4mq1D00.pdb
 209 201 0 0 0
SMALL
GASTEIGER

@<TRIPOS>ATOM
      1  N        -21.7190  -16.0170  -40.3130 N.3    31  ILE31      -0.1231
      2  CA       -21.7940  -14.7950  -39.5410 C.3    31  ILE31       0.1692
      3  C        -22.4680  -15.0310  -38.2220 C.2    31  ILE31       0.2593
      4  O        -22.2500  -14.2910  -37.2710 O.2    31  ILE31      -0.2718
      5  CB       -22.7020  -13.7470  -40.1950 C.3    31  ILE31       0.0266
      6  CG1      -22.1400  -13.2770  -41.5150 C.3    31  ILE31       0.0019
      7  CG2      -22.8980  -12.5510  -39.2500 C.3    31  ILE31       0.0020
      8  CD1      -22.9960  -12.1980  -42.1600 C.3    31  ILE31       0.0001
      9  N        -23.3700  -15.9920  -38.1660 N.am   32  GLY32      -0.1942
     10  CA       -24.1780  -16.1230  -36.9690 C.3    32  GLY32       0.2014
     11  C        -25.1070  -17.3050  -36.9800 C.2    32  GLY32       0.2639
     12  O        -25.4850  -17.8030  -38.0420 O.2    32  GLY32      -0.2714
     13  N        -25.4280  -17.7680  -35.7780 N.am   33  LYS33      -0.1963
     14  CA       -26.3780  -18.8340  -35.5730 C.3    33  LYS33       0.1728
     15  C        -27.5080  -18.2760  -34.7950 C.2    33  LYS33       0.2617
     16  O        -27.3380  -17.3650  -33.9930 O.2    33  LYS33      -0.2715
     17  CB       -25.7670  -19.9560  -34.7720 C.3    33  LYS33       0.0311
     18  CG       -24.6210  -20.6270  -35.4760 C.3    33  LYS33       0.0038
     19  CD       -24.5430  -22.0870  -35.0780 C.3    33  LYS33       0.0206
     20  CE       -23.8260  -22.8830  -36.1420 C.3    33  LYS33       0.1093
     21  NZ       -24.2010  -24.3180  -36.0630 N.3    33  LYS33      -0.1314
     22  N        -28.6710  -18.8370  -35.0290 N.am   34  GLY34      -0.1940
     23  CA       -29.8740  -18.4180  -34.3290 C.3    34  GLY34       0.2014
     24  C        -30.8530  -19.5760  -34.2030 C.2    34  GLY34       0.2640
     25  O        -30.6520  -20.7000  -34.6830 O.2    34  GLY34      -0.2714
     26  N        -31.9060  -19.2780  -33.5040 N.am   35  SER35      -0.1935
     27  CA       -33.0100  -20.1870  -33.2840 C.3    35  SER35       0.2055
     28  C        -33.4970  -20.8070  -34.5760 C.2    35  SER35       0.2643
     29  O        -33.7930  -21.9870  -34.6040 O.2    35  SER35      -0.2714
     30  CB       -34.1260  -19.3630  -32.6690 C.3    35  SER35       0.2130
     31  OG       -34.8850  -20.1420  -31.8340 O.3    35  SER35      -0.2179
     32  N        -33.5490  -20.0270  -35.6620 N.am   36  PHE36      -0.1959
     33  CA       -34.1220  -20.5280  -36.9190 C.3    36  PHE36       0.1771
     34  C        -33.1400  -21.1000  -37.8940 C.2    36  PHE36       0.2620
     35  O        -33.5510  -21.7030  -38.8890 O.2    36  PHE36      -0.2715
     36  CB       -34.9010  -19.4180  -37.6580 C.3    36  PHE36       0.0574
     37  CG       -36.2970  -19.2410  -37.1700 C.ar   36  PHE36      -0.0200
     38  CD1      -36.5320  -18.8510  -35.8700 C.ar   36  PHE36      -0.0042
     39  CD2      -37.3800  -19.4900  -38.0060 C.ar   36  PHE36      -0.0042
     40  CE1      -37.8300  -18.7040  -35.3840 C.ar   36  PHE36      -0.0003
     41  CE2      -38.6830  -19.3240  -37.5450 C.ar   36  PHE36      -0.0003
     42  CZ       -38.9080  -18.9370  -36.2210 C.ar   36  PHE36      -0.0000
     43  N        -31.8580  -20.8490  -37.6750 N.am   37  GLY37      -0.1940
     44  CA       -30.8240  -21.3800  -38.5500 C.3    37  GLY37       0.2014
     45  C        -29.5370  -20.5800  -38.4890 C.2    37  GLY37       0.2639
     46  O        -29.1130  -20.1920  -37.4110 O.2    37  GLY37      -0.2714
     47  N        -28.9480  -20.3030  -39.6520 N.am   38  GLN38      -0.1963
     48  CA       -27.6660  -19.5840  -39.7510 C.3    38  GLN38       0.1733
     49  C        -27.7170  -18.4110  -40.7400 C.2    38  GLN38       0.2616
     50  O        -28.4540  -18.4490  -41.7320 O.2    38  GLN38      -0.2715
     51  CB       -26.5760  -20.5470  -40.2110 C.3    38  GLN38       0.0408
     52  CG       -26.3740  -21.7050  -39.2530 C.3    38  GLN38       0.0908
     53  CD       -25.5360  -22.8060  -39.8360 C.2    38  GLN38       0.2608
     54  OE1      -24.3580  -22.9740  -39.4740 O.2    38  GLN38      -0.2717
     55  NE2      -26.1180  -23.5640  -40.7540 N.am   38  GLN38      -0.0878
     56  N        -26.9380  -17.3670  -40.4620 N.am   39  VAL39      -0.1977
     57  CA       -26.6560  -16.3410  -41.4580 C.3    39  VAL39       0.1596
     58  C        -25.2250  -16.5000  -41.9000 C.2    39  VAL39       0.2287
     59  O        -24.3320  -16.5800  -41.0630 O.2    39  VAL39      -0.2864
     60  CB       -26.8790  -14.9200  -40.9470 C.3    39  VAL39       0.0276
     61  CG1      -26.6170  -13.9050  -42.0580 C.3    39  VAL39       0.0022
     62  CG2      -28.3020  -14.7800  -40.4520 C.3    39  VAL39       0.0022
     63  N        -26.0030  -11.2680  -47.3560 N.3    52  ALA52      -0.1245
     64  CA       -26.1790  -12.1080  -46.1950 C.3    52  ALA52       0.1562
     65  C        -27.2760  -13.0720  -46.5340 C.2    52  ALA52       0.2260
     66  O        -28.3630  -12.6560  -46.9200 O.2    52  ALA52      -0.2867
     67  CB       -26.5770  -11.2690  -45.0110 C.3    52  ALA52       0.0290
     68  N        -29.6130  -16.0370  -45.0570 N.3    54  LYS54      -0.1245
     69  CA       -30.1440  -16.7660  -43.9520 C.3    54  LYS54       0.1561
     70  C        -30.6030  -18.1240  -44.4350 C.2    54  LYS54       0.2260
     71  O        -31.5410  -18.2050  -45.1820 O.2    54  LYS54      -0.2867
     72  CB       -31.3070  -16.0220  -43.3030 C.3    54  LYS54       0.0271
     73  CG       -31.8120  -16.7700  -42.0730 C.3    54  LYS54       0.0035
     74  CD       -32.4090  -15.8650  -41.0240 C.3    54  LYS54       0.0206
     75  CE       -33.7940  -15.3930  -41.3720 C.3    54  LYS54       0.1093
     76  NZ       -34.3140  -14.4770  -40.3130 N.3    54  LYS54      -0.1314
     77  N        -35.2660   -4.3090  -43.1110 N.3    88  VAL88      -0.1245
     78  CA       -34.2440   -4.8920  -43.9430 C.3    88  VAL88       0.1561
     79  C        -34.8470   -5.4300  -45.2310 C.2    88  VAL88       0.2260
     80  O        -35.9780   -5.9270  -45.2560 O.2    88  VAL88      -0.2867
     81  CB       -33.4570   -6.0090  -43.2060 C.3    88  VAL88       0.0252
     82  CG1      -34.3430   -7.2230  -42.9310 C.3    88  VAL88       0.0019
     83  CG2      -32.2320   -6.4270  -44.0090 C.3    88  VAL88       0.0019
     84  N        -30.4220  -11.3360  -48.2860 N.3   104  PHE104     -0.1227
     85  CA       -30.5890   -9.9950  -47.7680 C.3   104  PHE104      0.1736
     86  C        -29.4270   -9.0690  -48.1450 C.2   104  PHE104      0.2595
     87  O        -28.2670   -9.4730  -48.2000 O.2   104  PHE104     -0.2718
     88  CB       -30.6380  -10.0170  -46.2420 C.3   104  PHE104      0.0547
     89  CG       -31.8830  -10.6070  -45.6520 C.ar  104  PHE104     -0.0202
     90  CD1      -33.0170   -9.8290  -45.4790 C.ar  104  PHE104     -0.0042
     91  CD2      -31.9060  -11.9220  -45.2050 C.ar  104  PHE104     -0.0042
     92  CE1      -34.1560  -10.3540  -44.8930 C.ar  104  PHE104     -0.0003
     93  CE2      -33.0530  -12.4590  -44.6330 C.ar  104  PHE104     -0.0003
     94  CZ       -34.1780  -11.6700  -44.4650 C.ar  104  PHE104     -0.0000
     95  N        -29.7340   -7.7990  -48.3490 N.am  105  GLU105     -0.1965
     96  CA       -28.7000   -6.7990  -48.4310 C.3   105  GLU105      0.1733
     97  C        -27.8160   -6.9870  -47.2340 C.2   105  GLU105      0.2616
     98  O        -28.3150   -7.2400  -46.1420 O.2   105  GLU105     -0.2715
     99  CB       -29.2870   -5.3860  -48.4200 C.3   105  GLU105      0.0429
    100  CG       -30.3670   -5.1730  -47.3570 C.3   105  GLU105      0.1163
    101  CD       -30.6790   -3.7080  -47.0390 C.2   105  GLU105      0.3649
    102  OE1      -29.8820   -2.8050  -47.3880 O.co2 105  GLU105     -0.2457
    103  OE2      -31.7390   -3.4600  -46.4060 O.co2 105  GLU105     -0.2457
    104  N        -26.5070   -6.8660  -47.4500 N.am  106  MET106     -0.1963
    105  CA       -25.5170   -6.9030  -46.3830 C.3   106  MET106      0.1736
    106  C        -25.6380   -5.6160  -45.6100 C.2   106  MET106      0.2616
    107  O        -25.6820   -4.5410  -46.1980 O.2   106  MET106     -0.2715
    108  CB       -24.1050   -7.0250  -46.9710 C.3   106  MET106      0.0427
    109  CG       -22.9860   -7.1260  -45.9490 C.3   106  MET106      0.0599
    110  SD       -23.0090   -8.6360  -44.9420 S.3   106  MET106     -0.1393
    111  CE       -22.4620   -9.8220  -46.1380 C.3   106  MET106      0.0692
    112  N        -25.7300   -5.7330  -44.2940 N.am  107  LEU107     -0.1963
    113  CA       -25.7130   -4.5880  -43.4190 C.3   107  LEU107      0.1728
    114  C        -24.4250   -4.6610  -42.5790 C.2   107  LEU107      0.2617
    115  O        -23.5380   -5.4340  -42.8940 O.2   107  LEU107     -0.2715
    116  CB       -26.9460   -4.5980  -42.5280 C.3   107  LEU107      0.0311
    117  CG       -28.3100   -4.5650  -43.2210 C.3   107  LEU107      0.0022
    118  CD1      -29.4230   -4.6830  -42.1940 C.3   107  LEU107      0.0001
    119  CD2      -28.4790   -3.2890  -44.0250 C.3   107  LEU107      0.0001
    120  N        -24.3180   -3.8530  -41.5390 N.am  108  SER108     -0.1936
    121  CA       -23.1840   -3.9170  -40.6140 C.3   108  SER108      0.2055
    122  C        -23.6690   -4.5870  -39.3000 C.2   108  SER108      0.2643
    123  O        -24.5620   -5.4430  -39.3190 O.2   108  SER108     -0.2714
    124  CB       -22.6120   -2.5060  -40.3660 C.3   108  SER108      0.2130
    125  OG       -21.3800   -2.5510  -39.6430 O.3   108  SER108     -0.2179
    126  N        -23.1010   -4.2040  -38.1640 N.am  109  TYR109     -0.1973
    127  CA       -23.2900   -5.0130  -36.9720 C.3   109  TYR109      0.1639
    128  C        -24.4000   -4.4650  -36.0920 C.2   109  TYR109      0.2290
    129  O        -24.8410   -3.3200  -36.2840 O.2   109  TYR109     -0.2864
    130  CB       -21.9740   -5.2470  -36.2290 C.3   109  TYR109      0.0560
    131  CG       -21.2000   -4.0120  -35.9060 C.ar  109  TYR109     -0.0198
    132  CD1      -21.6700   -3.1260  -34.9510 C.ar  109  TYR109     -0.0009
    133  CD2      -19.9650   -3.7500  -36.5110 C.ar  109  TYR109     -0.0009
    134  CE1      -20.9600   -1.9850  -34.6180 C.ar  109  TYR109      0.0417
    135  CE2      -19.2390   -2.6110  -36.1870 C.ar  109  TYR109      0.0417
    136  CZ       -19.7510   -1.7240  -35.2440 C.ar  109  TYR109      0.1957
    137  OH       -19.0790   -0.5860  -34.8720 O.3   109  TYR109     -0.2866
    138  N        -23.5750   -5.5540  -30.2680 N.3   113  ASP113     -0.1239
    139  CA       -22.1600   -5.3770  -30.6000 C.3   113  ASP113      0.1674
    140  C        -21.7100   -3.9200  -30.4440 C.2   113  ASP113      0.2266
    141  O        -20.6410   -3.6560  -29.9450 O.2   113  ASP113     -0.2867
    142  CB       -21.8660   -5.8170  -32.0190 C.3   113  ASP113      0.1410
    143  CG       -22.1590   -7.2730  -32.2540 C.2   113  ASP113      0.3668
    144  OD1      -21.9500   -8.1100  -31.3250 O.co2 113  ASP113     -0.2456
    145  OD2      -22.6000   -7.5690  -33.3940 O.co2 113  ASP113     -0.2456
    146  N        -40.2580   -9.4270  -31.2800 N.3   153  ASP153     -0.1239
    147  CA       -38.9440   -9.7460  -30.7050 C.3   153  ASP153      0.1674
    148  C        -37.9190   -8.6560  -30.9120 C.2   153  ASP153      0.2266
    149  O        -36.7550   -8.9170  -31.2350 O.2   153  ASP153     -0.2867
    150  CB       -38.4060  -11.0920  -31.2250 C.3   153  ASP153      0.1410
    151  CG       -37.3250  -11.6830  -30.3030 C.2   153  ASP153      0.3668
    152  OD1      -37.2140  -11.2590  -29.1250 O.co2 153  ASP153     -0.2456
    153  OD2      -36.5910  -12.5640  -30.7680 O.co2 153  ASP153     -0.2456
    154  N        -35.1760   -6.3020  -29.9840 N.3   155  LYS155     -0.1245
    155  CA       -34.1260   -6.2180  -28.9790 C.3   155  LYS155      0.1561
    156  C        -32.8730   -5.7290  -29.6960 C.2   155  LYS155      0.2260
    157  O        -32.8210   -5.7650  -30.9160 O.2   155  LYS155     -0.2867
    158  CB       -33.8720   -7.6040  -28.3870 C.3   155  LYS155      0.0271
    159  CG       -33.5140   -8.6420  -29.4370 C.3   155  LYS155      0.0035
    160  CD       -33.6660  -10.0680  -28.9280 C.3   155  LYS155      0.0206
    161  CE       -33.5370  -11.0530  -30.0680 C.3   155  LYS155      0.1093
    162  NZ       -33.3280  -12.4390  -29.5840 N.3   155  LYS155     -0.1314
    163  N        -30.1090   -6.9670  -30.5830 N.3   157  GLU157     -0.1231
    164  CA       -29.5830   -7.8960  -31.5970 C.3   157  GLU157      0.1699
    165  C        -30.3370   -7.8890  -32.9200 C.2   157  GLU157      0.2592
    166  O        -29.8120   -8.3650  -33.9140 O.2   157  GLU157     -0.2718
    167  CB       -29.5800   -9.3480  -31.0930 C.3   157  GLU157      0.0402
    168  CG       -28.4640   -9.7220  -30.1180 C.3   157  GLU157      0.1161
    169  CD       -28.7660   -9.3910  -28.6570 C.2   157  GLU157      0.3649
    170  OE1      -29.7850   -8.6960  -28.3350 O.co2 157  GLU157     -0.2457
    171  OE2      -27.9260   -9.8090  -27.8300 O.co2 157  GLU157     -0.2457
    172  N        -31.5880   -7.4350  -32.9080 N.am  158  ASN158     -0.1974
    173  CA       -32.4270   -7.4300  -34.1120 C.3   158  ASN158      0.1688
    174  C        -32.4820   -6.0470  -34.7680 C.2   158  ASN158      0.2292
    175  O        -33.2940   -5.7970  -35.6490 O.2   158  ASN158     -0.2864
    176  CB       -33.8250   -7.9220  -33.7700 C.3   158  ASN158      0.1181
    177  CG       -33.9230   -9.4410  -33.7410 C.2   158  ASN158      0.2629
    178  OD1      -33.1550  -10.1590  -34.3790 O.2   158  ASN158     -0.2716
    179  ND2      -34.9040   -9.9320  -33.0250 N.am  158  ASN158     -0.0877
    180  N        -29.8430   -3.5510  -36.6850 N.3   160  LEU160     -0.1245
    181  CA       -28.5080   -3.4640  -37.2720 C.3   160  LEU160      0.1561
    182  C        -28.1720   -2.0400  -37.7790 C.2   160  LEU160      0.2260
    183  O        -29.0450   -1.3110  -38.2540 O.2   160  LEU160     -0.2867
    184  CB       -28.3820   -4.4770  -38.4130 C.3   160  LEU160      0.0270
    185  CG       -27.8960   -5.9160  -38.0800 C.3   160  LEU160      0.0019
    186  CD1      -28.6330   -6.5710  -36.9360 C.3   160  LEU160      0.0001
    187  CD2      -28.0240   -6.8210  -39.2970 C.3   160  LEU160      0.0001
    188  N        -20.7970    0.7910  -40.4680 N.2   164  PRO164     -0.2584
    189  CA       -20.0900    0.8660  -39.1960 C.3   164  PRO164      0.1895
    190  C        -19.8440    2.2620  -38.6300 C.2   164  PRO164      0.2359
    191  O        -19.6090    2.3650  -37.4390 O.2   164  PRO164     -0.2858
    192  CB       -18.7510    0.1640  -39.4630 C.2   164  PRO164      0.0071
    193  CG       -18.8350   -0.4670  -40.8030 C.2   164  PRO164      0.0180
    194  CD       -20.0800    0.0040  -41.4860 C.2   164  PRO164      0.0937
    195  N        -34.2750   -6.2770  -38.3520 N.3   172  VAL172     -0.1231
    196  CA       -34.2040   -7.5850  -39.0040 C.3   172  VAL172      0.1692
    197  C        -34.9680   -8.6540  -38.2200 C.2   172  VAL172      0.2592
    198  O        -35.3620   -8.4530  -37.0730 O.2   172  VAL172     -0.2718
    199  CB       -32.7400   -8.0950  -39.1070 C.3   172  VAL172      0.0266
    200  CG1      -31.8850   -7.1590  -39.9140 C.3   172  VAL172      0.0020
    201  CG2      -32.1380   -8.3240  -37.7180 C.3   172  VAL172      0.0020
    202  N        -35.0840   -9.8130  -38.8400 N.am  173  ASP173     -0.1974
    203  CA       -35.6330  -11.0310  -38.2300 C.3   173  ASP173      0.1709
    204  C        -37.1140  -10.8930  -37.9100 C.2   173  ASP173      0.2293
    205  O        -37.5020  -10.5390  -36.8010 O.2   173  ASP173     -0.2864
    206  CB       -34.8730  -11.5320  -36.9830 C.3   173  ASP173      0.1436
    207  CG       -35.1170  -13.0460  -36.7220 C.2   173  ASP173      0.3671
    208  OD1      -36.1610  -13.5830  -37.1450 O.co2 173  ASP173     -0.2456
    209  OD2      -34.2610  -13.7330  -36.1240 O.co2 173  ASP173     -0.2456
@<TRIPOS>BOND
     1    96    99    1
     2    96    95    1
     3    96    97    1
     4    99   100    1
     5    95    86   am
     6    84    85    1
     7    87    86    2
     8    86    85    1
     9    85    88    1
    10   104    97   am
    11   104   105    1
    12   102   101   ar
    13   100   101    1
    14    63    64    1
    15    97    98    2
    16   101   103   ar
    17   108   105    1
    18   108   109    1
    19    66    65    2
    20    65    64    1
    21   105   106    1
    22    88    89    1
    23   107   106    2
    24    64    67    1
    25   111   110    1
    26   109   110    1
    27    89    90   ar
    28    89    91   ar
    29   106   112   am
    30    90    92   ar
    31    80    79    2
    32    79    78    1
    33    91    93   ar
    34    71    70    2
    35    68    69    1
    36    92    94   ar
    37    93    94   ar
    38    70    69    1
    39   112   113    1
    40   119   117    1
    41    83    81    1
    42    69    72    1
    43    78    81    1
    44    78    77    1
    45   113   114    1
    46   113   116    1
    47    72    73    1
    48   117   116    1
    49   117   118    1
    50    81    82    1
    51   115   114    2
    52   114   120   am
    53     8     6    1
    54    73    74    1
    55    61    60    1
    56    58    57    1
    57    58    59    2
    58    50    49    2
    59   120   121    1
    60     6     5    1
    61   194   193    1
    62   194   188    2
    63    57    60    1
    64    57    56    1
    65    75    74    1
    66    75    76    1
    67    60    62    1
    68   193   192    2
    69    55    53   am
    70    49    56   am
    71    49    48    1
    72   121   124    1
    73   121   122    1
    74   188   189    1
    75   124   125    1
    76     1     2    1
    77    51    48    1
    78    51    52    1
    79     5     2    1
    80     5     7    1
    81   200   199    1
    82    53    54    2
    83    53    52    1
    84    48    47    1
    85    47    45   am
    86     2     3    1
    87   192   189    1
    88   123   122    2
    89   122   126   am
    90   187   185    1
    91   189   190    1
    92   199   196    1
    93   199   201    1
    94   196   195    1
    95   196   197    1
    96    35    34    2
    97   202   203    1
    98   202   197   am
    99   190   191    2
   100    44    45    1
   101    44    43    1
   102    45    46    2
   103   184   185    1
   104   184   181    1
   105   183   182    2
   106   203   204    1
   107   203   206    1
   108     3     9   am
   109     3     4    2
   110   197   198    2
   111     9    10    1
   112   126   127    1
   113   185   186    1
   114    12    11    2
   115    39    41   ar
   116    39    37   ar
   117   204   205    2
   118    34    43   am
   119    34    33    1
   120   182   181    1
   121    36    37    1
   122    36    33    1
   123    41    42   ar
   124   181   180    1
   125    37    38   ar
   126   208   207   ar
   127   206   207    1
   128    11    10    1
   129    11    13   am
   130   127   130    1
   131   127   128    1
   132    33    32    1
   133   207   209   ar
   134   133   135   ar
   135   133   131   ar
   136   129   128    2
   137   130   131    1
   138    42    40   ar
   139   135   136   ar
   140    20    21    1
   141    20    19    1
   142   131   132   ar
   143    38    40   ar
   144    13    14    1
   145    32    28   am
   146   175   174    2
   147    14    15    1
   148    14    17    1
   149    18    19    1
   150    18    17    1
   151   136   137    1
   152   136   134   ar
   153    22    15   am
   154    22    23    1
   155   132   134   ar
   156    15    16    2
   157   174   173    1
   158    25    24    2
   159    29    28    2
   160    28    27    1
   161   178   177    2
   162    23    24    1
   163    24    26   am
   164   173   176    1
   165   173   172    1
   166   166   165    2
   167   176   177    1
   168   177   179   am
   169    26    27    1
   170   145   143   ar
   171    27    30    1
   172   165   172   am
   173   165   164    1
   174    30    31    1
   175   143   142    1
   176   143   144   ar
   177   142   139    1
   178   164   167    1
   179   164   163    1
   180   146   147    1
   181   149   148    2
   182   150   147    1
   183   150   151    1
   184   167   168    1
   185   157   156    2
   186   148   147    1
   187   153   151   ar
   188   139   140    1
   189   139   138    1
   190   140   141    2
   191   151   152   ar
   192   168   169    1
   193   161   162    1
   194   161   160    1
   195   154   155    1
   196   156   155    1
   197   159   160    1
   198   159   158    1
   199   155   158    1
   200   169   170   ar
   201   169   171   ar
