@<TRIPOS>MOLECULE
tmp/4mq2B00.pdb
 170 161 0 0 0
SMALL
GASTEIGER

@<TRIPOS>ATOM
      1  N        -26.1420  -11.1980  -65.7350 N.3    31  ILE31      -0.1231
      2  CA       -24.7450  -11.3550  -65.2750 C.3    31  ILE31       0.1692
      3  C        -24.1560  -10.1050  -64.5470 C.2    31  ILE31       0.2592
      4  O        -22.9430  -10.0070  -64.3370 O.2    31  ILE31      -0.2718
      5  CB       -23.8340  -11.7110  -66.4650 C.3    31  ILE31       0.0266
      6  CG1      -23.6310  -10.5110  -67.3870 C.3    31  ILE31       0.0019
      7  CG2      -24.4370  -12.8520  -67.2460 C.3    31  ILE31       0.0020
      8  CD1      -22.9800  -10.8550  -68.7170 C.3    31  ILE31       0.0001
      9  N        -25.0070   -9.1620  -64.1530 N.am   32  GLY32      -0.1957
     10  CA       -24.5350   -7.9190  -63.5690 C.3    32  GLY32       0.1869
     11  C        -25.7170   -7.0260  -63.3030 C.2    32  GLY32       0.2309
     12  O        -26.6380   -6.9680  -64.0970 O.2    32  GLY32      -0.2863
     13  N        -26.3950    1.9330  -62.5230 N.3    36  PHE36      -0.1241
     14  CA       -26.7240    2.1770  -63.9390 C.3    36  PHE36       0.1605
     15  C        -27.8960    1.3300  -64.4490 C.2    36  PHE36       0.2264
     16  O        -28.6750    1.8040  -65.2440 O.2    36  PHE36      -0.2867
     17  CB       -25.5200    1.8640  -64.8380 C.3    36  PHE36       0.0534
     18  CG       -25.0750    0.4350  -64.7530 C.ar   36  PHE36      -0.0203
     19  CD1      -24.2200    0.0250  -63.7570 C.ar   36  PHE36      -0.0042
     20  CD2      -25.5540   -0.5050  -65.6380 C.ar   36  PHE36      -0.0042
     21  CE1      -23.8240   -1.2860  -63.6690 C.ar   36  PHE36      -0.0003
     22  CE2      -25.1720   -1.8260  -65.5500 C.ar   36  PHE36      -0.0003
     23  CZ       -24.3010   -2.2140  -64.5630 C.ar   36  PHE36      -0.0000
     24  N        -26.5990   -5.9340  -66.8110 N.3    39  VAL39      -0.1245
     25  CA       -25.8020   -6.4470  -67.9090 C.3    39  VAL39       0.1561
     26  C        -26.2880   -7.8630  -68.1640 C.2    39  VAL39       0.2260
     27  O        -26.5080   -8.6240  -67.2100 O.2    39  VAL39      -0.2867
     28  CB       -24.3030   -6.4950  -67.5700 C.3    39  VAL39       0.0252
     29  CG1      -23.4960   -6.8570  -68.8090 C.3    39  VAL39       0.0019
     30  CG2      -23.8290   -5.1760  -67.0020 C.3    39  VAL39       0.0019
     31  N        -22.1710   -8.9440  -74.3240 N.3    52  ALA52      -0.1245
     32  CA       -22.7790   -8.4240  -73.1050 C.3    52  ALA52       0.1562
     33  C        -23.5300   -7.1910  -73.4950 C.2    52  ALA52       0.2260
     34  O        -22.9750   -6.3240  -74.1830 O.2    52  ALA52      -0.2867
     35  CB       -21.7330   -8.0510  -72.0780 C.3    52  ALA52       0.0290
     36  N        -25.3460   -4.1160  -71.7520 N.3    54  LYS54      -0.1245
     37  CA       -25.6110   -3.3180  -70.5790 C.3    54  LYS54       0.1561
     38  C        -26.8920   -2.5900  -70.9210 C.2    54  LYS54       0.2260
     39  O        -26.9430   -1.8420  -71.9110 O.2    54  LYS54      -0.2867
     40  CB       -24.4490   -2.3500  -70.3900 C.3    54  LYS54       0.0271
     41  CG       -24.4180   -1.5600  -69.0920 C.3    54  LYS54       0.0035
     42  CD       -23.0980   -0.8060  -69.0490 C.3    54  LYS54       0.0206
     43  CE       -23.0160    0.1350  -67.8780 C.3    54  LYS54       0.1093
     44  NZ       -22.1460    1.3010  -68.1890 N.3    54  LYS54      -0.1314
     45  N        -21.3920    8.0920  -71.5080 N.3    69  GLU69      -0.1245
     46  CA       -20.6060    6.8730  -71.6120 C.3    69  GLU69       0.1567
     47  C        -20.4180    6.4670  -73.0530 C.2    69  GLU69       0.2260
     48  O        -19.3180    6.1200  -73.4620 O.2    69  GLU69      -0.2867
     49  CB       -21.2100    5.7120  -70.8320 C.3    69  GLU69       0.0388
     50  CG       -20.4200    4.4590  -71.0430 C.3    69  GLU69       0.1160
     51  CD       -20.7760    3.3220  -70.1050 C.2    69  GLU69       0.3649
     52  OE1      -21.9180    3.3390  -69.5570 O.co2  69  GLU69      -0.2457
     53  OE2      -19.9010    2.3940  -69.9490 O.co2  69  GLU69      -0.2457
     54  N        -12.4570   -1.5780  -73.0290 N.3    86  VAL86      -0.1245
     55  CA       -13.5170   -2.4710  -73.5750 C.3    86  VAL86       0.1561
     56  C        -14.2240   -1.9000  -74.7820 C.2    86  VAL86       0.2260
     57  O        -14.3460   -0.6910  -74.9370 O.2    86  VAL86      -0.2867
     58  CB       -14.5910   -2.7580  -72.5060 C.3    86  VAL86       0.0252
     59  CG1      -15.4220   -1.5250  -72.1620 C.3    86  VAL86       0.0019
     60  CG2      -15.4830   -3.9020  -72.9140 C.3    86  VAL86       0.0019
     61  N        -21.4890   -4.8050  -75.8190 N.3   102  PHE102     -0.1227
     62  CA       -20.0620   -4.9460  -75.6150 C.3   102  PHE102      0.1736
     63  C        -19.6480   -6.3080  -76.0120 C.2   102  PHE102      0.2595
     64  O        -20.4460   -7.2440  -75.8850 O.2   102  PHE102     -0.2718
     65  CB       -19.6910   -4.7390  -74.1420 C.3   102  PHE102      0.0547
     66  CG       -19.8750   -3.3370  -73.6950 C.ar  102  PHE102     -0.0202
     67  CD1      -18.9770   -2.3750  -74.0780 C.ar  102  PHE102     -0.0042
     68  CD2      -20.9640   -2.9800  -72.9140 C.ar  102  PHE102     -0.0042
     69  CE1      -19.1470   -1.0760  -73.6780 C.ar  102  PHE102     -0.0003
     70  CE2      -21.1470   -1.6840  -72.5170 C.ar  102  PHE102     -0.0003
     71  CZ       -20.2410   -0.7230  -72.9090 C.ar  102  PHE102     -0.0000
     72  N        -18.3880   -6.4060  -76.4520 N.am  103  GLU103     -0.1965
     73  CA       -17.6670   -7.6750  -76.4760 C.3   103  GLU103      0.1733
     74  C        -17.7910   -8.2900  -75.0870 C.2   103  GLU103      0.2616
     75  O        -17.8590   -7.5620  -74.1060 O.2   103  GLU103     -0.2715
     76  CB       -16.1990   -7.4800  -76.8820 C.3   103  GLU103      0.0429
     77  CG       -15.3710   -6.6220  -75.9320 C.3   103  GLU103      0.1163
     78  CD       -13.8690   -6.6140  -76.2490 C.2   103  GLU103      0.3649
     79  OE1      -13.3320   -7.6370  -76.7760 O.co2 103  GLU103     -0.2457
     80  OE2      -13.2290   -5.5710  -75.9450 O.co2 103  GLU103     -0.2457
     81  N        -17.8870   -9.6190  -75.0250 N.am  104  MET104     -0.1963
     82  CA       -17.9960  -10.3630  -73.7650 C.3   104  MET104      0.1736
     83  C        -16.5980  -10.5780  -73.1710 C.2   104  MET104      0.2616
     84  O        -15.6650  -10.9190  -73.8910 O.2   104  MET104     -0.2715
     85  CB       -18.6730  -11.6840  -74.0570 C.3   104  MET104      0.0427
     86  CG       -18.6840  -12.7020  -72.9460 C.3   104  MET104      0.0599
     87  SD       -19.6590  -12.2320  -71.5330 S.3   104  MET104     -0.1393
     88  CE       -21.2310  -11.9100  -72.3010 C.3   104  MET104      0.0692
     89  N        -16.4440  -10.3440  -71.8690 N.am  105  LEU105     -0.1963
     90  CA       -15.1360  -10.4620  -71.2080 C.3   105  LEU105      0.1728
     91  C        -15.3000  -11.5280  -70.1860 C.2   105  LEU105      0.2617
     92  O        -16.3830  -12.0850  -70.0890 O.2   105  LEU105     -0.2715
     93  CB       -14.7250   -9.1500  -70.5430 C.3   105  LEU105      0.0311
     94  CG       -14.5370   -8.0120  -71.5300 C.3   105  LEU105      0.0022
     95  CD1      -14.3500   -6.7020  -70.8020 C.3   105  LEU105      0.0001
     96  CD2      -13.3520   -8.2950  -72.4450 C.3   105  LEU105      0.0001
     97  N        -14.2450  -11.8260  -69.4390 N.am  106  SER106     -0.1936
     98  CA       -14.3080  -12.8680  -68.4320 C.3   106  SER106      0.2055
     99  C        -14.4490  -12.2160  -67.0650 C.2   106  SER106      0.2643
    100  O        -14.8710  -11.0780  -66.9910 O.2   106  SER106     -0.2714
    101  CB       -13.0710  -13.7590  -68.5060 C.3   106  SER106      0.2130
    102  OG       -13.3580  -15.0460  -67.9480 O.3   106  SER106     -0.2179
    103  N        -14.1070  -12.9400  -66.0000 N.am  107  TYR107     -0.1959
    104  CA       -14.1660  -12.4500  -64.6260 C.3   107  TYR107      0.1771
    105  C        -13.4070  -11.1210  -64.3680 C.2   107  TYR107      0.2619
    106  O        -12.4850  -10.7380  -65.1090 O.2   107  TYR107     -0.2715
    107  CB       -13.5960  -13.5090  -63.6900 C.3   107  TYR107      0.0574
    108  CG       -14.2000  -14.8910  -63.8420 C.ar  107  TYR107     -0.0198
    109  CD1      -15.3820  -15.2250  -63.2040 C.ar  107  TYR107     -0.0009
    110  CD2      -13.5840  -15.8720  -64.6240 C.ar  107  TYR107     -0.0009
    111  CE1      -15.9480  -16.4890  -63.3420 C.ar  107  TYR107      0.0417
    112  CE2      -14.1320  -17.1390  -64.7580 C.ar  107  TYR107      0.0417
    113  CZ       -15.3140  -17.4460  -64.1120 C.ar  107  TYR107      0.1957
    114  OH       -15.8860  -18.6970  -64.2280 O.3   107  TYR107     -0.2866
    115  N        -13.8070  -10.4280  -63.2970 N.am  108  ASN108     -0.1972
    116  CA       -13.1650   -9.1800  -62.8710 C.3   108  ASN108      0.1688
    117  C        -12.2460   -9.4550  -61.6970 C.2   108  ASN108      0.2292
    118  O        -12.2450  -10.5690  -61.1340 O.2   108  ASN108     -0.2864
    119  CB       -14.2010   -8.1660  -62.4610 C.3   108  ASN108      0.1181
    120  CG       -14.9410   -8.5900  -61.2200 C.2   108  ASN108      0.2629
    121  OD1      -14.3430   -8.8300  -60.1590 O.2   108  ASN108     -0.2716
    122  ND2      -16.2480   -8.7260  -61.3450 N.am  108  ASN108     -0.0877
    123  N        -13.5710  -10.8200  -58.4100 N.3   111  ASP111     -0.1239
    124  CA       -13.8740  -12.2530  -58.4910 C.3   111  ASP111      0.1674
    125  C        -12.5910  -13.0010  -58.2540 C.2   111  ASP111      0.2266
    126  O        -12.5220  -13.9750  -57.5160 O.2   111  ASP111     -0.2867
    127  CB       -14.4400  -12.6400  -59.8740 C.3   111  ASP111      0.1410
    128  CG       -15.8530  -12.0440  -60.1620 C.2   111  ASP111      0.3668
    129  OD1      -16.7290  -12.0460  -59.2400 O.co2 111  ASP111     -0.2456
    130  OD2      -16.0670  -11.5920  -61.3310 O.co2 111  ASP111     -0.2456
    131  N        -13.7380   -4.5220  -59.4430 N.3   155  GLU155     -0.1231
    132  CA       -14.9860   -4.8430  -60.1960 C.3   155  GLU155      0.1699
    133  C        -15.0350   -4.3200  -61.6290 C.2   155  GLU155      0.2592
    134  O        -15.6960   -4.9170  -62.4690 O.2   155  GLU155     -0.2718
    135  CB       -16.2120   -4.2240  -59.5090 C.3   155  GLU155      0.0402
    136  CG       -16.6730   -4.8950  -58.2280 C.3   155  GLU155      0.1161
    137  CD       -16.0750   -4.2890  -56.9470 C.2   155  GLU155      0.3649
    138  OE1      -14.8240   -4.0500  -56.8570 O.co2 155  GLU155     -0.2457
    139  OE2      -16.8810   -4.0890  -56.0060 O.co2 155  GLU155     -0.2457
    140  N        -14.3900   -3.1900  -61.9000 N.am  156  ASN156     -0.1974
    141  CA       -14.4560   -2.5800  -63.2160 C.3   156  ASN156      0.1688
    142  C        -13.2290   -2.8230  -64.0720 C.2   156  ASN156      0.2292
    143  O        -13.0350   -2.1740  -65.1200 O.2   156  ASN156     -0.2864
    144  CB       -14.6300   -1.0890  -63.0840 C.3   156  ASN156      0.1181
    145  CG       -15.9930   -0.7270  -62.6540 C.2   156  ASN156      0.2629
    146  OD1      -16.8960   -1.5370  -62.7220 O.2   156  ASN156     -0.2716
    147  ND2      -16.1650    0.5050  -62.2210 N.am  156  ASN156     -0.0877
    148  N        -11.6040   -6.0200  -65.8990 N.3   158  LEU158     -0.1245
    149  CA       -11.9650   -7.4200  -66.1820 C.3   158  LEU158      0.1561
    150  C        -10.9510   -8.1460  -67.0330 C.2   158  LEU158      0.2260
    151  O        -10.3420   -7.5660  -67.9300 O.2   158  LEU158     -0.2867
    152  CB       -13.3030   -7.5000  -66.9110 C.3   158  LEU158      0.0270
    153  CG       -14.6200   -7.3220  -66.1440 C.3   158  LEU158      0.0019
    154  CD1      -14.7140   -5.9730  -65.4120 C.3   158  LEU158      0.0001
    155  CD2      -15.7770   -7.4720  -67.1330 C.3   158  LEU158      0.0001
    156  N        -13.6880   -1.6030  -67.8020 N.3   170  VAL170     -0.1231
    157  CA       -15.0880   -1.3420  -68.1680 C.3   170  VAL170      0.1692
    158  C        -15.6980   -0.2120  -67.3500 C.2   170  VAL170      0.2592
    159  O        -15.0410    0.3570  -66.4910 O.2   170  VAL170     -0.2718
    160  CB       -15.9690   -2.5870  -67.9740 C.3   170  VAL170      0.0266
    161  CG1      -15.3350   -3.7960  -68.6530 C.3   170  VAL170      0.0020
    162  CG2      -16.2210   -2.8550  -66.5030 C.3   170  VAL170      0.0020
    163  N        -16.9570    0.0940  -67.6540 N.am  171  ASP171     -0.1974
    164  CA       -17.8130    1.0560  -66.9310 C.3   171  ASP171      0.1709
    165  C        -17.3780    2.4940  -66.9670 C.2   171  ASP171      0.2293
    166  O        -17.0220    3.0650  -65.9550 O.2   171  ASP171     -0.2864
    167  CB       -18.0720    0.6580  -65.4650 C.3   171  ASP171      0.1436
    168  CG       -19.1940    1.5020  -64.8110 C.2   171  ASP171      0.3671
    169  OD1      -19.8520    2.3520  -65.5140 O.co2 171  ASP171     -0.2456
    170  OD2      -19.4200    1.2870  -63.5920 O.co2 171  ASP171     -0.2456
@<TRIPOS>BOND
     1    76    73    1
     2    76    77    1
     3    79    78   ar
     4    73    72    1
     5    73    74    1
     6    72    63   am
     7    78    80   ar
     8    78    77    1
     9    63    64    2
    10    63    62    1
    11    61    62    1
    12    62    65    1
    13    74    81   am
    14    74    75    2
    15    81    82    1
    16    57    56    2
    17    56    55    1
    18    31    32    1
    19    34    33    2
    20    65    66    1
    21    67    66   ar
    22    67    69   ar
    23    85    82    1
    24    85    86    1
    25    84    83    2
    26    82    83    1
    27    66    68   ar
    28    69    71   ar
    29    55    54    1
    30    55    58    1
    31    33    32    1
    32    48    47    2
    33    83    89   am
    34    32    35    1
    35    47    46    1
    36    86    87    1
    37    60    58    1
    38    68    70   ar
    39    71    70   ar
    40    58    59    1
    41    96    94    1
    42    88    87    1
    43    39    38    2
    44    89    90    1
    45    36    37    1
    46    46    45    1
    47    46    49    1
    48    94    95    1
    49    94    93    1
    50    90    93    1
    51    90    91    1
    52    50    49    1
    53    50    51    1
    54    38    37    1
    55    37    40    1
    56    40    41    1
    57    91    92    2
    58    91    97   am
    59    51    53   ar
    60    51    52   ar
    61    97    98    1
    62    41    42    1
    63    42    43    1
    64    29    28    1
    65     8     6    1
    66   161   160    1
    67   101    98    1
    68   101   102    1
    69    98    99    1
    70    44    43    1
    71   157   160    1
    72   157   156    1
    73   157   158    1
    74    26    25    1
    75    26    27    2
    76   160   162    1
    77   151   150    2
    78    25    28    1
    79    25    24    1
    80   163   158   am
    81   163   164    1
    82    28    30    1
    83     6     5    1
    84   158   159    2
    85     7     5    1
    86   155   153    1
    87    99   100    2
    88    99   103   am
    89   150   149    1
    90   165   164    1
    91   165   166    2
    92   164   167    1
    93   152   149    1
    94   152   153    1
    95     5     2    1
    96   149   148    1
    97   153   154    1
    98   103   104    1
    99     1     2    1
   100    20    22   ar
   101    20    18   ar
   102    22    23   ar
   103   169   168   ar
   104   167   168    1
   105     2     3    1
   106    16    15    2
   107   143   142    2
   108   106   105    2
   109    17    18    1
   110    17    14    1
   111   168   170   ar
   112   112   110   ar
   113   112   113   ar
   114    18    19   ar
   115   104   105    1
   116   104   107    1
   117   110   108   ar
   118    23    21   ar
   119     3     4    2
   120     3     9   am
   121    15    14    1
   122   105   115   am
   123   114   113    1
   124     9    10    1
   125   113   111   ar
   126    12    11    2
   127   142   141    1
   128    14    13    1
   129   108   107    1
   130   108   109   ar
   131    19    21   ar
   132    10    11    1
   133   111   109   ar
   134   115   116    1
   135   141   144    1
   136   141   140    1
   137   144   145    1
   138   116   119    1
   139   116   117    1
   140   146   145    2
   141   145   147   am
   142   134   133    2
   143   119   120    1
   144   140   133   am
   145   117   118    2
   146   133   132    1
   147   122   120   am
   148   130   128   ar
   149   120   121    2
   150   132   135    1
   151   132   131    1
   152   128   127    1
   153   128   129   ar
   154   127   124    1
   155   135   136    1
   156   124   123    1
   157   124   125    1
   158   125   126    2
   159   136   137    1
   160   137   138   ar
   161   137   139   ar
