@<TRIPOS>MOLECULE
tmp/4mqaB00.pdb
 161 160 0 0 0
SMALL
GASTEIGER

@<TRIPOS>ATOM
      1  N         18.9860  -25.3500  -24.1640 N.3    44  HIS44      -0.1241
      2  CA        19.0060  -23.9320  -23.7860 C.3    44  HIS44       0.1621
      3  C         18.6580  -23.0430  -24.9820 C.2    44  HIS44       0.2264
      4  O         18.1400  -21.9700  -24.7840 O.2    44  HIS44      -0.2867
      5  CB        20.3240  -23.5280  -23.1500 C.3    44  HIS44       0.0745
      6  CG        21.3830  -23.1600  -24.1300 C.ar   44  HIS44       0.0817
      7  ND1       22.4480  -23.9890  -24.4380 N.ar   44  HIS44      -0.2268
      8  CD2       21.5700  -22.0100  -24.8420 C.ar   44  HIS44       0.1154
      9  CE1       23.2480  -23.3660  -25.2900 C.ar   44  HIS44       0.1986
     10  NE2       22.7180  -22.1760  -25.5690 N.ar   44  HIS44      -0.2212
     11  N         14.6780  -23.2980  -20.8800 N.3    48  PRO48      -0.2116
     12  CA        13.7130  -24.1850  -20.2720 C.3    48  PRO48       0.1372
     13  C         12.2740  -23.7900  -20.4320 C.2    48  PRO48       0.2244
     14  O         11.4120  -24.6370  -20.2850 O.2    48  PRO48      -0.2868
     15  CB        14.1250  -24.1670  -18.7890 C.3    48  PRO48       0.0268
     16  CG        14.7900  -22.8580  -18.5870 C.3    48  PRO48       0.0207
     17  CD        15.4570  -22.5260  -19.8710 C.3    48  PRO48       0.0892
     18  N         17.6240  -27.5140  -16.9330 N.3    84  TYR84      -0.1227
     19  CA        17.2030  -26.1810  -16.5610 C.3    84  TYR84       0.1736
     20  C         18.2740  -25.1100  -16.9670 C.2    84  TYR84       0.2596
     21  O         17.9150  -24.0730  -17.4390 O.2    84  TYR84      -0.2718
     22  CB        16.7570  -26.1440  -15.0850 C.3    84  TYR84       0.0548
     23  CG        16.1950  -24.8220  -14.6530 C.ar   84  TYR84      -0.0200
     24  CD1       14.9770  -24.3860  -15.1020 C.ar   84  TYR84      -0.0009
     25  CD2       16.9460  -23.9590  -13.8600 C.ar   84  TYR84      -0.0009
     26  CE1       14.4620  -23.1510  -14.7230 C.ar   84  TYR84       0.0417
     27  CE2       16.4750  -22.6980  -13.5220 C.ar   84  TYR84       0.0417
     28  CZ        15.2290  -22.3090  -13.9490 C.ar   84  TYR84       0.1957
     29  OH        14.7900  -21.0350  -13.6440 O.3    84  TYR84      -0.2866
     30  N         19.5610  -25.3540  -16.7510 N.am   85  THR85      -0.1953
     31  CA        20.5810  -24.5110  -17.3350 C.3    85  THR85       0.1897
     32  C         21.7210  -25.3780  -17.7930 C.2    85  THR85       0.2313
     33  O         21.9510  -26.4820  -17.3030 O.2    85  THR85      -0.2863
     34  CB        21.1800  -23.5230  -16.2730 C.3    85  THR85       0.1794
     35  OG1       22.0120  -24.2660  -15.3660 O.3    85  THR85      -0.2208
     36  CG2       20.0670  -22.8590  -15.4800 C.3    85  THR85       0.0378
     37  N         24.8300  -25.2070  -17.1950 N.3    87  GLN87      -0.1245
     38  CA        25.9080  -25.4760  -16.2530 C.3    87  GLN87       0.1566
     39  C         25.5430  -26.6890  -15.3760 C.2    87  GLN87       0.2260
     40  O         26.3980  -27.3450  -14.8310 O.2    87  GLN87      -0.2867
     41  CB        26.2340  -24.2740  -15.3710 C.3    87  GLN87       0.0367
     42  CG        26.8690  -23.0840  -16.0950 C.3    87  GLN87       0.0905
     43  CD        25.8600  -22.3300  -16.9600 C.2    87  GLN87       0.2608
     44  OE1       24.7130  -22.1790  -16.6120 O.2    87  GLN87      -0.2717
     45  NE2       26.2940  -21.9100  -18.1140 N.am   87  GLN87      -0.0878
     46  N         38.9070  -24.9090  -15.4470 N.3   162  TYR162     -0.1241
     47  CA        37.8430  -24.0590  -14.9870 C.3   162  TYR162      0.1605
     48  C         38.0500  -23.5810  -13.5570 C.2   162  TYR162      0.2264
     49  O         37.5120  -22.5380  -13.1820 O.2   162  TYR162     -0.2867
     50  CB        36.4480  -24.7150  -15.2030 C.3   162  TYR162      0.0534
     51  CG        35.8560  -24.2710  -16.4800 C.ar  162  TYR162     -0.0201
     52  CD1       36.2950  -24.8040  -17.6900 C.ar  162  TYR162     -0.0009
     53  CD2       34.9270  -23.2370  -16.5210 C.ar  162  TYR162     -0.0009
     54  CE1       35.7870  -24.3470  -18.9050 C.ar  162  TYR162      0.0417
     55  CE2       34.4230  -22.7580  -17.7450 C.ar  162  TYR162      0.0417
     56  CZ        34.8540  -23.3090  -18.9340 C.ar  162  TYR162      0.1957
     57  OH        34.3560  -22.8210  -20.1660 O.3   162  TYR162     -0.2866
     58  N         37.5580  -22.0940  -30.9260 N.3   188  ASP188     -0.1225
     59  CA        36.4130  -22.2870  -30.0560 C.3   188  ASP188      0.1805
     60  C         35.1170  -22.0070  -30.7950 C.2   188  ASP188      0.2598
     61  O         35.0730  -21.4010  -31.8940 O.2   188  ASP188     -0.2718
     62  CB        36.5180  -21.3770  -28.7840 C.3   188  ASP188      0.1424
     63  CG        35.6800  -21.9090  -27.5490 C.2   188  ASP188      0.3668
     64  OD1       34.9370  -22.9100  -27.6690 O.co2 188  ASP188     -0.2456
     65  OD2       35.7560  -21.2780  -26.4540 O.co2 188  ASP188     -0.2456
     66  N         34.0590  -22.5190  -30.2020 N.am  189  SER189     -0.1938
     67  CA        32.7100  -22.1890  -30.5980 C.3   189  SER189      0.2055
     68  C         32.3210  -20.9630  -29.7840 C.2   189  SER189      0.2643
     69  O         33.0570  -20.5660  -28.8670 O.2   189  SER189     -0.2714
     70  CB        31.8020  -23.3690  -30.2650 C.3   189  SER189      0.2130
     71  OG        31.9450  -23.6200  -28.8720 O.3   189  SER189     -0.2179
     72  N         31.1900  -20.3470  -30.1070 N.am  190  CYS190     -0.1953
     73  CA        30.7890  -19.1030  -29.4510 C.3   190  CYS190      0.1843
     74  C         29.2830  -18.8890  -29.5640 C.2   190  CYS190      0.2625
     75  O         28.5390  -19.7220  -30.0990 O.2   190  CYS190     -0.2714
     76  CB        31.5490  -17.9250  -30.0850 C.3   190  CYS190      0.0997
     77  SG        31.6990  -16.4140  -29.0490 S.3   190  CYS190     -0.0797
     78  N         28.8240  -17.7490  -29.0770 N.am  191  GLN191     -0.1977
     79  CA        27.3800  -17.4300  -29.0730 C.3   191  GLN191      0.1601
     80  C         26.8080  -17.5210  -30.4720 C.2   191  GLN191      0.2287
     81  O         27.4050  -16.9560  -31.3950 O.2   191  GLN191     -0.2864
     82  CB        27.2440  -16.0020  -28.5410 C.3   191  GLN191      0.0394
     83  CG        25.9820  -15.6280  -27.8440 C.3   191  GLN191      0.0908
     84  CD        26.2490  -15.3120  -26.3720 C.2   191  GLN191      0.2608
     85  OE1       26.9960  -14.3750  -26.0420 O.2   191  GLN191     -0.2717
     86  NE2       25.6440  -16.0960  -25.4800 N.am  191  GLN191     -0.0878
     87  N         25.7640  -22.3680  -30.5030 N.3   194  SER194     -0.1217
     88  CA        24.9860  -23.2120  -29.6340 C.3   194  SER194      0.1889
     89  C         24.0540  -24.1540  -30.3720 C.2   194  SER194      0.2288
     90  O         23.3820  -23.7280  -31.3300 O.2   194  SER194     -0.2866
     91  CB        24.1730  -22.3400  -28.6290 C.3   194  SER194      0.2089
     92  OG        25.0620  -21.8860  -27.5960 O.3   194  SER194     -0.2183
     93  N         27.2690  -28.1130  -29.0300 N.3   212  VAL212     -0.1231
     94  CA        27.7380  -26.8100  -28.4520 C.3   212  VAL212      0.1692
     95  C         26.8370  -26.4020  -27.2990 C.2   212  VAL212      0.2593
     96  O         25.6220  -26.2970  -27.4720 O.2   212  VAL212     -0.2718
     97  CB        27.8080  -25.6790  -29.4930 C.3   212  VAL212      0.0266
     98  CG1       28.3190  -24.3620  -28.8490 C.3   212  VAL212      0.0020
     99  CG2       28.7940  -26.0480  -30.5650 C.3   212  VAL212      0.0020
    100  N         27.3900  -26.2440  -26.1040 N.am  213  SER213     -0.1938
    101  CA        26.5040  -25.9160  -24.9700 C.3   213  SER213      0.2055
    102  C         26.8530  -24.5950  -24.2620 C.2   213  SER213      0.2643
    103  O         26.0350  -23.7580  -24.2130 O.2   213  SER213     -0.2714
    104  CB        26.4950  -27.0660  -23.9540 C.3   213  SER213      0.2130
    105  OG        25.7790  -26.7690  -22.7690 O.3   213  SER213     -0.2179
    106  N         28.0240  -24.4600  -23.6430 N.am  214  TRP214     -0.1959
    107  CA        28.3520  -23.2490  -22.9080 C.3   214  TRP214      0.1771
    108  C         29.8640  -23.0760  -22.7340 C.2   214  TRP214      0.2620
    109  O         30.6710  -23.8600  -23.2630 O.2   214  TRP214     -0.2715
    110  CB        27.6850  -23.2200  -21.5620 C.3   214  TRP214      0.0590
    111  CG        28.1190  -24.2750  -20.6210 C.ar  214  TRP214      0.0006
    112  CD1       27.7660  -25.6150  -20.6510 C.ar  214  TRP214      0.0946
    113  CD2       28.9380  -24.1090  -19.4740 C.ar  214  TRP214      0.0152
    114  NE1       28.3580  -26.2940  -19.6050 N.ar  214  TRP214     -0.2442
    115  CE2       29.0520  -25.3770  -18.8480 C.ar  214  TRP214      0.0810
    116  CE3       29.6110  -23.0220  -18.9240 C.ar  214  TRP214      0.0012
    117  CZ2       29.7670  -25.5560  -17.6850 C.ar  214  TRP214      0.0191
    118  CZ3       30.3340  -23.2030  -17.7750 C.ar  214  TRP214      0.0001
    119  CH2       30.4150  -24.4560  -17.1590 C.ar  214  TRP214      0.0015
    120  N         30.2280  -22.0140  -22.0290 N.am  215  GLY215     -0.1940
    121  CA        31.6190  -21.6980  -21.7450 C.3   215  GLY215      0.2014
    122  C         31.6520  -20.4310  -20.9490 C.2   215  GLY215      0.2639
    123  O         30.6210  -19.7510  -20.7980 O.2   215  GLY215     -0.2714
    124  N         32.7780  -20.1170  -20.3550 N.am  216  GLU216     -0.1963
    125  CA        32.9540  -18.7310  -19.9090 C.3   216  GLU216      0.1733
    126  C         33.5030  -17.9130  -21.0930 C.2   216  GLU216      0.2617
    127  O         34.7260  -17.9390  -21.4010 O.2   216  GLU216     -0.2715
    128  CB        33.8600  -18.6680  -18.7280 C.3   216  GLU216      0.0429
    129  CG        33.9870  -17.2660  -18.2090 C.3   216  GLU216      0.1163
    130  CD        35.1470  -17.1380  -17.2690 C.2   216  GLU216      0.3649
    131  OE1       35.0910  -17.8140  -16.1990 O.co2 216  GLU216     -0.2457
    132  OE2       36.0880  -16.3740  -17.6370 O.co2 216  GLU216     -0.2457
    133  N         32.6010  -17.2270  -21.7760 N.am  217  GLY217     -0.1940
    134  CA        32.9680  -16.5000  -22.9920 C.3   217  GLY217      0.2014
    135  C         33.5510  -17.4490  -24.0330 C.2   217  GLY217      0.2639
    136  O         33.2480  -18.6500  -24.0280 O.2   217  GLY217     -0.2714
    137  N         34.3720  -16.9240  -24.9380 N.am  218  CYS218     -0.1967
    138  CA        34.8640  -17.7040  -26.0920 C.3   218  CYS218      0.1712
    139  C         36.3570  -17.4670  -26.1660 C.2   218  CYS218      0.2296
    140  O         36.8200  -16.3460  -26.0050 O.2   218  CYS218     -0.2864
    141  CB        34.1500  -17.2810  -27.3730 C.3   218  CYS218      0.0983
    142  SG        32.3200  -17.0400  -27.1580 S.3   218  CYS218     -0.0798
    143  N         38.0140  -23.6380  -21.7530 N.2   224  PRO224     -0.2571
    144  CA        37.6230  -24.3250  -22.9960 C.3   224  PRO224      0.2026
    145  C         36.1040  -24.3550  -23.2070 C.2   224  PRO224      0.2684
    146  O         35.3340  -24.2220  -22.2720 O.2   224  PRO224     -0.2709
    147  CB        38.1430  -25.7550  -22.8120 C.2   224  PRO224      0.0085
    148  CG        38.8570  -25.7950  -21.4990 C.2   224  PRO224      0.0180
    149  CD        38.8970  -24.4320  -20.8920 C.2   224  PRO224      0.0938
    150  N         35.7080  -24.4710  -24.4570 N.am  225  GLY225     -0.1935
    151  CA        34.3260  -24.7740  -24.8600 C.3   225  GLY225      0.2014
    152  C         33.7680  -26.0360  -24.2480 C.2   225  GLY225      0.2638
    153  O         34.4190  -27.0950  -24.2180 O.2   225  GLY225     -0.2714
    154  N         32.5500  -25.9220  -23.7570 N.am  226  ILE226     -0.1977
    155  CA        31.8700  -27.0480  -23.1820 C.3   226  ILE226      0.1596
    156  C         30.7000  -27.4610  -24.0450 C.2   226  ILE226      0.2287
    157  O         29.9670  -26.6330  -24.5860 O.2   226  ILE226     -0.2864
    158  CB        31.5010  -26.7880  -21.7340 C.3   226  ILE226      0.0276
    159  CG1       32.8000  -26.4000  -20.9830 C.3   226  ILE226      0.0022
    160  CG2       30.9210  -28.0520  -21.1020 C.3   226  ILE226      0.0022
    161  CD1       32.5860  -26.1200  -19.5300 C.3   226  ILE226      0.0001
@<TRIPOS>BOND
     1    61    60    2
     2    81    80    2
     3    90    89    2
     4    58    59    1
     5    60    66   am
     6    60    59    1
     7    67    70    1
     8    67    66    1
     9    67    68    1
    10    99    97    1
    11    87    88    1
    12    80    79    1
    13    89    88    1
    14    70    71    1
    15    72    68   am
    16    72    73    1
    17    75    74    2
    18    76    73    1
    19    76    77    1
    20    59    62    1
    21    68    69    2
    22    88    91    1
    23    74    73    1
    24    74    78   am
    25    97    98    1
    26    97    94    1
    27    78    79    1
    28    79    82    1
    29    77   142    1
    30    93    94    1
    31    62    63    1
    32    91    92    1
    33    82    83    1
    34    94    95    1
    35    83    84    1
    36    64    63   ar
    37    63    65   ar
    38    96    95    2
    39   141   142    1
    40   141   138    1
    41    95   100   am
    42    84    85    2
    43    84    86   am
    44   139   138    1
    45   139   140    2
    46   100   101    1
    47   138   137    1
    48    10     9   ar
    49    10     8   ar
    50     9     7   ar
    51     3     4    2
    52     3     2    1
    53   101   102    1
    54   101   104    1
    55   137   135   am
    56   151   150    1
    57   151   152    1
    58     8     6   ar
    59   157   156    2
    60   150   145   am
    61     7     6   ar
    62   102   103    2
    63   102   106   am
    64   152   153    2
    65   152   154   am
    66     1     2    1
    67     6     5    1
    68   156   155    1
    69   135   136    2
    70   135   134    1
    71   104   105    1
    72     2     5    1
    73   154   155    1
    74   106   107    1
    75   109   108    2
    76   145   144    1
    77   145   146    2
    78   155   158    1
    79   144   147    1
    80   144   143    1
    81   134   133    1
    82   107   108    1
    83   107   110    1
    84   147   148    2
    85   108   120   am
    86   120   121    1
    87   133   126   am
    88   143   149    2
    89   121   122    1
    90   158   160    1
    91   158   159    1
    92   110   111    1
    93   148   149    1
    94   127   126    2
    95   126   125    1
    96   159   161    1
    97   122   123    2
    98   122   124   am
    99    11    12    1
   100    11    17    1
   101   112   111   ar
   102   112   114   ar
   103   111   113   ar
   104    13    14    2
   105    13    12    1
   106   124   125    1
   107    12    15    1
   108    57    56    1
   109   125   128    1
   110    17    16    1
   111   114   115   ar
   112   113   116   ar
   113   113   115   ar
   114    56    54   ar
   115    56    55   ar
   116   116   118   ar
   117    54    52   ar
   118   115   117   ar
   119    15    16    1
   120   128   129    1
   121   129   130    1
   122    45    43   am
   123    32    31    1
   124    32    33    2
   125   118   119   ar
   126    55    53   ar
   127    52    51   ar
   128   117   119   ar
   129   132   130   ar
   130    21    20    2
   131    31    30    1
   132    31    34    1
   133   130   131   ar
   134    37    38    1
   135    20    30   am
   136    20    19    1
   137    43    44    2
   138    43    42    1
   139    18    19    1
   140    19    22    1
   141    53    51   ar
   142    51    50    1
   143    34    36    1
   144    34    35    1
   145    38    39    1
   146    38    41    1
   147    42    41    1
   148    46    47    1
   149    39    40    2
   150    50    47    1
   151    24    26   ar
   152    24    23   ar
   153    22    23    1
   154    47    48    1
   155    26    28   ar
   156    23    25   ar
   157    28    29    1
   158    28    27   ar
   159    25    27   ar
   160    48    49    2
