@<TRIPOS>MOLECULE
tmp/4mqbA00.pdb
 118 113 0 0 0
SMALL
GASTEIGER

@<TRIPOS>ATOM
      1  N          3.0200    0.0200   17.7980 N.3    34  ARG34      -0.1231
      2  CA         3.4850    1.3720   18.1780 C.3    34  ARG34       0.1694
      3  C          2.2920    2.0310   18.7850 C.2    34  ARG34       0.2592
      4  O          1.2140    1.9610   18.2150 O.2    34  ARG34      -0.2718
      5  CB         3.8700    2.1550   16.9380 C.3    34  ARG34       0.0321
      6  CG         4.5680    3.4500   17.2880 C.3    34  ARG34       0.0489
      7  CD         5.2420    4.0850   16.0940 C.3    34  ARG34       0.2205
      8  NE         4.2930    4.4980   15.0790 N.pl3  34  ARG34      -0.0865
      9  CZ         4.6440    4.9670   13.8870 C.cat  34  ARG34       0.5346
     10  NH1        3.7040    5.3240   13.0270 N.pl3  34  ARG34       0.1354
     11  NH2        5.9330    5.0790   13.5440 N.pl3  34  ARG34       0.1354
     12  N          2.4560    2.6590   19.9370 N.am   35  GLU35      -0.1966
     13  CA         1.3110    3.3520   20.5940 C.3    35  GLU35       0.1718
     14  C          0.7880    4.4740   19.7050 C.2    35  GLU35       0.2458
     15  O          1.5980    5.1900   19.1370 O.2    35  GLU35      -0.2730
     16  CB         1.7780    4.0330   21.8950 C.3    35  GLU35       0.0428
     17  CG         2.1130    3.0220   22.9560 C.3    35  GLU35       0.1163
     18  CD         2.9820    3.5830   24.0760 C.2    35  GLU35       0.3649
     19  OE1        3.5780    4.7020   23.9450 O.co2  35  GLU35      -0.2457
     20  OE2        3.1050    2.8520   25.0670 O.co2  35  GLU35      -0.2457
     21  N         -0.5570    4.6560   19.6050 N.am   36  PRO36      -0.2727
     22  CA        -1.6100    3.8730   20.2590 C.3    36  PRO36       0.1402
     23  C         -2.0260    2.5780   19.5830 C.2    36  PRO36       0.2269
     24  O         -2.9060    1.9500   20.0700 O.2    36  PRO36      -0.2865
     25  CB        -2.7800    4.8480   20.3370 C.3    36  PRO36       0.0296
     26  CG        -2.5970    5.6830   19.1150 C.3    36  PRO36       0.0237
     27  CD        -1.1160    5.7950   18.8540 C.3    36  PRO36       0.0939
     28  N         -4.8300   10.6200   21.7630 N.3    46  ARG46      -0.1245
     29  CA        -3.7340   11.1980   21.0430 C.3    46  ARG46       0.1563
     30  C         -4.1840   12.3780   20.1350 C.2    46  ARG46       0.2260
     31  O         -3.4430   13.3210   19.9240 O.2    46  ARG46      -0.2867
     32  CB        -2.9200   10.0650   20.4040 C.3    46  ARG46       0.0307
     33  CG        -3.3080    9.7950   19.0130 C.3    46  ARG46       0.0489
     34  CD        -2.3260   10.3990   18.0390 C.3    46  ARG46       0.2205
     35  NE        -1.4700    9.3590   17.5320 N.pl3  46  ARG46      -0.0865
     36  CZ        -0.8370    9.3940   16.3680 C.cat  46  ARG46       0.5346
     37  NH1       -0.9910   10.4270   15.5390 N.pl3  46  ARG46       0.1354
     38  NH2       -0.0870    8.3550   16.0130 N.pl3  46  ARG46       0.1354
     39  N         -2.7640   16.1980   19.6170 N.3    50  LEU50      -0.1245
     40  CA        -2.4850   16.7640   18.2830 C.3    50  LEU50       0.1561
     41  C         -3.2150   18.0740   18.0440 C.2    50  LEU50       0.2260
     42  O         -2.6750   18.9820   17.4590 O.2    50  LEU50      -0.2867
     43  CB        -2.7480   15.7780   17.1610 C.3    50  LEU50       0.0270
     44  CG        -1.9470   14.4830   17.2060 C.3    50  LEU50       0.0019
     45  CD1       -2.4300   13.4940   16.1660 C.3    50  LEU50       0.0001
     46  CD2       -0.4610   14.7300   17.0230 C.3    50  LEU50       0.0001
     47  N         -0.4940   11.0630   27.1850 N.3    62  PHE62      -0.1241
     48  CA         0.3140    9.9840   26.6220 C.3    62  PHE62       0.1605
     49  C          0.3950    8.7470   27.5050 C.2    62  PHE62       0.2264
     50  O          0.4040    7.6400   26.9650 O.2    62  PHE62      -0.2867
     51  CB         1.7080   10.4530   26.2280 C.3    62  PHE62       0.0534
     52  CG         1.7320   11.3620   25.0120 C.ar   62  PHE62      -0.0203
     53  CD1        0.9660   11.0920   23.8900 C.ar   62  PHE62      -0.0042
     54  CD2        2.6000   12.4430   24.9700 C.ar   62  PHE62      -0.0042
     55  CE1        1.0050   11.9270   22.7750 C.ar   62  PHE62      -0.0003
     56  CE2        2.6760   13.2370   23.8480 C.ar   62  PHE62      -0.0003
     57  CZ         1.8740   12.9800   22.7610 C.ar   62  PHE62      -0.0000
     58  N         -2.9700    6.9610   27.0940 N.3    65  SER65      -0.1202
     59  CA        -2.9540    6.2550   25.8040 C.3    65  SER65       0.2020
     60  C         -2.0880    4.9880   25.9310 C.2    65  SER65       0.2618
     61  O         -2.4790    3.9350   25.4120 O.2    65  SER65      -0.2717
     62  CB        -2.4640    7.1690   24.6570 C.3    65  SER65       0.2103
     63  OG        -2.4510    6.4070   23.4180 O.3    65  SER65      -0.2182
     64  N         -0.9400    5.0990   26.6110 N.am   66  ARG66      -0.1979
     65  CA        -0.0700    3.9870   26.8530 C.3    66  ARG66       0.1597
     66  C         -0.8060    2.8650   27.5780 C.2    66  ARG66       0.2287
     67  O         -0.7270    1.6740   27.1820 O.2    66  ARG66      -0.2864
     68  CB         1.2000    4.4350   27.6350 C.3    66  ARG66       0.0334
     69  CG         2.0580    3.2720   28.1600 C.3    66  ARG66       0.0492
     70  CD         3.4150    3.8370   28.5910 C.3    66  ARG66       0.2205
     71  NE         4.0220    4.2860   27.3610 N.pl3  66  ARG66      -0.0865
     72  CZ         4.7580    5.3650   27.2040 C.cat  66  ARG66       0.5346
     73  NH1        5.0510    6.1530   28.1960 N.pl3  66  ARG66       0.1354
     74  NH2        5.1920    5.6720   25.9850 N.pl3  66  ARG66       0.1354
     75  N          8.8030    2.2110   20.8920 N.3    88  ARG88      -0.1245
     76  CA         8.7710    3.2460   21.9310 C.3    88  ARG88       0.1563
     77  C          7.8850    2.7610   23.0650 C.2    88  ARG88       0.2260
     78  O          6.8510    2.1090   22.8500 O.2    88  ARG88      -0.2867
     79  CB         8.4270    4.6580   21.4300 C.3    88  ARG88       0.0307
     80  CG         9.4090    5.2190   20.4040 C.3    88  ARG88       0.0489
     81  CD         9.1730    6.6860   20.2000 C.3    88  ARG88       0.2205
     82  NE        10.1180    7.2700   19.2500 N.pl3  88  ARG88      -0.0865
     83  CZ        11.3920    7.5790   19.5750 C.cat  88  ARG88       0.5346
     84  NH1       11.8680    7.3340   20.8220 N.pl3  88  ARG88       0.1354
     85  NH2       12.2190    8.1250   18.7000 N.pl3  88  ARG88       0.1354
     86  N         10.9990    6.3030   26.2270 N.3    92  SER92      -0.1202
     87  CA        10.7790    7.4750   25.3760 C.3    92  SER92       0.2020
     88  C         10.2040    8.6260   26.1840 C.2    92  SER92       0.2619
     89  O         10.6790    9.7380   26.0950 O.2    92  SER92      -0.2717
     90  CB         9.8790    7.2230   24.1650 C.3    92  SER92       0.2103
     91  OG        10.5740    6.4540   23.2220 O.3    92  SER92      -0.2182
     92  N          9.1830    8.3470   26.9690 N.am   93  SER93      -0.1951
     93  CA         8.5780    9.3710   27.8380 C.3    93  SER93       0.1924
     94  C          9.6200    9.9500   28.7750 C.2    93  SER93       0.2314
     95  O          9.6700   11.1530   28.9730 O.2    93  SER93      -0.2863
     96  CB         7.3900    8.8400   28.6290 C.3    93  SER93       0.2116
     97  OG         6.3040    8.6030   27.7470 O.3    93  SER93      -0.2180
     98  N         12.2840   12.1000   26.4950 N.3    96  TYR96      -0.1227
     99  CA        11.6620   13.2640   25.8690 C.3    96  TYR96       0.1736
    100  C         10.9590   14.2190   26.8700 C.2    96  TYR96       0.2595
    101  O         11.2950   15.3870   26.9790 O.2    96  TYR96      -0.2718
    102  CB        10.6640   12.8380   24.7470 C.3    96  TYR96       0.0548
    103  CG        11.3280   12.3150   23.5040 C.ar   96  TYR96      -0.0200
    104  CD1       11.8230   11.0170   23.4260 C.ar   96  TYR96      -0.0009
    105  CD2       11.5150   13.1250   22.4140 C.ar   96  TYR96      -0.0009
    106  CE1       12.4800   10.5400   22.3070 C.ar   96  TYR96       0.0417
    107  CE2       12.1640   12.6620   21.2900 C.ar   96  TYR96       0.0417
    108  CZ        12.6410   11.3740   21.2110 C.ar   96  TYR96       0.1957
    109  OH        13.3020   10.9470   20.0560 O.3    96  TYR96      -0.2866
    110  N          9.9760   13.7140   27.5900 N.am   97  GLN97      -0.1979
    111  CA         9.2040   14.5660   28.4810 C.3    97  GLN97       0.1601
    112  C          9.9550   14.8380   29.7810 C.2    97  GLN97       0.2287
    113  O          9.9880   15.9520   30.2740 O.2    97  GLN97      -0.2864
    114  CB         7.8520   13.9050   28.8160 C.3    97  GLN97       0.0394
    115  CG         6.7270   14.0720   27.8200 C.3    97  GLN97       0.0908
    116  CD         7.0600   13.9340   26.3740 C.2    97  GLN97       0.2608
    117  OE1        6.7830   12.8990   25.7650 O.2    97  GLN97      -0.2717
    118  NE2        7.6470   14.9800   25.7940 N.am   97  GLN97      -0.0878
@<TRIPOS>BOND
     1    10     9    1
     2    11     9    1
     3     9     8    2
     4     8     7    1
     5    37    36    1
     6    38    36    1
     7     7     6    1
     8    45    44    1
     9    36    35    2
    10     5     6    1
    11     5     2    1
    12    46    44    1
    13    43    44    1
    14    43    40    1
    15    42    41    2
    16    35    34    1
    17     1     2    1
    18    34    33    1
    19    41    40    1
    20     2     3    1
    21     4     3    2
    22    40    39    1
    23    85    83    1
    24     3    12   am
    25    27    26    1
    26    27    21    1
    27    33    32    1
    28    26    25    1
    29    15    14    2
    30    82    83    2
    31    82    81    1
    32    83    84    1
    33    23    24    2
    34    23    22    1
    35    21    14   am
    36    21    22    1
    37    14    13    1
    38    31    30    2
    39    12    13    1
    40   109   108    1
    41    30    29    1
    42    81    80    1
    43    22    25    1
    44    80    79    1
    45    32    29    1
    46    13    16    1
    47    75    76    1
    48    29    28    1
    49   108   107   ar
    50   108   106   ar
    51   107   105   ar
    52    79    76    1
    53    16    17    1
    54    76    77    1
    55   106   104   ar
    56   105   103   ar
    57    57    55   ar
    58    57    56   ar
    59    55    53   ar
    60    78    77    2
    61    17    18    1
    62    91    90    1
    63    63    62    1
    64   104   103   ar
    65   103   102    1
    66    56    54   ar
    67    53    52   ar
    68    19    18   ar
    69    18    20   ar
    70    90    87    1
    71    62    59    1
    72   102    99    1
    73    54    52   ar
    74    52    51    1
    75    87    88    1
    76    87    86    1
    77    61    60    2
    78   117   116    2
    79   118   116   am
    80    59    60    1
    81    59    58    1
    82    99    98    1
    83    99   100    1
    84    60    64   am
    85    74    72    1
    86    89    88    2
    87    88    92   am
    88    51    48    1
    89   116   115    1
    90    64    65    1
    91    48    47    1
    92    48    49    1
    93    65    66    1
    94    65    68    1
    95   100   101    2
    96   100   110   am
    97    50    49    2
    98    92    93    1
    99    67    66    2
   100    72    71    2
   101    72    73    1
   102    71    70    1
   103   110   111    1
   104    68    69    1
   105    97    96    1
   106   115   114    1
   107    93    96    1
   108    93    94    1
   109    69    70    1
   110   111   114    1
   111   111   112    1
   112    94    95    2
   113   112   113    2
