@<TRIPOS>MOLECULE
tmp/4mqbB00.pdb
 82 78 0 0 0
SMALL
GASTEIGER

@<TRIPOS>ATOM
      1  N        -10.8150   11.8060    0.5380 N.3    10  GLU10      -0.1231
      2  CA       -12.1700   12.0630    0.1590 C.3    10  GLU10       0.1699
      3  C        -12.9950   12.0690    1.5130 C.2    10  GLU10       0.2593
      4  O        -12.7210   11.2950    2.4620 O.2    10  GLU10      -0.2718
      5  CB       -12.6200   11.0060   -0.8220 C.3    10  GLU10       0.0402
      6  CG       -13.8680   11.3580   -1.5570 C.3    10  GLU10       0.1161
      7  CD       -14.3440   10.2760   -2.4970 C.2    10  GLU10       0.3649
      8  OE1      -13.6170    9.2620   -2.6620 O.co2  10  GLU10      -0.2457
      9  OE2      -15.4790   10.4230   -3.0410 O.co2  10  GLU10      -0.2457
     10  N        -13.9930   12.9230    1.6040 N.am   11  GLY11      -0.1942
     11  CA       -14.8160   12.9940    2.7870 C.3    11  GLY11       0.2014
     12  C        -14.2620   13.9050    3.8670 C.2    11  GLY11       0.2640
     13  O        -14.8440   13.9950    4.9180 O.2    11  GLY11      -0.2714
     14  N        -13.1670   14.5900    3.5830 N.am   12  SER12      -0.1935
     15  CA       -12.5310   15.5290    4.5300 C.3    12  SER12       0.2055
     16  C        -13.0950   16.9500    4.3990 C.2    12  SER12       0.2644
     17  O        -12.7500   17.8290    5.1800 O.2    12  SER12      -0.2714
     18  CB       -11.0120   15.5810    4.3030 C.3    12  SER12       0.2130
     19  OG       -10.6980   16.1470    3.0440 O.3    12  SER12      -0.2179
     20  N        -13.9930   17.1910    3.4440 N.am   13  GLY13      -0.1939
     21  CA       -14.5590   18.5390    3.2070 C.3    13  GLY13       0.2014
     22  C        -13.6610   19.4610    2.4080 C.2    13  GLY13       0.2639
     23  O        -13.9260   20.6490    2.2830 O.2    13  GLY13      -0.2714
     24  N        -12.5780   18.9230    1.8500 N.am   14  LYS14      -0.1963
     25  CA       -11.5700   19.7200    1.1760 C.3    14  LYS14       0.1728
     26  C        -12.0910   20.6830    0.1230 C.2    14  LYS14       0.2617
     27  O        -11.7110   21.8560    0.1560 O.2    14  LYS14      -0.2715
     28  CB       -10.3940   18.8260    0.6300 C.3    14  LYS14       0.0311
     29  CG        -9.2520   19.6680    0.0500 C.3    14  LYS14       0.0038
     30  CD        -7.9930   18.8560   -0.2070 C.3    14  LYS14       0.0206
     31  CE        -8.1470   17.7000   -1.1520 C.3    14  LYS14       0.1093
     32  NZ        -8.4840   18.1190   -2.5330 N.3    14  LYS14      -0.1314
     33  N        -12.9150   20.2260   -0.8170 N.am   15  THR15      -0.1937
     34  CA       -13.4060   21.1310   -1.8350 C.3    15  THR15       0.2028
     35  C        -14.1200   22.3040   -1.2220 C.2    15  THR15       0.2642
     36  O        -13.8220   23.4470   -1.5650 O.2    15  THR15      -0.2714
     37  CB       -14.3170   20.4430   -2.8670 C.3    15  THR15       0.1808
     38  OG1      -13.5930   19.3720   -3.4980 O.3    15  THR15      -0.2208
     39  CG2      -14.7540   21.4320   -3.9200 C.3    15  THR15       0.0379
     40  N        -15.0690   22.0340   -0.3060 N.am   16  THR16      -0.1950
     41  CA       -15.8110   23.1230    0.3490 C.3    16  THR16       0.1897
     42  C        -14.8570   24.0820    1.0950 C.2    16  THR16       0.2313
     43  O        -14.9730   25.3050    1.0180 O.2    16  THR16      -0.2863
     44  CB       -16.8550   22.5310    1.3240 C.3    16  THR16       0.1794
     45  OG1      -17.8690   21.8660    0.5930 O.3    16  THR16      -0.2208
     46  CG2      -17.5260   23.5710    2.1770 C.3    16  THR16       0.0378
     47  N        -19.5230   11.2900    5.1900 N.3   137  ARG137     -0.1245
     48  CA       -19.5820   12.4700    4.3030 C.3   137  ARG137      0.1563
     49  C        -19.6940   12.0640    2.8270 C.2   137  ARG137      0.2260
     50  O        -20.4160   12.6850    2.0680 O.2   137  ARG137     -0.2867
     51  CB       -18.3620   13.4200    4.4040 C.3   137  ARG137      0.0307
     52  CG       -18.5320   14.4730    5.3580 C.3   137  ARG137      0.0489
     53  CD       -17.6620   15.6660    5.1000 C.3   137  ARG137      0.2205
     54  NE       -17.7540   16.4250    6.3160 N.pl3 137  ARG137     -0.0865
     55  CZ       -16.8140   16.5110    7.2240 C.cat 137  ARG137      0.5346
     56  NH1      -15.6270   15.9130    7.0520 N.pl3 137  ARG137      0.1354
     57  NH2      -17.0430   17.2400    8.2620 N.pl3 137  ARG137      0.1354
     58  N        -23.1590   10.8760    2.3010 N.3   140  LYS140     -0.1231
     59  CA       -24.0140   12.0710    2.2560 C.3   140  LYS140      0.1693
     60  C        -23.9640   12.8090    0.9230 C.2   140  LYS140      0.2592
     61  O        -25.0090   13.2120    0.4050 O.2   140  LYS140     -0.2718
     62  CB       -23.6130   13.0410    3.3590 C.3   140  LYS140      0.0285
     63  CG       -24.2830   14.3830    3.2800 C.3   140  LYS140      0.0035
     64  CD       -23.7100   15.3080    4.3360 C.3   140  LYS140      0.0206
     65  CE       -22.3150   15.7800    4.0270 C.3   140  LYS140      0.1093
     66  NZ       -21.7380   16.6850    5.0880 N.3   140  LYS140     -0.1314
     67  N        -22.7570   12.9730    0.3620 N.am  141  ASN141     -0.1974
     68  CA       -22.5620   13.6990   -0.8980 C.3   141  ASN141      0.1688
     69  C        -22.8110   12.9300   -2.2000 C.2   141  ASN141      0.2292
     70  O        -22.8930   13.5450   -3.2390 O.2   141  ASN141     -0.2864
     71  CB       -21.1570   14.2650   -0.9130 C.3   141  ASN141      0.1181
     72  CG       -20.9670   15.3280    0.1220 C.2   141  ASN141      0.2629
     73  OD1      -21.8820   16.1140    0.4070 O.2   141  ASN141     -0.2716
     74  ND2      -19.8050   15.4000    0.6440 N.am  141  ASN141     -0.0877
     75  N        -18.5260   21.4930    8.8300 N.3   183  LEU183     -0.1245
     76  CA       -17.7480   22.2250    7.8490 C.3   183  LEU183      0.1561
     77  C        -17.5590   23.7120    8.2000 C.2   183  LEU183      0.2260
     78  O        -16.4590   24.2560    7.9650 O.2   183  LEU183     -0.2867
     79  CB       -18.3280   22.1140    6.4670 C.3   183  LEU183      0.0270
     80  CG       -18.3550   20.7200    5.8700 C.3   183  LEU183      0.0019
     81  CD1      -19.1460   20.8550    4.5710 C.3   183  LEU183      0.0001
     82  CD2      -16.9730   20.1600    5.6580 C.3   183  LEU183      0.0001
@<TRIPOS>BOND
     1    39    37    1
     2    38    37    1
     3    70    69    2
     4     9     7   ar
     5    37    34    1
     6     8     7   ar
     7    32    31    1
     8     7     6    1
     9    69    68    1
    10    34    35    1
    11    34    33    1
    12    36    35    2
    13     6     5    1
    14    35    40   am
    15    31    30    1
    16    71    68    1
    17    71    72    1
    18    68    67    1
    19     5     2    1
    20    33    26   am
    21    40    41    1
    22    30    29    1
    23    29    28    1
    24    72    73    2
    25    72    74   am
    26    26    27    2
    27    26    25    1
    28     2     1    1
    29     2     3    1
    30    41    42    1
    31    41    44    1
    32    67    60   am
    33    61    60    2
    34    45    44    1
    35    28    25    1
    36    60    59    1
    37    43    42    2
    38    25    24    1
    39    44    46    1
    40     3    10   am
    41     3     4    2
    42    10    11    1
    43    24    22   am
    44    50    49    2
    45    59    58    1
    46    59    62    1
    47    23    22    2
    48    22    21    1
    49    11    12    1
    50    49    48    1
    51    19    18    1
    52    21    20    1
    53    63    62    1
    54    63    64    1
    55    20    16   am
    56    14    12   am
    57    14    15    1
    58    12    13    2
    59    65    64    1
    60    65    66    1
    61    48    51    1
    62    48    47    1
    63    18    15    1
    64    16    15    1
    65    16    17    2
    66    51    52    1
    67    81    80    1
    68    53    52    1
    69    53    54    1
    70    82    80    1
    71    80    79    1
    72    54    55    2
    73    79    76    1
    74    56    55    1
    75    55    57    1
    76    76    77    1
    77    76    75    1
    78    78    77    2
