@<TRIPOS>MOLECULE
tmp/4mqbA01.pdb
 80 77 0 0 0
SMALL
GASTEIGER

@<TRIPOS>ATOM
      1  N         16.8820    7.7740   19.8680 N.3     9  PRO9       -0.2102
      2  CA        16.5150    9.1100   19.3480 C.3     9  PRO9        0.1504
      3  C         16.1990    9.1000   17.8750 C.2     9  PRO9        0.2576
      4  O         16.3800    8.0470   17.1960 O.2     9  PRO9       -0.2718
      5  CB        17.7680    9.9050   19.5380 C.3     9  PRO9        0.0282
      6  CG        18.8420    8.9170   19.4000 C.3     9  PRO9        0.0208
      7  CD        18.3390    7.5620   19.8900 C.3     9  PRO9        0.0893
      8  N         15.6690   10.2090   17.3910 N.am   10  GLU10      -0.1966
      9  CA        15.4500   10.3240   15.9800 C.3    10  GLU10       0.1733
     10  C         16.8380   10.1000   15.2620 C.2    10  GLU10       0.2617
     11  O         17.9220   10.4000   15.7990 O.2    10  GLU10      -0.2715
     12  CB        14.8340   11.6800   15.6220 C.3    10  GLU10       0.0429
     13  CG        14.2430   11.7530   14.2330 C.3    10  GLU10       0.1163
     14  CD        13.4830   13.0530   13.8960 C.2    10  GLU10       0.3649
     15  OE1       13.4280   13.9520   14.7680 O.co2  10  GLU10      -0.2457
     16  OE2       12.9510   13.1740   12.7380 O.co2  10  GLU10      -0.2457
     17  N         16.7970    9.5050   14.0770 N.am   11  GLY11      -0.1940
     18  CA        18.0350    9.2670   13.2790 C.3    11  GLY11       0.2014
     19  C         18.8000    7.9930   13.6760 C.2    11  GLY11       0.2640
     20  O         19.9210    7.7980   13.2390 O.2    11  GLY11      -0.2714
     21  N         18.2040    7.1450   14.5380 N.am   12  SER12      -0.1935
     22  CA        18.8470    5.9080   15.0010 C.3    12  SER12       0.2055
     23  C         18.5070    4.6920   14.1090 C.2    12  SER12       0.2644
     24  O         19.0460    3.5920   14.3190 O.2    12  SER12      -0.2714
     25  CB        18.3840    5.5780   16.4320 C.3    12  SER12       0.2130
     26  OG        16.9910    5.3540   16.5020 O.3    12  SER12      -0.2179
     27  N         17.6920    4.8740   13.0660 N.am   13  GLY13      -0.1939
     28  CA        17.2990    3.7830   12.2100 C.3    13  GLY13       0.2014
     29  C         16.2090    2.9100   12.7840 C.2    13  GLY13       0.2639
     30  O         15.8540    1.8720   12.1910 O.2    13  GLY13      -0.2714
     31  N         15.6520    3.3310   13.9200 N.am   14  LYS14      -0.1963
     32  CA        14.6410    2.5320   14.6350 C.3    14  LYS14       0.1728
     33  C         13.4880    1.9560   13.7840 C.2    14  LYS14       0.2617
     34  O         13.1660    0.7620   13.9050 O.2    14  LYS14      -0.2715
     35  CB        14.1520    3.3120   15.8310 C.3    14  LYS14       0.0311
     36  CG        13.1330    2.5470   16.6830 C.3    14  LYS14       0.0038
     37  CD        12.9010    3.2430   18.0180 C.3    14  LYS14       0.0206
     38  CE        12.4980    4.7010   17.9580 C.3    14  LYS14       0.1093
     39  NZ        11.2970    4.8030   17.1210 N.3    14  LYS14      -0.1314
     40  N         12.8200    2.7760   12.9960 N.am   15  THR15      -0.1937
     41  CA        11.6790    2.2840   12.1720 C.3    15  THR15       0.2028
     42  C         12.1250    1.1550   11.2590 C.2    15  THR15       0.2642
     43  O         11.4490    0.1180   11.1700 O.2    15  THR15      -0.2714
     44  CB        11.0830    3.3760   11.2740 C.3    15  THR15       0.1808
     45  OG1       10.6550    4.4570   12.0850 O.3    15  THR15      -0.2208
     46  CG2        9.8990    2.8270   10.3940 C.3    15  THR15       0.0379
     47  N         13.2600    1.3640   10.5820 N.am   16  THR16      -0.1950
     48  CA        13.7690    0.3690    9.6780 C.3    16  THR16       0.1897
     49  C         14.0940   -0.9250   10.4210 C.2    16  THR16       0.2313
     50  O         13.7910   -2.0350    9.9600 O.2    16  THR16      -0.2863
     51  CB        15.0150    0.8860    8.9090 C.3    16  THR16       0.1794
     52  OG1       14.6590    1.9800    8.0330 O.3    16  THR16      -0.2208
     53  CG2       15.7180   -0.2150    8.0760 C.3    16  THR16       0.0378
     54  N          8.8030    2.2110   20.8920 N.3    88  ARG88      -0.1245
     55  CA         8.7710    3.2460   21.9310 C.3    88  ARG88       0.1563
     56  C          7.8850    2.7610   23.0650 C.2    88  ARG88       0.2260
     57  O          6.8510    2.1090   22.8500 O.2    88  ARG88      -0.2867
     58  CB         8.4270    4.6580   21.4300 C.3    88  ARG88       0.0307
     59  CG         9.4090    5.2190   20.4040 C.3    88  ARG88       0.0489
     60  CD         9.1730    6.6860   20.2000 C.3    88  ARG88       0.2205
     61  NE        10.1180    7.2700   19.2500 N.pl3  88  ARG88      -0.0865
     62  CZ        11.3920    7.5790   19.5750 C.cat  88  ARG88       0.5346
     63  NH1       11.8680    7.3340   20.8220 N.pl3  88  ARG88       0.1354
     64  NH2       12.2190    8.1250   18.7000 N.pl3  88  ARG88       0.1354
     65  N         16.1600   11.8440    5.9710 N.3   141  ASN141     -0.1240
     66  CA        14.7860   11.4150    6.0180 C.3   141  ASN141      0.1653
     67  C         13.7710   12.5270    5.9280 C.2   141  ASN141      0.2266
     68  O         12.6180   12.2700    5.5700 O.2   141  ASN141     -0.2867
     69  CB        14.5600   10.5500    7.2420 C.3   141  ASN141      0.1155
     70  CG        15.2360    9.2130    7.1040 C.2   141  ASN141      0.2627
     71  OD1       15.2980    8.6590    6.0130 O.2   141  ASN141     -0.2716
     72  ND2       15.6960    8.6790    8.1830 N.am  141  ASN141     -0.0877
     73  N         22.8700    0.5440    8.4090 N.3   181  LEU181     -0.1245
     74  CA        21.6130   -0.0720    8.8510 C.3   181  LEU181      0.1561
     75  C         21.6120   -1.5720    8.7100 C.2   181  LEU181      0.2260
     76  O         21.0400   -2.2780    9.5780 O.2   181  LEU181     -0.2867
     77  CB        20.3910    0.5770    8.2000 C.3   181  LEU181      0.0270
     78  CG        20.0760    2.0320    8.5890 C.3   181  LEU181      0.0019
     79  CD1       18.8430    2.5470    7.8750 C.3   181  LEU181      0.0001
     80  CD2       19.9130    2.1550   10.0900 C.3   181  LEU181      0.0001
@<TRIPOS>BOND
     1    68    67    2
     2    67    66    1
     3    65    66    1
     4    71    70    2
     5    66    69    1
     6    70    69    1
     7    70    72   am
     8    79    78    1
     9    52    51    1
    10    53    51    1
    11    77    78    1
    12    77    74    1
    13    73    74    1
    14    78    80    1
    15    75    74    1
    16    75    76    2
    17    51    48    1
    18    48    49    1
    19    48    47    1
    20    50    49    2
    21    46    44    1
    22    47    42   am
    23    43    42    2
    24    42    41    1
    25    44    45    1
    26    44    41    1
    27    41    40    1
    28    30    29    2
    29    28    29    1
    30    28    27    1
    31    16    14   ar
    32    29    31   am
    33    40    33   am
    34    27    23   am
    35    20    19    2
    36    18    19    1
    37    18    17    1
    38    19    21   am
    39    33    34    2
    40    33    32    1
    41    14    13    1
    42    14    15   ar
    43    31    32    1
    44    17    10   am
    45    23    24    2
    46    23    22    1
    47    13    12    1
    48    21    22    1
    49    32    35    1
    50    22    25    1
    51    10    11    2
    52    10     9    1
    53    12     9    1
    54    35    36    1
    55     9     8    1
    56    25    26    1
    57    36    37    1
    58    39    38    1
    59     4     3    2
    60     8     3   am
    61     3     2    1
    62    38    37    1
    63    64    62    1
    64    61    62    2
    65    61    60    1
    66     2     5    1
    67     2     1    1
    68     6     5    1
    69     6     7    1
    70    62    63    1
    71     1     7    1
    72    60    59    1
    73    59    58    1
    74    54    55    1
    75    58    55    1
    76    55    56    1
    77    57    56    2
