@<TRIPOS>MOLECULE
tmp/4mqfA00.pdb
 114 112 0 0 0
SMALL
GASTEIGER

@<TRIPOS>ATOM
      1  N        -47.1480   14.6970  -20.0180 N.3    17  GLY17      -0.1210
      2  CA       -47.8680   15.9690  -20.0580 C.3    17  GLY17       0.1956
      3  C        -48.7030   16.1500  -21.3150 C.2    17  GLY17       0.2611
      4  O        -49.7800   16.7440  -21.2630 O.2    17  GLY17      -0.2717
      5  N        -48.1940   15.7000  -22.4680 N.am   18  TRP18      -0.1976
      6  CA       -48.9470   15.7720  -23.7160 C.3    18  TRP18       0.1640
      7  C        -48.9320   14.3800  -24.3460 C.2    18  TRP18       0.2290
      8  O        -47.9620   13.9960  -25.0060 O.2    18  TRP18      -0.2864
      9  CB       -48.4540   16.8520  -24.6850 C.3    18  TRP18       0.0576
     10  CG       -49.3040   16.9060  -25.9180 C.ar   18  TRP18       0.0006
     11  CD1      -50.6410   17.1860  -25.9840 C.ar   18  TRP18       0.0946
     12  CD2      -48.8940   16.5700  -27.2550 C.ar   18  TRP18       0.0152
     13  NE1      -51.0770   17.0960  -27.2830 N.ar   18  TRP18      -0.2442
     14  CE2      -50.0220   16.7290  -28.0890 C.ar   18  TRP18       0.0810
     15  CE3      -47.6570   16.2150  -27.8440 C.ar   18  TRP18       0.0012
     16  CZ2      -49.9610   16.5170  -29.4750 C.ar   18  TRP18       0.0191
     17  CZ3      -47.6100   15.9560  -29.2030 C.ar   18  TRP18       0.0001
     18  CH2      -48.7460   16.1200  -30.0060 C.ar   18  TRP18       0.0015
     19  N        -43.3990   11.4700  -23.5300 N.3    56  CYS56      -0.1235
     20  CA       -43.2780   12.9210  -23.3940 C.3    56  CYS56       0.1677
     21  C        -42.1450   13.2170  -22.3770 C.2    56  CYS56       0.2270
     22  O        -42.2410   14.1280  -21.5550 O.2    56  CYS56      -0.2867
     23  CB       -44.6140   13.5130  -22.9610 C.3    56  CYS56       0.0956
     24  SG       -44.8250   15.2400  -23.3870 S.3    56  CYS56      -0.0801
     25  N        -43.4320   15.9380  -28.4870 N.3    82  CYS82      -0.1221
     26  CA       -43.4020   16.8550  -27.3340 C.3    82  CYS82       0.1808
     27  C        -42.2910   17.9100  -27.5170 C.2    82  CYS82       0.2601
     28  O        -41.2440   17.6020  -28.0870 O.2    82  CYS82      -0.2717
     29  CB       -43.2430   16.0770  -26.0150 C.3    82  CYS82       0.0970
     30  SG       -44.7800   15.2670  -25.4520 S.3    82  CYS82      -0.0800
     31  N        -42.5370   19.1340  -27.0410 N.am   83  SER83      -0.1952
     32  CA       -41.5680   20.2370  -27.1120 C.3    83  SER83       0.1924
     33  C        -40.2570   19.9030  -26.4160 C.2    83  SER83       0.2314
     34  O        -39.2140   20.2440  -26.9470 O.2    83  SER83      -0.2863
     35  CB       -42.1400   21.5080  -26.5150 C.3    83  SER83       0.2116
     36  OG       -42.9130   22.2250  -27.4550 O.3    83  SER83      -0.2180
     37  N        -46.0160   18.1380  -33.0670 N.3   104  GLY104     -0.1210
     38  CA       -46.7320   18.6770  -31.9080 C.3   104  GLY104      0.1956
     39  C        -46.1090   19.7700  -31.0540 C.2   104  GLY104      0.2613
     40  O        -46.7620   20.2320  -30.1210 O.2   104  GLY104     -0.2717
     41  N        -44.8700   20.2300  -31.3710 N.am  105  SER105     -0.1938
     42  CA       -44.1340   21.2000  -30.5430 C.3   105  SER105      0.2055
     43  C        -44.4960   22.6390  -30.7740 C.2   105  SER105      0.2643
     44  O        -44.3350   23.1660  -31.8660 O.2   105  SER105     -0.2714
     45  CB       -42.6420   20.9980  -30.7060 C.3   105  SER105      0.2130
     46  OG       -42.3160   19.6730  -30.3180 O.3   105  SER105     -0.2179
     47  N        -44.9930   23.2840  -29.7230 N.am  106  SER106     -0.1949
     48  CA       -45.4490   24.6770  -29.7600 C.3   106  SER106      0.1924
     49  C        -44.4760   25.6720  -29.0700 C.2   106  SER106      0.2314
     50  O        -44.7150   26.8730  -29.1270 O.2   106  SER106     -0.2863
     51  CB       -46.8110   24.7720  -29.0800 C.3   106  SER106      0.2116
     52  OG       -46.6880   24.3370  -27.7340 O.3   106  SER106     -0.2180
     53  N        -46.6360   21.9300  -36.4590 N.3   123  HIS123     -0.1241
     54  CA       -47.3520   22.5440  -35.3460 C.3   123  HIS123      0.1621
     55  C        -46.8240   23.9930  -35.2290 C.2   123  HIS123      0.2264
     56  O        -45.6230   24.1740  -35.1180 O.2   123  HIS123     -0.2867
     57  CB       -47.0970   21.8060  -34.0210 C.3   123  HIS123      0.0745
     58  CG       -48.0750   22.1730  -32.9260 C.ar  123  HIS123      0.0817
     59  ND1      -48.1190   23.4500  -32.3850 N.ar  123  HIS123     -0.2268
     60  CD2      -48.9660   21.3960  -32.2670 C.ar  123  HIS123      0.1154
     61  CE1      -49.0730   23.4250  -31.4650 C.ar  123  HIS123      0.1986
     62  NE2      -49.5970   22.2080  -31.3450 N.ar  123  HIS123     -0.2212
     63  N        -51.9420   29.0120  -17.5130 N.3   203  TYR203     -0.1241
     64  CA       -52.6430   27.7550  -17.7100 C.3   203  TYR203      0.1605
     65  C        -54.0660   27.8800  -17.1080 C.2   203  TYR203      0.2264
     66  O        -54.3880   28.9010  -16.5140 O.2   203  TYR203     -0.2867
     67  CB       -51.8340   26.5780  -17.1470 C.3   203  TYR203      0.0534
     68  CG       -50.6080   26.2960  -17.9860 C.ar  203  TYR203     -0.0201
     69  CD1      -50.7210   25.8290  -19.2920 C.ar  203  TYR203     -0.0009
     70  CD2      -49.3300   26.4670  -17.4610 C.ar  203  TYR203     -0.0009
     71  CE1      -49.5950   25.5690  -20.0670 C.ar  203  TYR203      0.0417
     72  CE2      -48.1950   26.1990  -18.2200 C.ar  203  TYR203      0.0417
     73  CZ       -48.3320   25.7580  -19.5240 C.ar  203  TYR203      0.1957
     74  OH       -47.2050   25.5390  -20.2700 O.3   203  TYR203     -0.2866
     75  N        -57.3310   27.7220  -25.7380 N.3   231  TRP231     -0.1241
     76  CA       -57.2580   26.2590  -25.6710 C.3   231  TRP231      0.1605
     77  C        -57.7880   25.6570  -24.3470 C.2   231  TRP231      0.2264
     78  O        -57.6890   24.4390  -24.1560 O.2   231  TRP231     -0.2867
     79  CB       -55.8740   25.6650  -26.0290 C.3   231  TRP231      0.0550
     80  CG       -54.6250   26.3730  -25.5700 C.ar  231  TRP231      0.0003
     81  CD1      -53.6780   26.9270  -26.3820 C.ar  231  TRP231      0.0946
     82  CD2      -54.0760   26.4060  -24.2410 C.ar  231  TRP231      0.0152
     83  NE1      -52.6040   27.3550  -25.6410 N.ar  231  TRP231     -0.2442
     84  CE2      -52.8240   27.0630  -24.3240 C.ar  231  TRP231      0.0810
     85  CE3      -54.5340   25.9800  -22.9810 C.ar  231  TRP231      0.0012
     86  CZ2      -52.0330   27.3210  -23.2080 C.ar  231  TRP231      0.0191
     87  CZ3      -53.7330   26.2230  -21.8680 C.ar  231  TRP231      0.0001
     88  CH2      -52.5150   26.9150  -21.9880 C.ar  231  TRP231      0.0015
     89  N        -56.1250   24.0260  -36.3730 N.3   265  MET265     -0.1245
     90  CA       -55.4530   22.7440  -36.6190 C.3   265  MET265      0.1570
     91  C        -56.1950   21.8560  -37.6540 C.2   265  MET265      0.2261
     92  O        -55.6450   20.8410  -38.1080 O.2   265  MET265     -0.2867
     93  CB       -55.2490   21.9600  -35.3230 C.3   265  MET265      0.0387
     94  CG       -54.2280   22.5790  -34.3720 C.3   265  MET265      0.0595
     95  SD       -54.0340   21.5090  -32.9510 S.3   265  MET265     -0.1393
     96  CE       -53.1240   22.6250  -31.7850 C.3   265  MET265      0.0692
     97  N        -56.8290   16.6080  -31.6280 N.3   301  GLN301     -0.1231
     98  CA       -56.8700   17.8990  -32.3200 C.3   301  GLN301      0.1698
     99  C        -55.5570   18.1840  -33.1130 C.2   301  GLN301      0.2592
    100  O        -55.6130   18.8480  -34.1510 O.2   301  GLN301     -0.2718
    101  CB       -57.2720   19.0610  -31.3840 C.3   301  GLN301      0.0381
    102  CG       -56.3450   19.3800  -30.2070 C.3   301  GLN301      0.0905
    103  CD       -56.5670   20.7630  -29.6140 C.2   301  GLN301      0.2608
    104  OE1      -57.2580   21.6260  -30.1870 O.2   301  GLN301     -0.2717
    105  NE2      -55.9300   21.0240  -28.4690 N.am  301  GLN301     -0.0878
    106  N        -54.4060   17.6060  -32.6820 N.am  302  GLU302     -0.1979
    107  CA       -53.1310   17.8070  -33.3860 C.3   302  GLU302      0.1602
    108  C        -52.9260   16.7660  -34.4790 C.2   302  GLU302      0.2287
    109  O        -52.0990   16.9790  -35.3550 O.2   302  GLU302     -0.2864
    110  CB       -51.9200   17.8330  -32.4240 C.3   302  GLU302      0.0415
    111  CG       -51.8900   19.0200  -31.4710 C.3   302  GLU302      0.1163
    112  CD       -52.7280   18.8600  -30.2180 C.2   302  GLU302      0.3649
    113  OE1      -53.1620   17.7170  -29.9470 O.co2 302  GLU302     -0.2457
    114  OE2      -52.9770   19.8710  -29.5250 O.co2 302  GLU302     -0.2457
@<TRIPOS>BOND
     1    92    91    2
     2    91    90    1
     3    90    89    1
     4    90    93    1
     5    53    54    1
     6   109   108    2
     7    54    55    1
     8    54    57    1
     9    93    94    1
    10    55    56    2
    11   108   107    1
    12    94    95    1
    13   100    99    2
    14    57    58    1
    15   107   106    1
    16   107   110    1
    17    99   106   am
    18    99    98    1
    19    37    38    1
    20    95    96    1
    21    58    59   ar
    22    58    60   ar
    23   110   111    1
    24    59    61   ar
    25    98    97    1
    26    98   101    1
    27    60    62   ar
    28    38    39    1
    29    44    43    2
    30   111   112    1
    31    61    62   ar
    32   101   102    1
    33    41    39   am
    34    41    42    1
    35    39    40    2
    36    43    42    1
    37    43    47   am
    38    45    42    1
    39    45    46    1
    40   112   113   ar
    41   112   114   ar
    42   102   103    1
    43   104   103    2
    44    18    16   ar
    45    18    17   ar
    46    48    47    1
    47    48    51    1
    48    48    49    1
    49   103   105   am
    50    16    14   ar
    51    17    15   ar
    52    50    49    2
    53    51    52    1
    54    25    26    1
    55    14    13   ar
    56    14    12   ar
    57    28    27    2
    58    15    12   ar
    59    27    26    1
    60    27    31   am
    61    36    35    1
    62    26    29    1
    63    13    11   ar
    64    12    10   ar
    65    32    31    1
    66    32    35    1
    67    32    33    1
    68    34    33    2
    69    81    83   ar
    70    81    80   ar
    71    79    76    1
    72    79    80    1
    73    29    30    1
    74    11    10   ar
    75    10     9    1
    76    75    76    1
    77    76    77    1
    78    83    84   ar
    79    80    82   ar
    80    30    24    1
    81     8     7    2
    82     9     6    1
    83    77    78    2
    84     7     6    1
    85    84    82   ar
    86    84    86   ar
    87    82    85   ar
    88     6     5    1
    89    19    20    1
    90    20    23    1
    91    20    21    1
    92    24    23    1
    93    86    88   ar
    94    85    87   ar
    95     5     3   am
    96    21    22    2
    97    88    87   ar
    98     3     4    2
    99     3     2    1
   100    74    73    1
   101    71    73   ar
   102    71    69   ar
   103     2     1    1
   104    73    72   ar
   105    69    68   ar
   106    72    70   ar
   107    68    70   ar
   108    68    67    1
   109    64    63    1
   110    64    67    1
   111    64    65    1
   112    65    66    2
