@<TRIPOS>MOLECULE
tmp/4mqlA00.pdb
 103 104 0 0 0
SMALL
GASTEIGER

@<TRIPOS>ATOM
      1  N         15.1120   32.6260   28.0200 N.3    78  THR78      -0.1203
      2  CA        14.7080   32.5500   26.6310 C.3    78  THR78       0.1994
      3  C         14.2670   33.9330   26.1400 C.2    78  THR78       0.2618
      4  O         14.0900   34.8600   26.9330 O.2    78  THR78      -0.2717
      5  CB        13.5740   31.4990   26.4660 C.3    78  THR78       0.1784
      6  OG1       13.4600   31.0860   25.0980 O.3    78  THR78      -0.2211
      7  CG2       12.2400   32.0350   26.9620 C.3    78  THR78       0.0376
      8  N         14.1210   34.0700   24.8280 N.am   79  ASP79      -0.1959
      9  CA        13.5350   35.2810   24.2570 C.3    79  ASP79       0.1840
     10  C         12.0240   35.0790   24.1370 C.2    79  ASP79       0.2622
     11  O         11.5640   34.2020   23.4060 O.2    79  ASP79      -0.2715
     12  CB        14.1500   35.6110   22.8940 C.3    79  ASP79       0.1450
     13  CG        15.4780   36.3460   23.0010 C.2    79  ASP79       0.3671
     14  OD1       16.1650   36.2650   24.0360 O.co2  79  ASP79      -0.2456
     15  OD2       15.8400   37.0290   22.0240 O.co2  79  ASP79      -0.2456
     16  N         11.2600   35.8610   24.8800 N.am   80  TRP80      -0.1960
     17  CA         9.8090   35.7340   24.8830 C.3    80  TRP80       0.1771
     18  C          9.1610   36.3560   23.6460 C.2    80  TRP80       0.2619
     19  O          9.7260   37.2500   23.0120 O.2    80  TRP80      -0.2715
     20  CB         9.2320   36.3850   26.1370 C.3    80  TRP80       0.0590
     21  CG         9.4810   35.6170   27.3940 C.ar   80  TRP80       0.0006
     22  CD1       10.6330   34.9610   27.7570 C.ar   80  TRP80       0.0946
     23  CD2        8.5520   35.4130   28.4550 C.ar   80  TRP80       0.0152
     24  NE1       10.4620   34.3640   28.9780 N.ar   80  TRP80      -0.2442
     25  CE2        9.1940   34.6230   29.4320 C.ar   80  TRP80       0.0810
     26  CE3        7.2280   35.8180   28.6770 C.ar   80  TRP80       0.0012
     27  CZ2        8.5620   34.2370   30.6110 C.ar   80  TRP80       0.0191
     28  CZ3        6.6080   35.4390   29.8410 C.ar   80  TRP80       0.0001
     29  CH2        7.2680   34.6530   30.7950 C.ar   80  TRP80       0.0015
     30  N          7.9590   35.8910   23.3190 N.am   81  TYR81      -0.1974
     31  CA         7.1430   36.5360   22.2930 C.3    81  TYR81       0.1639
     32  C          6.7150   37.9300   22.7230 C.2    81  TYR81       0.2290
     33  O          6.7480   38.8670   21.9090 O.2    81  TYR81      -0.2864
     34  CB         5.8860   35.7270   21.9880 C.3    81  TYR81       0.0560
     35  CG         6.0670   34.6180   21.0010 C.ar   81  TYR81      -0.0198
     36  CD1        6.3250   34.8780   19.6620 C.ar   81  TYR81      -0.0009
     37  CD2        5.9430   33.2980   21.4020 C.ar   81  TYR81      -0.0009
     38  CE1        6.4670   33.8400   18.7550 C.ar   81  TYR81       0.0417
     39  CE2        6.0810   32.2650   20.5110 C.ar   81  TYR81       0.0417
     40  CZ         6.3510   32.5350   19.1950 C.ar   81  TYR81       0.1957
     41  OH         6.4960   31.5030   18.3020 O.3    81  TYR81      -0.2866
     42  N         14.3060   39.0660   26.9730 N.3    94  LYS94      -0.1245
     43  CA        15.1380   38.6510   25.8430 C.3    94  LYS94       0.1561
     44  C         16.4450   38.0790   26.3890 C.2    94  LYS94       0.2260
     45  O         17.5450   38.5530   26.0940 O.2    94  LYS94      -0.2867
     46  CB        15.4020   39.8160   24.8760 C.3    94  LYS94       0.0271
     47  CG        14.1390   40.3750   24.1890 C.3    94  LYS94       0.0035
     48  CD        13.4980   39.3680   23.2290 C.3    94  LYS94       0.0206
     49  CE        12.3600   40.0080   22.4170 C.3    94  LYS94       0.1093
     50  NZ        11.5220   38.9980   21.6740 N.3    94  LYS94      -0.1314
     51  N          5.4160   33.6090   26.6760 N.3   177  MET177     -0.1230
     52  CA         6.7870   33.1630   26.4670 C.3   177  MET177      0.1702
     53  C          6.9550   32.4400   25.1300 C.2   177  MET177      0.2592
     54  O          7.6490   32.9140   24.2320 O.2   177  MET177     -0.2718
     55  CB         7.2080   32.2600   27.6330 C.3   177  MET177      0.0401
     56  CG         8.6630   31.8030   27.5770 C.3   177  MET177      0.0596
     57  SD         9.2070   30.9290   29.0600 S.3   177  MET177     -0.1393
     58  CE         8.3320   29.3720   28.8930 C.3   177  MET177      0.0692
     59  N          6.3040   31.2850   25.0000 N.am  178  TRP178     -0.1976
     60  CA         6.4660   30.4480   23.8120 C.3   178  TRP178      0.1640
     61  C          5.1550   30.1990   23.0500 C.2   178  TRP178      0.2290
     62  O          5.1160   29.3660   22.1480 O.2   178  TRP178     -0.2864
     63  CB         7.0950   29.0980   24.1890 C.3   178  TRP178      0.0576
     64  CG         8.5420   29.1890   24.6220 C.ar  178  TRP178      0.0006
     65  CD1        9.4430   30.1630   24.2860 C.ar  178  TRP178      0.0946
     66  CD2        9.2390   28.2690   25.4780 C.ar  178  TRP178      0.0152
     67  NE1       10.6610   29.9030   24.8840 N.ar  178  TRP178     -0.2442
     68  CE2       10.5570   28.7510   25.6200 C.ar  178  TRP178      0.0810
     69  CE3        8.8740   27.0910   26.1430 C.ar  178  TRP178      0.0012
     70  CZ2       11.5120   28.0960   26.4050 C.ar  178  TRP178      0.0191
     71  CZ3        9.8250   26.4390   26.9180 C.ar  178  TRP178      0.0001
     72  CH2       11.1280   26.9440   27.0370 C.ar  178  TRP178      0.0015
     73  N          5.5330   26.4200   17.5380 N.3   184  PRO184     -0.2102
     74  CA         6.8660   25.8570   17.2620 C.3   184  PRO184      0.1504
     75  C          7.9180   26.1740   18.3300 C.2   184  PRO184      0.2575
     76  O          8.8810   25.4140   18.4700 O.2   184  PRO184     -0.2718
     77  CB         7.2630   26.5030   15.9270 C.3   184  PRO184      0.0282
     78  CG         6.2730   27.6320   15.7170 C.3   184  PRO184      0.0208
     79  CD         5.0190   27.1770   16.3830 C.3   184  PRO184      0.0893
     80  N          7.7420   27.2670   19.0630 N.am  185  ALA185     -0.1980
     81  CA         8.7190   27.6520   20.0780 C.3   185  ALA185      0.1597
     82  C          8.8600   26.6000   21.1820 C.2   185  ALA185      0.2287
     83  O          9.9420   26.4640   21.7700 O.2   185  ALA185     -0.2864
     84  CB         8.3500   29.0000   20.6730 C.3   185  ALA185      0.0319
     85  N         11.1420   23.9890   19.6850 N.3   188  ARG188     -0.1231
     86  CA        12.4540   24.5940   19.4540 C.3   188  ARG188      0.1694
     87  C         13.2940   24.5610   20.7390 C.2   188  ARG188      0.2592
     88  O         14.5070   24.3090   20.7010 O.2   188  ARG188     -0.2718
     89  CB        12.3020   26.0390   18.9470 C.3   188  ARG188      0.0321
     90  CG        13.5970   26.7070   18.4860 C.3   188  ARG188      0.0489
     91  CD        14.3230   27.4180   19.6380 C.3   188  ARG188      0.2205
     92  NE        15.4840   28.1480   19.1590 N.pl3 188  ARG188     -0.0865
     93  CZ        16.2810   28.8920   19.9240 C.cat 188  ARG188      0.5346
     94  NH1       16.0490   29.0020   21.2250 N.pl3 188  ARG188      0.1354
     95  NH2       17.3080   29.5220   19.3720 N.pl3 188  ARG188      0.1354
     96  N         12.6300   24.8170   21.8600 N.am  189  ASN189     -0.1974
     97  CA        13.2830   24.9280   23.1570 C.3   189  ASN189      0.1688
     98  C         13.1580   23.6600   24.0060 C.2   189  ASN189      0.2292
     99  O         13.3280   23.7030   25.2270 O.2   189  ASN189     -0.2864
    100  CB        12.7080   26.1440   23.8790 C.3   189  ASN189      0.1181
    101  CG        13.0910   27.4250   23.1920 C.2   189  ASN189      0.2629
    102  OD1       14.2700   27.7520   23.1230 O.2   189  ASN189     -0.2716
    103  ND2       12.1160   28.1240   22.6100 N.am  189  ASN189     -0.0877
@<TRIPOS>BOND
     1    78    77    1
     2    78    79    1
     3    77    74    1
     4    79    73    1
     5    74    73    1
     6    74    75    1
     7    41    40    1
     8    75    76    2
     9    75    80   am
    10    90    89    1
    11    90    91    1
    12    38    40   ar
    13    38    36   ar
    14    89    86    1
    15    80    81    1
    16    92    91    1
    17    92    93    2
    18    40    39   ar
    19    95    93    1
    20    86    85    1
    21    86    87    1
    22    36    35   ar
    23    93    94    1
    24    81    84    1
    25    81    82    1
    26    39    37   ar
    27    88    87    2
    28    87    96   am
    29    35    37   ar
    30    35    34    1
    31    82    83    2
    32    50    49    1
    33    96    97    1
    34    33    32    2
    35    34    31    1
    36    15    13   ar
    37    62    61    2
    38    31    32    1
    39    31    30    1
    40    49    48    1
    41   103   101   am
    42    12    13    1
    43    12     9    1
    44    13    14   ar
    45    19    18    2
    46    61    60    1
    47   102   101    2
    48    97   100    1
    49    97    98    1
    50   101   100    1
    51    48    47    1
    52    30    18   am
    53    11    10    2
    54    18    17    1
    55    60    63    1
    56    60    59    1
    57    98    99    2
    58    10     9    1
    59    10    16   am
    60    47    46    1
    61    63    64    1
    62    54    53    2
    63     9     8    1
    64    65    64   ar
    65    65    67   ar
    66    64    66   ar
    67     8     3   am
    68    46    43    1
    69    16    17    1
    70    17    20    1
    71    67    68   ar
    72    59    53   am
    73     6     5    1
    74    53    52    1
    75    66    68   ar
    76    66    69   ar
    77    68    70   ar
    78    43    44    1
    79    43    42    1
    80    45    44    2
    81    20    21    1
    82     3     2    1
    83     3     4    2
    84    69    71   ar
    85    70    72   ar
    86     5     2    1
    87     5     7    1
    88    52    51    1
    89    52    55    1
    90     2     1    1
    91    71    72   ar
    92    21    22   ar
    93    21    23   ar
    94    56    55    1
    95    56    57    1
    96    22    24   ar
    97    23    26   ar
    98    23    25   ar
    99    26    28   ar
   100    58    57    1
   101    24    25   ar
   102    25    27   ar
   103    28    29   ar
   104    27    29   ar
