@<TRIPOS>MOLECULE
tmp/4mqpB01.pdb
 179 175 0 0 0
SMALL
GASTEIGER

@<TRIPOS>ATOM
      1  N         43.3810    1.9280   18.2740 N.3    18  TYR18      -0.1241
      2  CA        44.7910    1.9160   18.6900 C.3    18  TYR18       0.1605
      3  C         45.7010    2.7440   17.7560 C.2    18  TYR18       0.2264
      4  O         46.8120    2.3270   17.4430 O.2    18  TYR18      -0.2867
      5  CB        45.2850    0.4520   18.8040 C.3    18  TYR18       0.0534
      6  CG        44.2850   -0.4030   19.5480 C.ar   18  TYR18      -0.0201
      7  CD1       44.0390   -0.1900   20.9060 C.ar   18  TYR18      -0.0009
      8  CD2       43.5380   -1.3880   18.8850 C.ar   18  TYR18      -0.0009
      9  CE1       43.0940   -0.9410   21.5910 C.ar   18  TYR18       0.0417
     10  CE2       42.5840   -2.1460   19.5640 C.ar   18  TYR18       0.0417
     11  CZ        42.3760   -1.9230   20.9200 C.ar   18  TYR18       0.1957
     12  OH        41.4370   -2.6620   21.6020 O.3    18  TYR18      -0.2866
     13  N         38.4100  -10.1570   13.7330 N.3    57  TRP57      -0.1227
     14  CA        38.7300  -10.1080   15.1510 C.3    57  TRP57       0.1737
     15  C         37.9570  -11.1070   15.9480 C.2    57  TRP57       0.2595
     16  O         37.3110  -10.7490   16.9210 O.2    57  TRP57      -0.2718
     17  CB        38.4910   -8.7010   15.7070 C.3    57  TRP57       0.0564
     18  CG        39.6180   -7.7480   15.4590 C.ar   57  TRP57       0.0003
     19  CD1       40.9260   -8.0470   15.1030 C.ar   57  TRP57       0.0946
     20  CD2       39.5790   -6.2840   15.5840 C.ar   57  TRP57       0.0152
     21  NE1       41.6750   -6.8950   14.9830 N.ar   57  TRP57      -0.2442
     22  CE2       40.9310   -5.8090   15.2610 C.ar   57  TRP57       0.0810
     23  CE3       38.5930   -5.3550   15.9040 C.ar   57  TRP57       0.0012
     24  CZ2       41.2590   -4.4570   15.2740 C.ar   57  TRP57       0.0191
     25  CZ3       38.9350   -4.0030   15.9340 C.ar   57  TRP57       0.0001
     26  CH2       40.2400   -3.5650   15.6200 C.ar   57  TRP57       0.0015
     27  N         37.9870  -12.3550   15.4760 N.am   58  TRP58      -0.1976
     28  CA        37.4590  -13.5090   16.1980 C.3    58  TRP58       0.1640
     29  C         35.9680  -13.5130   16.3460 C.2    58  TRP58       0.2290
     30  O         35.4350  -14.0950   17.2940 O.2    58  TRP58      -0.2864
     31  CB        38.1390  -13.6080   17.5560 C.3    58  TRP58       0.0576
     32  CG        39.5720  -13.1480   17.4680 C.ar   58  TRP58       0.0006
     33  CD1       40.3130  -12.8870   16.3130 C.ar   58  TRP58       0.0946
     34  CD2       40.4940  -12.9180   18.5700 C.ar   58  TRP58       0.0152
     35  NE1       41.5830  -12.4970   16.6260 N.ar   58  TRP58      -0.2442
     36  CE2       41.7560  -12.4940   17.9660 C.ar   58  TRP58       0.0810
     37  CE3       40.3980  -12.9890   19.9420 C.ar   58  TRP58       0.0012
     38  CZ2       42.8560  -12.2000   18.7240 C.ar   58  TRP58       0.0191
     39  CZ3       41.5200  -12.6780   20.7020 C.ar   58  TRP58       0.0001
     40  CH2       42.7200  -12.3010   20.1060 C.ar   58  TRP58       0.0015
     41  N         28.8220   -4.5130   24.5040 N.3   116  SER116     -0.1202
     42  CA        30.2000   -4.8170   24.1210 C.3   116  SER116      0.2020
     43  C         30.9910   -5.5720   25.1880 C.2   116  SER116      0.2619
     44  O         30.5980   -5.6460   26.3620 O.2   116  SER116     -0.2717
     45  CB        30.9420   -3.5080   23.7960 C.3   116  SER116      0.2103
     46  OG        31.2120   -2.8030   25.0100 O.3   116  SER116     -0.2182
     47  N         32.1170   -6.1360   24.7630 N.am  117  GLY117     -0.1942
     48  CA        32.9640   -6.9230   25.6530 C.3   117  GLY117      0.2014
     49  C         33.4340   -6.1420   26.8830 C.2   117  GLY117      0.2639
     50  O         33.3530   -6.6470   28.0130 O.2   117  GLY117     -0.2714
     51  N         33.8820   -4.9000   26.6800 N.am  118  SER118     -0.1949
     52  CA        34.4390   -4.1110   27.8010 C.3   118  SER118      0.1924
     53  C         33.3380   -3.8320   28.8030 C.2   118  SER118      0.2314
     54  O         33.5520   -3.9160   30.0050 O.2   118  SER118     -0.2863
     55  CB        35.0350   -2.7890   27.3120 C.3   118  SER118      0.2116
     56  OG        36.1670   -3.0250   26.5260 O.3   118  SER118     -0.2180
     57  N         32.6130   -6.8480   30.9730 N.3   121  VAL121     -0.1245
     58  CA        33.6510   -6.9360   32.0150 C.3   121  VAL121      0.1561
     59  C         33.3430   -6.0190   33.1940 C.2   121  VAL121      0.2260
     60  O         33.4780   -6.4310   34.3690 O.2   121  VAL121     -0.2867
     61  CB        35.0860   -6.6940   31.4760 C.3   121  VAL121      0.0252
     62  CG1       36.1000   -6.5620   32.6170 C.3   121  VAL121      0.0019
     63  CG2       35.4920   -7.8320   30.5470 C.3   121  VAL121      0.0019
     64  N         44.3870   -9.2180   29.2640 N.3   150  TYR150     -0.1227
     65  CA        43.6920   -8.1030   28.6180 C.3   150  TYR150      0.1736
     66  C         42.2000   -8.3310   28.7340 C.2   150  TYR150      0.2595
     67  O         41.7230   -9.4500   28.5050 O.2   150  TYR150     -0.2718
     68  CB        44.0570   -8.0000   27.1310 C.3   150  TYR150      0.0548
     69  CG        43.3030   -6.9040   26.3860 C.ar  150  TYR150     -0.0200
     70  CD1       43.6340   -5.5560   26.5480 C.ar  150  TYR150     -0.0009
     71  CD2       42.2730   -7.2290   25.5090 C.ar  150  TYR150     -0.0009
     72  CE1       42.9320   -4.5600   25.8600 C.ar  150  TYR150      0.0417
     73  CE2       41.5750   -6.2420   24.8200 C.ar  150  TYR150      0.0417
     74  CZ        41.9140   -4.9210   25.0040 C.ar  150  TYR150      0.1957
     75  OH        41.1970   -3.9910   24.3100 O.3   150  TYR150     -0.2866
     76  N         41.4620   -7.2700   29.0810 N.am  151  HIS151     -0.1961
     77  CA        40.0150   -7.3370   29.3040 C.3   151  HIS151      0.1787
     78  C         39.2240   -6.1480   28.7600 C.2   151  HIS151      0.2621
     79  O         38.0580   -5.9180   29.1480 O.2   151  HIS151     -0.2715
     80  CB        39.7480   -7.4860   30.8000 C.3   151  HIS151      0.0785
     81  CG        40.3880   -8.6980   31.3960 C.ar  151  HIS151      0.0821
     82  ND1       39.8100   -9.9000   31.3410 N.ar  151  HIS151     -0.2267
     83  CD2       41.6150   -8.8740   32.0180 C.ar  151  HIS151      0.1154
     84  CE1       40.6080  -10.8120   31.9400 C.ar  151  HIS151      0.1986
     85  NE2       41.7170  -10.1930   32.3360 N.ar  151  HIS151     -0.2212
     86  N         39.8480   -5.3600   27.8910 N.am  152  GLY152     -0.1940
     87  CA        39.1560   -4.2740   27.1950 C.3   152  GLY152      0.2014
     88  C         39.6990   -2.9180   27.5840 C.2   152  GLY152      0.2638
     89  O         40.7100   -2.8090   28.2800 O.2   152  GLY152     -0.2714
     90  N         39.0010   -1.8850   27.1530 N.am  153  ASP153     -0.1971
     91  CA        39.5710   -0.5410   27.1130 C.3   153  ASP153      0.1709
     92  C         38.8520    0.4970   27.9630 C.2   153  ASP153      0.2293
     93  O         39.2990    1.6390   28.0380 O.2   153  ASP153     -0.2864
     94  CB        39.5830   -0.0630   25.6680 C.3   153  ASP153      0.1436
     95  CG        40.4170   -0.9590   24.7780 C.2   153  ASP153      0.3671
     96  OD1       40.0990   -1.0590   23.5850 O.co2 153  ASP153     -0.2456
     97  OD2       41.3840   -1.5510   25.2870 O.co2 153  ASP153     -0.2456
     98  N         41.5100  -14.6640   31.7950 N.3   213  GLU213     -0.1245
     99  CA        41.1500  -15.3380   30.5440 C.3   213  GLU213      0.1567
    100  C         41.5300  -16.8210   30.6940 C.2   213  GLU213      0.2260
    101  O         42.6910  -17.1210   30.9640 O.2   213  GLU213     -0.2867
    102  CB        41.9520  -14.7600   29.3820 C.3   213  GLU213      0.0388
    103  CG        41.7140  -13.2700   29.1000 C.3   213  GLU213      0.1160
    104  CD        42.8350  -12.6850   28.2610 C.2   213  GLU213      0.3649
    105  OE1       43.8570  -12.2640   28.8340 O.co2 213  GLU213     -0.2457
    106  OE2       42.7170  -12.6690   27.0260 O.co2 213  GLU213     -0.2457
    107  N         44.7100  -13.5440   24.9420 N.3   218  GLY218     -0.1210
    108  CA        44.7920  -13.0500   23.5680 C.3   218  GLY218      0.1956
    109  C         45.7130  -11.8520   23.3570 C.2   218  GLY218      0.2611
    110  O         46.8940  -11.9900   23.0050 O.2   218  GLY218     -0.2717
    111  N         45.1600  -10.6640   23.5630 N.am  219  ALA219     -0.1979
    112  CA        45.8690   -9.4110   23.2650 C.3   219  ALA219      0.1597
    113  C         47.1830   -9.2870   24.0160 C.2   219  ALA219      0.2287
    114  O         48.1070   -8.6150   23.5580 O.2   219  ALA219     -0.2864
    115  CB        44.9700   -8.2150   23.5410 C.3   219  ALA219      0.0319
    116  N         36.7720  -14.5380   31.8110 N.3   247  ASP247     -0.1239
    117  CA        36.4550  -13.6870   30.6950 C.3   247  ASP247      0.1674
    118  C         36.6320  -14.5230   29.4380 C.2   247  ASP247      0.2266
    119  O         37.7530  -14.7990   29.0350 O.2   247  ASP247     -0.2867
    120  CB        37.4010  -12.4940   30.6910 C.3   247  ASP247      0.1410
    121  CG        37.1300  -11.5580   29.5570 C.2   247  ASP247      0.3668
    122  OD1       36.4150  -11.9570   28.6130 O.co2 247  ASP247     -0.2456
    123  OD2       37.6480  -10.4230   29.6080 O.co2 247  ASP247     -0.2456
    124  N         35.3770  -13.7440   26.3740 N.3   249  ILE249     -0.1231
    125  CA        34.9700  -12.9350   25.2460 C.3   249  ILE249      0.1692
    126  C         35.7220  -13.3850   23.9620 C.2   249  ILE249      0.2591
    127  O         35.1370  -13.4180   22.8880 O.2   249  ILE249     -0.2718
    128  CB        35.1660  -11.4190   25.5620 C.3   249  ILE249      0.0266
    129  CG1       34.0100  -10.9380   26.4620 C.3   249  ILE249      0.0019
    130  CG2       35.3070  -10.5910   24.2750 C.3   249  ILE249      0.0020
    131  CD1       34.3700   -9.7580   27.3540 C.3   249  ILE249      0.0001
    132  N         37.0070  -13.7130   24.0840 N.am  250  ALA250     -0.1980
    133  CA        37.7930  -14.2570   22.9530 C.3   250  ALA250      0.1597
    134  C         37.6810  -15.7830   22.8120 C.2   250  ALA250      0.2287
    135  O         37.6960  -16.3150   21.6920 O.2   250  ALA250     -0.2864
    136  CB        39.2540  -13.8770   23.0880 C.3   250  ALA250      0.0319
    137  N         31.9230  -11.2460   21.1940 N.3   276  LYS276     -0.1245
    138  CA        32.5640  -11.5760   19.9120 C.3   276  LYS276      0.1561
    139  C         31.8170  -12.6130   19.0790 C.2   276  LYS276      0.2260
    140  O         30.8450  -12.2750   18.4180 O.2   276  LYS276     -0.2867
    141  CB        34.0350  -11.9540   20.1070 C.3   276  LYS276      0.0271
    142  CG        34.9270  -10.7650   20.4750 C.3   276  LYS276      0.0035
    143  CD        36.3840  -11.1880   20.4980 C.3   276  LYS276      0.0206
    144  CE        37.2670  -10.0240   20.9130 C.3   276  LYS276      0.1093
    145  NZ        37.5960   -9.1610   19.7250 N.3   276  LYS276     -0.1314
    146  N         46.7690   -9.8030   10.1130 N.3   393  ARG393     -0.1245
    147  CA        47.1100   -8.6180   10.8700 C.3   393  ARG393      0.1563
    148  C         47.9730   -9.0140   12.0570 C.2   393  ARG393      0.2260
    149  O         47.4280   -9.3760   13.1030 O.2   393  ARG393     -0.2867
    150  CB        45.8260   -7.9770   11.3930 C.3   393  ARG393      0.0307
    151  CG        46.0200   -6.5910   11.9720 C.3   393  ARG393      0.0489
    152  CD        46.2270   -5.5860   10.8690 C.3   393  ARG393      0.2205
    153  NE        46.2120   -4.2150   11.3610 N.pl3 393  ARG393     -0.0865
    154  CZ        46.5410   -3.1790   10.6090 C.cat 393  ARG393      0.5346
    155  NH1       46.8860   -3.3720    9.3410 N.pl3 393  ARG393      0.1354
    156  NH2       46.5170   -1.9570   11.1160 N.pl3 393  ARG393      0.1354
    157  N         50.5120   -8.5530   15.3210 N.3   395  PHE395     -0.1241
    158  CA        50.7320   -7.5350   16.3440 C.3   395  PHE395      0.1605
    159  C         51.8600   -8.0070   17.2280 C.2   395  PHE395      0.2264
    160  O         52.1180   -9.2160   17.3150 O.2   395  PHE395     -0.2867
    161  CB        49.4530   -7.2420   17.1410 C.3   395  PHE395      0.0534
    162  CG        49.1330   -8.2630   18.1770 C.ar  395  PHE395     -0.0203
    163  CD1       49.2200   -7.9440   19.5290 C.ar  395  PHE395     -0.0042
    164  CD2       48.7330   -9.5520   17.8130 C.ar  395  PHE395     -0.0042
    165  CE1       48.9260   -8.8930   20.4950 C.ar  395  PHE395     -0.0003
    166  CE2       48.4320  -10.5080   18.7780 C.ar  395  PHE395     -0.0003
    167  CZ        48.5260  -10.1750   20.1250 C.ar  395  PHE395     -0.0000
    168  N         49.4460  -14.5650   13.4830 N.3   400  TYR400     -0.1241
    169  CA        48.4760  -15.4840   14.0360 C.3   400  TYR400      0.1605
    170  C         47.2030  -15.5330   13.1910 C.2   400  TYR400      0.2264
    171  O         46.9380  -14.6300   12.4030 O.2   400  TYR400     -0.2867
    172  CB        48.1910  -15.1190   15.5140 C.3   400  TYR400      0.0534
    173  CG        47.3050  -13.9320   15.6640 C.ar  400  TYR400     -0.0201
    174  CD1       47.7620  -12.6410   15.3980 C.ar  400  TYR400     -0.0009
    175  CD2       45.9760  -14.1010   16.0320 C.ar  400  TYR400     -0.0009
    176  CE1       46.9140  -11.5500   15.5000 C.ar  400  TYR400      0.0417
    177  CE2       45.1280  -13.0220   16.1430 C.ar  400  TYR400      0.0417
    178  CZ        45.5990  -11.7530   15.8660 C.ar  400  TYR400      0.1957
    179  OH        44.7200  -10.7070   15.9940 O.3   400  TYR400     -0.2866
@<TRIPOS>BOND
     1   155   154    1
     2   146   147    1
     3   154   156    1
     4   154   153    2
     5   152   153    1
     6   152   151    1
     7   147   150    1
     8   147   148    1
     9   150   151    1
    10   148   149    2
    11   171   170    2
    12   170   169    1
    13   168   169    1
    14    13    14    1
    15   169   172    1
    16    21    19   ar
    17    21    22   ar
    18    19    18   ar
    19    14    17    1
    20    14    15    1
    21    22    24   ar
    22    22    20   ar
    23    24    26   ar
    24   157   158    1
    25   174   176   ar
    26   174   173   ar
    27    18    20   ar
    28    18    17    1
    29    27    15   am
    30    27    28    1
    31   176   178   ar
    32   172   173    1
    33    20    23   ar
    34    26    25   ar
    35   173   175   ar
    36   178   179    1
    37   178   177   ar
    38    23    25   ar
    39    15    16    2
    40   175   177   ar
    41    28    29    1
    42    28    31    1
    43    33    35   ar
    44    33    32   ar
    45   158   161    1
    46   158   159    1
    47    29    30    2
    48    35    36   ar
    49   161   162    1
    50   159   160    2
    51     4     3    2
    52    32    31    1
    53    32    34   ar
    54     3     2    1
    55   164   162   ar
    56   164   166   ar
    57    36    34   ar
    58    36    38   ar
    59   162   163   ar
    60     1     2    1
    61   140   139    2
    62    34    37   ar
    63     2     5    1
    64    38    40   ar
    65   166   167   ar
    66     5     6    1
    67     8     6   ar
    68     8    10   ar
    69   139   138    1
    70   163   165   ar
    71     6     7   ar
    72    10    11   ar
    73   145   144    1
    74   138   141    1
    75   138   137    1
    76    37    39   ar
    77    40    39   ar
    78   141   142    1
    79   167   165   ar
    80   142   143    1
    81   143   144    1
    82     7     9   ar
    83    11     9   ar
    84    11    12    1
    85   135   134    2
    86   134   133    1
    87   127   126    2
    88   133   136    1
    89   133   132    1
    90   110   109    2
    91   112   115    1
    92   112   111    1
    93   112   113    1
    94   109   111   am
    95   109   108    1
    96   114   113    2
    97   108   107    1
    98    96    95   ar
    99    45    42    1
   100    45    46    1
   101   126   132   am
   102   126   125    1
   103    42    41    1
   104    42    43    1
   105   130   128    1
   106    75    74    1
   107    47    43   am
   108    47    48    1
   109    95    97   ar
   110    95    94    1
   111    73    74   ar
   112    73    71   ar
   113    74    72   ar
   114    43    44    2
   115   125   128    1
   116   125   124    1
   117    71    69   ar
   118   128   129    1
   119    48    49    1
   120    94    91    1
   121    72    70   ar
   122    69    70   ar
   123    69    68    1
   124   129   131    1
   125    56    55    1
   126    51    49   am
   127    51    52    1
   128    49    50    2
   129   106   104   ar
   130    91    90    1
   131    91    92    1
   132    68    65    1
   133    90    88   am
   134    87    88    1
   135    87    86    1
   136    55    52    1
   137    88    89    2
   138    52    53    1
   139    86    78   am
   140    92    93    2
   141   104   105   ar
   142   104   103    1
   143    67    66    2
   144   122   121   ar
   145    65    66    1
   146    65    64    1
   147    66    76   am
   148    78    79    2
   149    78    77    1
   150    53    54    2
   151   119   118    2
   152    76    77    1
   153   103   102    1
   154    77    80    1
   155   102    99    1
   156   118   117    1
   157   121   123   ar
   158   121   120    1
   159    99   100    1
   160    99    98    1
   161    63    61    1
   162   120   117    1
   163   100   101    2
   164   117   116    1
   165    80    81    1
   166    57    58    1
   167    82    81   ar
   168    82    84   ar
   169    81    83   ar
   170    61    58    1
   171    61    62    1
   172    84    85   ar
   173    58    59    1
   174    83    85   ar
   175    59    60    2
