@<TRIPOS>MOLECULE
tmp/4mqqB01.pdb
 181 178 0 0 0
SMALL
GASTEIGER

@<TRIPOS>ATOM
      1  N         14.5340   28.5640  -33.6750 N.3    18  PRO18      -0.2102
      2  CA        13.7800   29.7260  -34.1620 C.3    18  PRO18       0.1504
      3  C         14.1040   30.0410  -35.6260 C.2    18  PRO18       0.2575
      4  O         15.2800   30.1320  -35.9890 O.2    18  PRO18      -0.2718
      5  CB        14.2590   30.8620  -33.2550 C.3    18  PRO18       0.0282
      6  CG        14.7570   30.1890  -32.0210 C.3    18  PRO18       0.0208
      7  CD        15.3620   28.9050  -32.5050 C.3    18  PRO18       0.0893
      8  N         13.0690   30.1810  -36.4570 N.am   19  TYR19      -0.1977
      9  CA        13.2400   30.5740  -37.8660 C.3    19  TYR19       0.1639
     10  C         14.3060   29.7340  -38.5700 C.2    19  TYR19       0.2290
     11  O         15.1590   30.2570  -39.2980 O.2    19  TYR19      -0.2864
     12  CB        13.5440   32.0750  -37.9670 C.3    19  TYR19       0.0560
     13  CG        12.3530   32.9120  -37.6010 C.ar   19  TYR19      -0.0198
     14  CD1       11.5240   33.4290  -38.5890 C.ar   19  TYR19      -0.0009
     15  CD2       12.0300   33.1530  -36.2680 C.ar   19  TYR19      -0.0009
     16  CE1       10.4160   34.1850  -38.2610 C.ar   19  TYR19       0.0417
     17  CE2       10.9190   33.9040  -35.9280 C.ar   19  TYR19       0.0417
     18  CZ        10.1190   34.4110  -36.9320 C.ar   19  TYR19       0.1957
     19  OH         9.0170   35.1630  -36.6120 O.3    19  TYR19      -0.2866
     20  N         18.5040   37.3260  -25.5500 N.3    58  TRP58      -0.1227
     21  CA        17.4370   38.1720  -26.1310 C.3    58  TRP58       0.1737
     22  C         16.6750   39.0200  -25.1520 C.2    58  TRP58       0.2595
     23  O         15.4570   38.8480  -24.9800 O.2    58  TRP58      -0.2718
     24  CB        16.4620   37.3670  -26.9820 C.3    58  TRP58       0.0564
     25  CG        17.0600   36.7500  -28.2080 C.ar   58  TRP58       0.0003
     26  CD1       18.0240   37.2870  -29.0600 C.ar   58  TRP58       0.0946
     27  CD2       16.7170   35.4530  -28.7860 C.ar   58  TRP58       0.0152
     28  NE1       18.3100   36.4140  -30.0800 N.ar   58  TRP58      -0.2442
     29  CE2       17.5550   35.2980  -29.9760 C.ar   58  TRP58       0.0810
     30  CE3       15.8370   34.4320  -28.4400 C.ar   58  TRP58       0.0012
     31  CZ2       17.4940   34.1600  -30.7710 C.ar   58  TRP58       0.0191
     32  CZ3       15.7870   33.2920  -29.2490 C.ar   58  TRP58       0.0001
     33  CH2       16.5940   33.1630  -30.3830 C.ar   58  TRP58       0.0015
     34  N         17.3880   39.9550  -24.5210 N.am   59  TRP59      -0.1976
     35  CA        16.8230   40.9810  -23.6280 C.3    59  TRP59       0.1640
     36  C         16.4230   40.5070  -22.2580 C.2    59  TRP59       0.2290
     37  O         16.0430   41.3220  -21.4220 O.2    59  TRP59      -0.2864
     38  CB        15.5990   41.6830  -24.2350 C.3    59  TRP59       0.0576
     39  CG        15.7330   42.2150  -25.6400 C.ar   59  TRP59       0.0006
     40  CD1       15.5300   41.5280  -26.8350 C.ar   59  TRP59       0.0946
     41  CD2       16.0350   43.5950  -26.0410 C.ar   59  TRP59       0.0152
     42  NE1       15.7150   42.3570  -27.9140 N.ar   59  TRP59      -0.2442
     43  CE2       16.0140   43.6100  -27.5080 C.ar   59  TRP59       0.0810
     44  CE3       16.3310   44.7700  -25.3580 C.ar   59  TRP59       0.0012
     45  CZ2       16.2690   44.7700  -28.2380 C.ar   59  TRP59       0.0191
     46  CZ3       16.5880   45.9310  -26.1040 C.ar   59  TRP59       0.0001
     47  CH2       16.5630   45.9240  -27.5100 C.ar   59  TRP59       0.0015
     48  N          3.3740   34.3800  -22.8680 N.3   117  SER117     -0.1202
     49  CA         4.4000   34.8580  -23.8080 C.3   117  SER117      0.2020
     50  C          4.0720   36.2330  -24.3600 C.2   117  SER117      0.2619
     51  O          2.9370   36.7030  -24.2670 O.2   117  SER117     -0.2717
     52  CB         4.5860   33.8780  -24.9700 C.3   117  SER117      0.2103
     53  OG         3.4640   33.8960  -25.8480 O.3   117  SER117     -0.2182
     54  N          5.0800   36.8650  -24.9480 N.am  118  GLY118     -0.1942
     55  CA         4.9280   38.1910  -25.5150 C.3   118  GLY118      0.2014
     56  C          3.8830   38.2420  -26.6140 C.2   118  GLY118      0.2639
     57  O          3.0500   39.1530  -26.6200 O.2   118  GLY118     -0.2714
     58  N          3.9330   37.2850  -27.5430 N.am  119  SER119     -0.1949
     59  CA         2.9640   37.2270  -28.6440 C.3   119  SER119      0.1924
     60  C          1.5520   37.1510  -28.0910 C.2   119  SER119      0.2314
     61  O          0.6610   37.8700  -28.5460 O.2   119  SER119     -0.2863
     62  CB         3.2280   36.0240  -29.5540 C.3   119  SER119      0.2116
     63  OG         4.4480   36.1760  -30.2570 O.3   119  SER119     -0.2180
     64  N          8.2030   44.9040  -34.6650 N.3   151  TYR151     -0.1227
     65  CA         8.0730   43.4750  -34.4170 C.3   151  TYR151      0.1736
     66  C          7.2710   43.2800  -33.1430 C.2   151  TYR151      0.2595
     67  O          7.5770   43.8970  -32.1170 O.2   151  TYR151     -0.2718
     68  CB         9.4420   42.7920  -34.2740 C.3   151  TYR151      0.0548
     69  CG         9.2880   41.3040  -34.0290 C.ar  151  TYR151     -0.0200
     70  CD1        8.8670   40.4560  -35.0560 C.ar  151  TYR151     -0.0009
     71  CD2        9.5080   40.7500  -32.7620 C.ar  151  TYR151     -0.0009
     72  CE1        8.6980   39.0960  -34.8430 C.ar  151  TYR151      0.0417
     73  CE2        9.3430   39.3860  -32.5470 C.ar  151  TYR151      0.0417
     74  CZ         8.9350   38.5720  -33.5880 C.ar  151  TYR151      0.1957
     75  OH         8.7670   37.2190  -33.3920 O.3   151  TYR151     -0.2866
     76  N          6.2650   42.4070  -33.2050 N.am  152  HIS152     -0.1961
     77  CA         5.3680   42.1830  -32.0600 C.3   152  HIS152      0.1787
     78  C          5.0730   40.7310  -31.7790 C.2   152  HIS152      0.2621
     79  O          4.1730   40.4170  -30.9940 O.2   152  HIS152     -0.2715
     80  CB         4.0690   42.9570  -32.2520 C.3   152  HIS152      0.0785
     81  CG         4.2760   44.4410  -32.4100 C.ar  152  HIS152      0.0821
     82  ND1        4.5040   45.2590  -31.3570 N.ar  152  HIS152     -0.2267
     83  CD2        4.3020   45.2420  -33.5460 C.ar  152  HIS152      0.1154
     84  CE1        4.6680   46.5190  -31.7990 C.ar  152  HIS152      0.1986
     85  NE2        4.5440   46.5100  -33.1400 N.ar  152  HIS152     -0.2212
     86  N          5.8430   39.8320  -32.3820 N.am  153  GLY153     -0.1940
     87  CA         5.6440   38.3980  -32.1530 C.3   153  GLY153      0.2014
     88  C          5.2250   37.6620  -33.4010 C.2   153  GLY153      0.2638
     89  O          5.0810   38.2770  -34.4610 O.2   153  GLY153     -0.2714
     90  N          4.9730   36.3610  -33.2350 N.am  154  ASP154     -0.1971
     91  CA         4.8830   35.4050  -34.3440 C.3   154  ASP154      0.1709
     92  C          3.5230   34.7430  -34.5460 C.2   154  ASP154      0.2293
     93  O          3.3310   34.0280  -35.5270 O.2   154  ASP154     -0.2864
     94  CB         5.9320   34.3080  -34.1660 C.3   154  ASP154      0.1436
     95  CG         7.3360   34.8050  -34.4080 C.2   154  ASP154      0.3671
     96  OD1        8.2840   34.2600  -33.8010 O.co2 154  ASP154     -0.2456
     97  OD2        7.4910   35.7530  -35.2050 O.co2 154  ASP154     -0.2456
     98  N          6.2360   49.9200  -30.7640 N.3   214  GLU214     -0.1245
     99  CA         7.3020   49.8000  -29.7770 C.3   214  GLU214      0.1567
    100  C          7.8110   51.2180  -29.4970 C.2   214  GLU214      0.2260
    101  O          8.2020   51.9140  -30.4370 O.2   214  GLU214     -0.2867
    102  CB         8.4580   48.9790  -30.3370 C.3   214  GLU214      0.0388
    103  CG         8.1470   47.5320  -30.6690 C.3   214  GLU214      0.1160
    104  CD         9.1890   46.9650  -31.6090 C.2   214  GLU214      0.3649
    105  OE1        9.0280   47.1330  -32.8330 O.co2 214  GLU214     -0.2457
    106  OE2       10.1720   46.3530  -31.1330 O.co2 214  GLU214     -0.2457
    107  N         13.5730   43.6880  -32.6170 N.3   220  ALA220     -0.1245
    108  CA        13.8230   42.6070  -33.5740 C.3   220  ALA220      0.1562
    109  C         13.6580   43.0130  -35.0460 C.2   220  ALA220      0.2260
    110  O         14.1630   42.3330  -35.9420 O.2   220  ALA220     -0.2867
    111  CB        12.9570   41.3940  -33.2390 C.3   220  ALA220      0.0290
    112  N          3.9740   48.4310  -26.9260 N.3   248  ASP248     -0.1239
    113  CA         4.5810   47.1340  -26.7160 C.3   248  ASP248      0.1674
    114  C          5.9660   47.3350  -26.0970 C.2   248  ASP248      0.2266
    115  O          6.9210   47.6770  -26.7950 O.2   248  ASP248     -0.2867
    116  CB         4.6440   46.3830  -28.0490 C.3   248  ASP248      0.1410
    117  CG         5.2960   45.0250  -27.9240 C.2   248  ASP248      0.3668
    118  OD1        5.8950   44.7300  -26.8710 O.co2 248  ASP248     -0.2456
    119  OD2        5.2240   44.2590  -28.8980 O.co2 248  ASP248     -0.2456
    120  N          7.6430   44.9650  -24.4500 N.3   250  ILE250     -0.1231
    121  CA         8.1670   43.6200  -24.1720 C.3   250  ILE250      0.1692
    122  C          9.7010   43.5990  -24.1930 C.2   250  ILE250      0.2591
    123  O         10.3170   42.9660  -23.3350 O.2   250  ILE250     -0.2718
    124  CB         7.5270   42.5740  -25.1070 C.3   250  ILE250      0.0266
    125  CG1        6.0750   42.3480  -24.6680 C.3   250  ILE250      0.0019
    126  CG2        8.2760   41.2450  -25.0680 C.3   250  ILE250      0.0020
    127  CD1        5.1670   41.8150  -25.7610 C.3   250  ILE250      0.0001
    128  N         10.3010   44.3400  -25.1280 N.am  251  ALA251     -0.1980
    129  CA        11.7570   44.4870  -25.1930 C.3   251  ALA251      0.1597
    130  C         12.2980   45.7000  -24.4340 C.2   251  ALA251      0.2287
    131  O         13.4030   45.6450  -23.9000 O.2   251  ALA251     -0.2864
    132  CB        12.2260   44.5360  -26.6420 C.3   251  ALA251      0.0319
    133  N          9.6120   39.3190  -21.4120 N.3   277  LYS277     -0.1245
    134  CA        11.0780   39.1540  -21.4460 C.3   277  LYS277      0.1561
    135  C         11.7460   39.3660  -20.0800 C.2   277  LYS277      0.2260
    136  O         11.8050   38.4330  -19.2670 O.2   277  LYS277     -0.2867
    137  CB        11.7070   40.0350  -22.5360 C.3   277  LYS277      0.0271
    138  CG        11.4580   39.5760  -23.9630 C.3   277  LYS277      0.0035
    139  CD        12.0680   40.5600  -24.9540 C.3   277  LYS277      0.0206
    140  CE        11.9700   40.0860  -26.3900 C.3   277  LYS277      0.1093
    141  NZ        12.9310   38.9930  -26.6830 N.3   277  LYS277     -0.1314
    142  N          9.1070   31.9250  -19.1320 N.3   285  SER285     -0.1217
    143  CA         8.2200   32.7090  -19.9900 C.3   285  SER285      0.1889
    144  C          7.0320   33.2100  -19.1700 C.2   285  SER285      0.2288
    145  O          6.3130   32.4250  -18.5500 O.2   285  SER285     -0.2866
    146  CB         7.7530   31.8940  -21.1980 C.3   285  SER285      0.2089
    147  OG         7.2160   32.7550  -22.2060 O.3   285  SER285     -0.2183
    148  N         25.0980   37.4360  -31.5670 N.3   394  ARG394     -0.1245
    149  CA        24.2080   36.9020  -32.5840 C.3   394  ARG394      0.1563
    150  C         23.7980   38.0210  -33.5410 C.2   394  ARG394      0.2260
    151  O         22.7420   38.6270  -33.3620 O.2   394  ARG394     -0.2867
    152  CB        22.9720   36.2880  -31.9230 C.3   394  ARG394      0.0307
    153  CG        22.2280   35.2890  -32.7880 C.3   394  ARG394      0.0489
    154  CD        23.1130   34.1110  -33.1500 C.3   394  ARG394      0.2205
    155  NE        22.4150   33.1750  -34.0240 N.pl3 394  ARG394     -0.0865
    156  CZ        22.9620   32.0820  -34.5400 C.cat 394  ARG394      0.5346
    157  NH1       24.2240   31.7780  -34.2710 N.pl3 394  ARG394      0.1354
    158  NH2       22.2440   31.2910  -35.3240 N.pl3 394  ARG394      0.1354
    159  N         22.2880   39.8170  -36.8330 N.3   396  PHE396     -0.1241
    160  CA        21.2700   39.5050  -37.8280 C.3   396  PHE396      0.1605
    161  C         21.1770   40.6330  -38.8420 C.2   396  PHE396      0.2264
    162  O         21.3910   41.8010  -38.5040 O.2   396  PHE396     -0.2867
    163  CB        19.9180   39.1540  -37.1820 C.3   396  PHE396      0.0534
    164  CG        19.0240   40.3330  -36.9260 C.ar  396  PHE396     -0.0203
    165  CD1       17.8990   40.5490  -37.7140 C.ar  396  PHE396     -0.0042
    166  CD2       19.2940   41.2190  -35.8880 C.ar  396  PHE396     -0.0042
    167  CE1       17.0640   41.6310  -37.4790 C.ar  396  PHE396     -0.0003
    168  CE2       18.4630   42.3070  -35.6460 C.ar  396  PHE396     -0.0003
    169  CZ        17.3470   42.5140  -36.4450 C.ar  396  PHE396     -0.0000
    170  N         25.0320   43.7870  -32.6430 N.3   401  TYR401     -0.1241
    171  CA        24.4050   44.4720  -31.5160 C.3   401  TYR401      0.1605
    172  C         24.4670   43.7330  -30.1810 C.2   401  TYR401      0.2264
    173  O         24.6500   42.5180  -30.1350 O.2   401  TYR401     -0.2867
    174  CB        22.9600   44.8660  -31.8640 C.3   401  TYR401      0.0534
    175  CG        22.0040   43.7040  -32.0230 C.ar  401  TYR401     -0.0201
    176  CD1       22.0750   42.8600  -33.1290 C.ar  401  TYR401     -0.0009
    177  CD2       21.0080   43.4610  -31.0740 C.ar  401  TYR401     -0.0009
    178  CE1       21.2020   41.7940  -33.2720 C.ar  401  TYR401      0.0417
    179  CE2       20.1200   42.4070  -31.2170 C.ar  401  TYR401      0.0417
    180  CZ        20.2230   41.5790  -32.3190 C.ar  401  TYR401      0.1957
    181  OH        19.3490   40.5300  -32.4660 O.3   401  TYR401     -0.2866
@<TRIPOS>BOND
     1    11    10    2
     2   161   162    2
     3   161   160    1
     4    14    16   ar
     5    14    13   ar
     6    10     9    1
     7    16    18   ar
     8    12     9    1
     9    12    13    1
    10     9     8    1
    11   160   163    1
    12   160   159    1
    13   165   167   ar
    14   165   164   ar
    15    13    15   ar
    16   167   169   ar
    17   163   164    1
    18    18    19    1
    19    18    17   ar
    20   164   166   ar
    21     8     3   am
    22   169   168   ar
    23    15    17   ar
    24     4     3    2
    25   110   109    2
    26   166   168   ar
    27     3     2    1
    28    93    92    2
    29   158   156    1
    30    97    95   ar
    31    70    72   ar
    32    70    69   ar
    33   109   108    1
    34    72    74   ar
    35    64    65    1
    36    92    91    1
    37   156   157    1
    38   156   155    2
    39    89    88    2
    40    65    68    1
    41    65    66    1
    42    95    94    1
    43    95    96   ar
    44    91    94    1
    45    91    90    1
    46    68    69    1
    47     2     1    1
    48     2     5    1
    49    69    71   ar
    50   155   154    1
    51     1     7    1
    52    74    75    1
    53    74    73   ar
    54   108   111    1
    55   108   107    1
    56    83    85   ar
    57    83    81   ar
    58   150   151    2
    59   150   149    1
    60    88    90   am
    61    88    87    1
    62   178   176   ar
    63   178   180   ar
    64     5     6    1
    65    76    66   am
    66    76    77    1
    67   154   153    1
    68    66    67    2
    69    85    84   ar
    70   176   175   ar
    71   105   104   ar
    72   153   152    1
    73    71    73   ar
    74   170   171    1
    75   149   152    1
    76   149   148    1
    77     7     6    1
    78   181   180    1
    79    81    80    1
    80    81    82   ar
    81    86    87    1
    82    86    78   am
    83   180   179   ar
    84    80    77    1
    85    77    78    1
    86   175   174    1
    87   175   177   ar
    88   174   171    1
    89    84    82   ar
    90    78    79    2
    91   104   106   ar
    92   104   103    1
    93   171   172    1
    94   179   177   ar
    95    31    33   ar
    96    31    29   ar
    97    98    99    1
    98   103   102    1
    99   101   100    2
   100    33    32   ar
   101   102    99    1
   102    63    62    1
   103   172   173    2
   104    28    29   ar
   105    28    26   ar
   106    29    27   ar
   107    99   100    1
   108    62    59    1
   109    32    30   ar
   110    26    25   ar
   111   119   117   ar
   112    27    30   ar
   113    27    25   ar
   114    59    60    1
   115    59    58    1
   116    61    60    2
   117    45    47   ar
   118    45    43   ar
   119    25    24    1
   120   116   117    1
   121   116   113    1
   122   117   118   ar
   123    42    43   ar
   124    42    40   ar
   125    58    56   am
   126    47    46   ar
   127    43    41   ar
   128    24    21    1
   129   112   113    1
   130    40    39   ar
   131   115   114    2
   132   113   114    1
   133   141   140    1
   134   132   129    1
   135    57    56    2
   136    56    55    1
   137   140   139    1
   138    21    20    1
   139    21    22    1
   140    46    44   ar
   141    41    39   ar
   142    41    44   ar
   143    53    52    1
   144   127   125    1
   145    39    38    1
   146    55    54    1
   147   129   128    1
   148   129   130    1
   149    22    23    2
   150    22    34   am
   151   128   122   am
   152   124   126    1
   153   124   125    1
   154   124   121    1
   155    52    49    1
   156   139   138    1
   157    54    50   am
   158    34    35    1
   159   120   121    1
   160   130   131    2
   161    50    51    2
   162    50    49    1
   163    38    35    1
   164   122   121    1
   165   122   123    2
   166   138   137    1
   167    49    48    1
   168    35    36    1
   169   137   134    1
   170    36    37    2
   171   147   146    1
   172   134   133    1
   173   134   135    1
   174   146   143    1
   175   135   136    2
   176   143   144    1
   177   143   142    1
   178   144   145    2
