@<TRIPOS>MOLECULE
tmp/4mqrB01.pdb
 163 161 0 0 0
SMALL
GASTEIGER

@<TRIPOS>ATOM
      1  N        -14.6200  -29.0490  -33.5300 N.3    18  PRO18      -0.2102
      2  CA       -13.8920  -30.2120  -34.0360 C.3    18  PRO18       0.1504
      3  C        -14.1610  -30.4540  -35.5340 C.2    18  PRO18       0.2575
      4  O        -15.3050  -30.3950  -35.9560 O.2    18  PRO18      -0.2718
      5  CB       -14.4500  -31.3680  -33.1850 C.3    18  PRO18       0.0282
      6  CG       -14.8090  -30.7010  -31.8900 C.3    18  PRO18       0.0208
      7  CD       -15.3920  -29.3810  -32.3130 C.3    18  PRO18       0.0893
      8  N        -13.1020  -30.6900  -36.3080 N.am   19  TYR19      -0.1977
      9  CA       -13.1970  -30.9800  -37.7650 C.3    19  TYR19       0.1639
     10  C        -14.2730  -30.1350  -38.4580 C.2    19  TYR19       0.2290
     11  O        -15.1370  -30.6510  -39.1690 O.2    19  TYR19      -0.2864
     12  CB       -13.4160  -32.4850  -38.0280 C.3    19  TYR19       0.0560
     13  CG       -12.5930  -33.3630  -37.1230 C.ar   19  TYR19      -0.0198
     14  CD1      -11.2640  -33.6980  -37.4350 C.ar   19  TYR19      -0.0009
     15  CD2      -13.1280  -33.8180  -35.9140 C.ar   19  TYR19      -0.0009
     16  CE1      -10.5010  -34.4900  -36.5660 C.ar   19  TYR19       0.0417
     17  CE2      -12.3830  -34.6090  -35.0440 C.ar   19  TYR19       0.0417
     18  CZ       -11.0720  -34.9420  -35.3700 C.ar   19  TYR19       0.1957
     19  OH       -10.3710  -35.7410  -34.4730 O.3    19  TYR19      -0.2866
     20  N        -18.4520  -37.8230  -25.4460 N.3    58  TRP58      -0.1227
     21  CA       -17.4000  -38.6670  -26.0400 C.3    58  TRP58       0.1737
     22  C        -16.6270  -39.4970  -25.0600 C.2    58  TRP58       0.2595
     23  O        -15.3860  -39.3890  -24.9470 O.2    58  TRP58      -0.2718
     24  CB       -16.4720  -37.8980  -26.9910 C.3    58  TRP58       0.0564
     25  CG       -17.1650  -37.3870  -28.2300 C.ar   58  TRP58       0.0003
     26  CD1      -18.1220  -38.0480  -29.0190 C.ar   58  TRP58       0.0946
     27  CD2      -16.9720  -36.0810  -28.8770 C.ar   58  TRP58       0.0152
     28  NE1      -18.5270  -37.2570  -30.0640 N.ar   58  TRP58      -0.2442
     29  CE2      -17.8750  -36.0600  -30.0400 C.ar   58  TRP58       0.0810
     30  CE3      -16.1680  -34.9640  -28.6210 C.ar   58  TRP58       0.0012
     31  CZ2      -17.9470  -34.9560  -30.8970 C.ar   58  TRP58       0.0191
     32  CZ3      -16.2510  -33.8630  -29.4880 C.ar   58  TRP58       0.0001
     33  CH2      -17.1190  -33.8610  -30.5950 C.ar   58  TRP58       0.0015
     34  N        -17.3710  -40.3840  -24.3960 N.am   59  TRP59      -0.1976
     35  CA       -16.8380  -41.4510  -23.5360 C.3    59  TRP59       0.1640
     36  C        -16.4290  -40.9590  -22.1750 C.2    59  TRP59       0.2290
     37  O        -16.0850  -41.7760  -21.3140 O.2    59  TRP59      -0.2864
     38  CB       -15.6320  -42.1760  -24.1550 C.3    59  TRP59       0.0576
     39  CG       -15.7680  -42.6710  -25.5840 C.ar   59  TRP59       0.0006
     40  CD1      -15.5550  -41.9540  -26.7690 C.ar   59  TRP59       0.0946
     41  CD2      -16.0810  -44.0440  -26.0220 C.ar   59  TRP59       0.0152
     42  NE1      -15.7340  -42.7600  -27.8810 N.ar   59  TRP59      -0.2442
     43  CE2      -16.0510  -44.0270  -27.5020 C.ar   59  TRP59       0.0810
     44  CE3      -16.3900  -45.2370  -25.3640 C.ar   59  TRP59       0.0012
     45  CZ2      -16.3290  -45.1610  -28.2580 C.ar   59  TRP59       0.0191
     46  CZ3      -16.6550  -46.3760  -26.1370 C.ar   59  TRP59       0.0001
     47  CH2      -16.6190  -46.3370  -27.5510 C.ar   59  TRP59       0.0015
     48  N         -3.4180  -34.6720  -22.8260 N.3   117  SER117     -0.1202
     49  CA        -4.4680  -35.2010  -23.6950 C.3   117  SER117      0.2020
     50  C         -4.1450  -36.5950  -24.2460 C.2   117  SER117      0.2619
     51  O         -3.0010  -37.0390  -24.2070 O.2   117  SER117     -0.2717
     52  CB        -4.7500  -34.2450  -24.8500 C.3   117  SER117      0.2103
     53  OG        -3.6530  -34.2450  -25.7450 O.3   117  SER117     -0.2182
     54  N         -5.1740  -37.2610  -24.7500 N.am  118  GLY118     -0.1942
     55  CA        -5.0280  -38.5580  -25.4130 C.3   118  GLY118      0.2014
     56  C         -3.9870  -38.5820  -26.5270 C.2   118  GLY118      0.2639
     57  O         -3.1100  -39.4490  -26.5180 O.2   118  GLY118     -0.2714
     58  N         -4.0440  -37.6190  -27.4620 N.am  119  SER119     -0.1949
     59  CA        -3.0580  -37.6250  -28.5550 C.3   119  SER119      0.1924
     60  C         -1.6570  -37.5100  -28.0130 C.2   119  SER119      0.2314
     61  O         -0.7620  -38.1600  -28.5280 O.2   119  SER119     -0.2863
     62  CB        -3.2750  -36.5280  -29.5990 C.3   119  SER119      0.2116
     63  OG        -4.5710  -36.5480  -30.1120 O.3   119  SER119     -0.2180
     64  N         -8.2130  -45.2940  -34.5160 N.3   151  TYR151     -0.1227
     65  CA        -8.0840  -43.8460  -34.3260 C.3   151  TYR151      0.1736
     66  C         -7.2870  -43.6130  -33.0560 C.2   151  TYR151      0.2595
     67  O         -7.5830  -44.2220  -32.0460 O.2   151  TYR151     -0.2718
     68  CB        -9.4520  -43.1590  -34.2380 C.3   151  TYR151      0.0548
     69  CG        -9.3310  -41.6690  -33.9750 C.ar  151  TYR151     -0.0200
     70  CD1       -8.9150  -40.7920  -34.9900 C.ar  151  TYR151     -0.0009
     71  CD2       -9.5910  -41.1350  -32.7110 C.ar  151  TYR151     -0.0009
     72  CE1       -8.7710  -39.4360  -34.7530 C.ar  151  TYR151      0.0417
     73  CE2       -9.4550  -39.7730  -32.4670 C.ar  151  TYR151      0.0417
     74  CZ        -9.0380  -38.9340  -33.4880 C.ar  151  TYR151      0.1957
     75  OH        -8.9030  -37.5850  -33.2600 O.3   151  TYR151     -0.2866
     76  N         -6.2790  -42.7410  -33.1190 N.am  152  HIS152     -0.1961
     77  CA        -5.3690  -42.5070  -31.9890 C.3   152  HIS152      0.1787
     78  C         -5.0660  -41.0520  -31.7350 C.2   152  HIS152      0.2621
     79  O         -4.1490  -40.7210  -30.9670 O.2   152  HIS152     -0.2715
     80  CB        -4.0880  -43.3090  -32.1830 C.3   152  HIS152      0.0785
     81  CG        -4.3220  -44.8130  -32.2720 C.ar  152  HIS152      0.0821
     82  ND1       -4.4970  -45.5940  -31.1800 N.ar  152  HIS152     -0.2267
     83  CD2       -4.4190  -45.6600  -33.3800 C.ar  152  HIS152      0.1154
     84  CE1       -4.7010  -46.8750  -31.5690 C.ar  152  HIS152      0.1986
     85  NE2       -4.6610  -46.9150  -32.9120 N.ar  152  HIS152     -0.2212
     86  N         -5.8340  -40.1660  -32.3640 N.am  153  GLY153     -0.1940
     87  CA        -5.5970  -38.7220  -32.2410 C.3   153  GLY153      0.2014
     88  C         -5.2280  -37.9840  -33.5170 C.2   153  GLY153      0.2638
     89  O         -5.1200  -38.5890  -34.5990 O.2   153  GLY153     -0.2714
     90  N         -4.9940  -36.6790  -33.3660 N.am  154  ASP154     -0.1971
     91  CA        -4.8900  -35.7140  -34.4670 C.3   154  ASP154      0.1709
     92  C         -3.5320  -35.0440  -34.5780 C.2   154  ASP154      0.2293
     93  O         -3.2730  -34.3710  -35.5670 O.2   154  ASP154     -0.2864
     94  CB        -5.8730  -34.5660  -34.2440 C.3   154  ASP154      0.1436
     95  CG        -7.2970  -34.9520  -34.4880 C.2   154  ASP154      0.3671
     96  OD1       -8.1530  -34.4450  -33.7600 O.co2 154  ASP154     -0.2456
     97  OD2       -7.5790  -35.7310  -35.4190 O.co2 154  ASP154     -0.2456
     98  N         -6.3460  -50.2230  -30.5960 N.3   214  GLU214     -0.1245
     99  CA        -7.4220  -50.1670  -29.6140 C.3   214  GLU214      0.1567
    100  C         -7.8830  -51.6150  -29.3410 C.2   214  GLU214      0.2260
    101  O         -8.2460  -52.3250  -30.2740 O.2   214  GLU214     -0.2867
    102  CB        -8.5840  -49.3360  -30.1530 C.3   214  GLU214      0.0388
    103  CG        -8.2580  -47.8730  -30.4290 C.3   214  GLU214      0.1160
    104  CD        -9.1890  -47.2830  -31.4670 C.2   214  GLU214      0.3649
    105  OE1       -8.9160  -47.4860  -32.6620 O.co2 214  GLU214     -0.2457
    106  OE2      -10.2070  -46.6530  -31.0990 O.co2 214  GLU214     -0.2457
    107  N        -13.0550  -47.1190  -31.6260 N.3   219  GLY219     -0.1210
    108  CA       -14.0970  -46.1420  -31.3770 C.3   219  GLY219      0.1956
    109  C        -14.3990  -45.2080  -32.5250 C.2   219  GLY219      0.2611
    110  O        -15.3140  -45.4370  -33.3080 O.2   219  GLY219     -0.2717
    111  N        -13.6210  -44.1390  -32.6120 N.am  220  ALA220     -0.1979
    112  CA       -13.9360  -43.0230  -33.4950 C.3   220  ALA220      0.1597
    113  C        -13.7150  -43.3900  -34.9560 C.2   220  ALA220      0.2287
    114  O        -14.2290  -42.7250  -35.8420 O.2   220  ALA220     -0.2864
    115  CB       -13.1270  -41.7910  -33.0990 C.3   220  ALA220      0.0319
    116  N         -4.0270  -48.8680  -26.8160 N.3   248  ASP248     -0.1239
    117  CA        -4.5800  -47.5510  -26.6120 C.3   248  ASP248      0.1674
    118  C         -5.9620  -47.7250  -25.9870 C.2   248  ASP248      0.2266
    119  O         -6.9290  -47.9900  -26.6970 O.2   248  ASP248     -0.2867
    120  CB        -4.6430  -46.7810  -27.9490 C.3   248  ASP248      0.1410
    121  CG        -5.3140  -45.4050  -27.8100 C.2   248  ASP248      0.3668
    122  OD1       -5.8690  -45.1240  -26.7320 O.co2 248  ASP248     -0.2456
    123  OD2       -5.3110  -44.6020  -28.7710 O.co2 248  ASP248     -0.2456
    124  N         -7.6630  -45.3190  -24.2230 N.3   250  ILE250     -0.1231
    125  CA        -8.2160  -43.9880  -23.9690 C.3   250  ILE250      0.1692
    126  C         -9.7540  -44.0130  -24.0050 C.2   250  ILE250      0.2591
    127  O        -10.3910  -43.3700  -23.1770 O.2   250  ILE250     -0.2718
    128  CB        -7.5750  -42.9080  -24.9000 C.3   250  ILE250      0.0266
    129  CG1       -6.1370  -42.6090  -24.4560 C.3   250  ILE250      0.0019
    130  CG2       -8.3700  -41.6030  -24.8870 C.3   250  ILE250      0.0020
    131  CD1       -5.2190  -42.1010  -25.5570 C.3   250  ILE250      0.0001
    132  N        -10.3390  -44.7770  -24.9350 N.am  251  ALA251     -0.1980
    133  CA       -11.8100  -44.9170  -25.0330 C.3   251  ALA251      0.1597
    134  C        -12.3580  -46.1510  -24.2970 C.2   251  ALA251      0.2287
    135  O        -13.4300  -46.0980  -23.6720 O.2   251  ALA251     -0.2864
    136  CB       -12.2720  -44.9150  -26.4940 C.3   251  ALA251      0.0319
    137  N         -9.6540  -39.7160  -21.3500 N.3   277  LYS277     -0.1245
    138  CA       -11.1140  -39.5320  -21.3670 C.3   277  LYS277      0.1561
    139  C        -11.7880  -39.7320  -19.9980 C.2   277  LYS277      0.2260
    140  O        -11.8260  -38.8080  -19.1770 O.2   277  LYS277     -0.2867
    141  CB       -11.7660  -40.4130  -22.4300 C.3   277  LYS277      0.0271
    142  CG       -11.5840  -39.9240  -23.8690 C.3   277  LYS277      0.0035
    143  CD       -12.1490  -40.9600  -24.8320 C.3   277  LYS277      0.0206
    144  CE       -11.9720  -40.5540  -26.2860 C.3   277  LYS277      0.1093
    145  NZ       -12.9410  -39.4880  -26.6770 N.3   277  LYS277     -0.1314
    146  N         -9.1550  -32.2520  -19.0190 N.3   285  SER285     -0.1217
    147  CA        -8.2880  -33.0540  -19.8790 C.3   285  SER285      0.1889
    148  C         -7.0820  -33.5500  -19.1050 C.2   285  SER285      0.2288
    149  O         -6.3690  -32.7660  -18.4890 O.2   285  SER285     -0.2866
    150  CB        -7.8470  -32.2700  -21.1240 C.3   285  SER285      0.2089
    151  OG        -7.3010  -33.1520  -22.1090 O.3   285  SER285     -0.2183
    152  N        -25.1450  -44.1770  -32.5530 N.3   401  TYR401     -0.1241
    153  CA       -24.5020  -44.9040  -31.4490 C.3   401  TYR401      0.1605
    154  C        -24.4800  -44.1570  -30.1180 C.2   401  TYR401      0.2264
    155  O        -24.6720  -42.9380  -30.0900 O.2   401  TYR401     -0.2867
    156  CB       -23.0820  -45.3210  -31.8480 C.3   401  TYR401      0.0534
    157  CG       -22.1190  -44.1710  -31.9840 C.ar  401  TYR401     -0.0201
    158  CD1      -22.1710  -43.3210  -33.0900 C.ar  401  TYR401     -0.0009
    159  CD2      -21.1510  -43.9310  -31.0100 C.ar  401  TYR401     -0.0009
    160  CE1      -21.2870  -42.2650  -33.2160 C.ar  401  TYR401      0.0417
    161  CE2      -20.2650  -42.8790  -31.1260 C.ar  401  TYR401      0.0417
    162  CZ       -20.3350  -42.0550  -32.2380 C.ar  401  TYR401      0.1957
    163  OH       -19.4630  -41.0070  -32.3630 O.3   401  TYR401     -0.2866
@<TRIPOS>BOND
     1    11    10    2
     2    10     9    1
     3    12     9    1
     4    12    13    1
     5     9     8    1
     6    14    13   ar
     7    14    16   ar
     8    13    15   ar
     9    16    18   ar
    10     8     3   am
    11     4     3    2
    12    15    17   ar
    13   114   113    2
    14    93    92    2
    15     3     2    1
    16    97    95   ar
    17    18    17   ar
    18    18    19    1
    19    70    72   ar
    20    70    69   ar
    21   113   112    1
    22    72    74   ar
    23    89    88    2
    24    92    91    1
    25    64    65    1
    26    95    94    1
    27    95    96   ar
    28    91    94    1
    29    91    90    1
    30    65    68    1
    31    65    66    1
    32    68    69    1
    33     2     1    1
    34     2     5    1
    35    69    71   ar
    36     1     7    1
    37    88    90   am
    38    88    87    1
    39   112   115    1
    40   112   111    1
    41    74    75    1
    42    74    73   ar
    43    83    85   ar
    44    83    81   ar
    45   110   109    2
    46   160   158   ar
    47   160   162   ar
    48     5     6    1
    49    76    66   am
    50    76    77    1
    51   158   157   ar
    52    66    67    2
    53    85    84   ar
    54    71    73   ar
    55   105   104   ar
    56   111   109   am
    57   152   153    1
    58   109   108    1
    59    86    87    1
    60    86    78   am
    61   163   162    1
    62     7     6    1
    63    81    80    1
    64    81    82   ar
    65   162   161   ar
    66    80    77    1
    67    77    78    1
    68   157   156    1
    69   157   159   ar
    70   156   153    1
    71    78    79    2
    72   107   108    1
    73    84    82   ar
    74   104   106   ar
    75   104   103    1
    76   153   154    1
    77   161   159   ar
    78    31    33   ar
    79    31    29   ar
    80    98    99    1
    81    33    32   ar
    82   103   102    1
    83   101   100    2
    84   102    99    1
    85   154   155    2
    86    63    62    1
    87    28    29   ar
    88    28    26   ar
    89    29    27   ar
    90    99   100    1
    91    62    59    1
    92    32    30   ar
    93    26    25   ar
    94    27    30   ar
    95    27    25   ar
    96   123   121   ar
    97    59    60    1
    98    59    58    1
    99    61    60    2
   100    45    47   ar
   101    45    43   ar
   102    25    24    1
   103   120   121    1
   104   120   117    1
   105    42    43   ar
   106    42    40   ar
   107   121   122   ar
   108    47    46   ar
   109    43    41   ar
   110    58    56   am
   111    24    21    1
   112   116   117    1
   113    40    39   ar
   114   119   118    2
   115   145   144    1
   116   117   118    1
   117    56    57    2
   118    56    55    1
   119   136   133    1
   120   144   143    1
   121    46    44   ar
   122    21    20    1
   123    21    22    1
   124    41    39   ar
   125    41    44   ar
   126    53    52    1
   127    39    38    1
   128   131   129    1
   129    55    54    1
   130    22    23    2
   131    22    34   am
   132   133   132    1
   133   133   134    1
   134   132   126   am
   135   128   130    1
   136   128   129    1
   137   128   125    1
   138    52    49    1
   139   143   142    1
   140    54    50   am
   141    34    35    1
   142   134   135    2
   143    50    51    2
   144    50    49    1
   145   124   125    1
   146    38    35    1
   147   126   125    1
   148   126   127    2
   149   142   141    1
   150    49    48    1
   151    35    36    1
   152   141   138    1
   153    36    37    2
   154   151   150    1
   155   138   137    1
   156   138   139    1
   157   150   147    1
   158   139   140    2
   159   147   148    1
   160   147   146    1
   161   148   149    2
