@<TRIPOS>MOLECULE
tmp/4mqsA00.pdb
 135 135 0 0 0
SMALL
GASTEIGER

@<TRIPOS>ATOM
      1  N        -14.9130  -11.0930   -3.5880 N.3    85  ASP85      -0.1225
      2  CA       -13.6270  -11.6630   -3.1920 C.3    85  ASP85       0.1805
      3  C        -12.5880  -10.6070   -2.8060 C.2    85  ASP85       0.2597
      4  O        -12.0190  -10.6560   -1.7120 O.2    85  ASP85      -0.2718
      5  CB       -13.0830  -12.5430   -4.3210 C.3    85  ASP85       0.1424
      6  CG       -11.7350  -13.1450   -3.9930 C.2    85  ASP85       0.3668
      7  OD1      -11.4750  -13.4080   -2.7980 O.co2  85  ASP85      -0.2456
      8  OD2      -10.9370  -13.3570   -4.9330 O.co2  85  ASP85      -0.2456
      9  N        -12.3440   -9.6550   -3.7020 N.am   86  TYR86      -0.1976
     10  CA       -11.3500   -8.6200   -3.4400 C.3    86  TYR86       0.1639
     11  C        -11.7230   -7.7680   -2.2280 C.2    86  TYR86       0.2290
     12  O        -10.8640   -7.4430   -1.3980 O.2    86  TYR86      -0.2864
     13  CB       -11.1200   -7.7500   -4.6830 C.3    86  TYR86       0.0560
     14  CG       -10.2290   -8.4000   -5.7260 C.ar   86  TYR86      -0.0198
     15  CD1      -10.6710   -9.4880   -6.4650 C.ar   86  TYR86      -0.0009
     16  CD2       -8.9470   -7.9270   -5.9670 C.ar   86  TYR86      -0.0009
     17  CE1       -9.8660  -10.0870   -7.4150 C.ar   86  TYR86       0.0417
     18  CE2       -8.1280   -8.5170   -6.9150 C.ar   86  TYR86       0.0417
     19  CZ        -8.5950   -9.5980   -7.6400 C.ar   86  TYR86       0.1957
     20  OH        -7.7910  -10.1970   -8.5860 O.3    86  TYR86      -0.2866
     21  N        -11.3910   -9.9580    1.0620 N.3    89  SER89      -0.1202
     22  CA        -9.9780  -10.2720    1.2990 C.3    89  SER89       0.2020
     23  C         -9.2290   -9.0410    1.8060 C.2    89  SER89       0.2618
     24  O         -8.3920   -9.1270    2.7210 O.2    89  SER89      -0.2717
     25  CB        -9.3140  -10.8010    0.0290 C.3    89  SER89       0.2103
     26  OG        -9.4890  -12.1990   -0.1030 O.3    89  SER89      -0.2182
     27  N         -9.5380   -7.8930    1.2060 N.am   90  ASN90      -0.1974
     28  CA        -9.0170   -6.6300    1.7030 C.3    90  ASN90       0.1688
     29  C         -9.5350   -6.3910    3.1200 C.2    90  ASN90       0.2292
     30  O         -8.8330   -5.8340    3.9630 O.2    90  ASN90      -0.2864
     31  CB        -9.4090   -5.4770    0.7770 C.3    90  ASN90       0.1181
     32  CG        -8.5590   -4.2360    0.9940 C.2    90  ASN90       0.2629
     33  OD1       -7.7470   -3.8730    0.1460 O.2    90  ASN90      -0.2716
     34  ND2       -8.7480   -3.5780    2.1290 N.am   90  ASN90      -0.0877
     35  N         -7.4100   -8.4210    5.4650 N.3    93  VAL93      -0.1245
     36  CA        -6.1400   -7.7380    5.7090 C.3    93  VAL93       0.1561
     37  C         -6.2840   -6.5410    6.6520 C.2    93  VAL93       0.2260
     38  O         -5.5090   -6.3960    7.6000 O.2    93  VAL93      -0.2867
     39  CB        -5.4480   -7.3180    4.4020 C.3    93  VAL93       0.0252
     40  CG1       -4.3910   -6.2610    4.6760 C.3    93  VAL93       0.0019
     41  CG2       -4.8320   -8.5330    3.7320 C.3    93  VAL93       0.0019
     42  N        -11.9880   -1.1560   -3.3210 N.3   137  TRP137     -0.1241
     43  CA       -12.0000   -2.1920   -4.3540 C.3   137  TRP137      0.1605
     44  C        -13.2510   -2.2930   -5.2240 C.2   137  TRP137      0.2264
     45  O        -13.1460   -2.3700   -6.4450 O.2   137  TRP137     -0.2867
     46  CB       -11.6380   -3.5470   -3.7520 C.3   137  TRP137      0.0550
     47  CG       -10.2280   -3.5630   -3.3100 C.ar  137  TRP137      0.0003
     48  CD1       -9.7390   -3.1240   -2.1160 C.ar  137  TRP137      0.0946
     49  CD2       -9.1000   -4.0020   -4.0710 C.ar  137  TRP137      0.0152
     50  NE1       -8.3750   -3.2790   -2.0780 N.ar  137  TRP137     -0.2442
     51  CE2       -7.9580   -3.8170   -3.2680 C.ar  137  TRP137      0.0810
     52  CE3       -8.9440   -4.5440   -5.3500 C.ar  137  TRP137      0.0012
     53  CZ2       -6.6790   -4.1540   -3.7020 C.ar  137  TRP137      0.0191
     54  CZ3       -7.6730   -4.8760   -5.7790 C.ar  137  TRP137      0.0001
     55  CH2       -6.5580   -4.6820   -4.9580 C.ar  137  TRP137      0.0015
     56  N         -3.4670   -2.1250   -0.0980 N.3   176  ALA176     -0.1231
     57  CA        -4.1100   -3.3630    0.3090 C.3   176  ALA176      0.1694
     58  C         -3.1220   -4.2920    0.9870 C.2   176  ALA176      0.2592
     59  O         -3.4780   -5.0200    1.9090 O.2   176  ALA176     -0.2718
     60  CB        -4.7210   -4.0540   -0.8880 C.3   176  ALA176      0.0304
     61  N         -1.8800   -4.2710    0.5230 N.am  177  PHE177     -0.1976
     62  CA        -0.8770   -5.1890    1.0430 C.3   177  PHE177      0.1639
     63  C          0.3900   -4.4800    1.5120 C.2   177  PHE177      0.2290
     64  O          0.7190   -4.5020    2.6990 O.2   177  PHE177     -0.2864
     65  CB        -0.5260   -6.2440   -0.0060 C.3   177  PHE177      0.0560
     66  CG         0.6400   -7.1030    0.3750 C.ar  177  PHE177     -0.0200
     67  CD1        0.4760   -8.1580    1.2540 C.ar  177  PHE177     -0.0042
     68  CD2        1.9020   -6.8510   -0.1380 C.ar  177  PHE177     -0.0042
     69  CE1        1.5490   -8.9480    1.6130 C.ar  177  PHE177     -0.0003
     70  CE2        2.9770   -7.6360    0.2160 C.ar  177  PHE177     -0.0003
     71  CZ         2.8010   -8.6870    1.0930 C.ar  177  PHE177     -0.0000
     72  N          0.0660  -13.6880    1.3400 N.3   221  TRP221     -0.1241
     73  CA        -0.3940  -12.5290    0.5730 C.3   221  TRP221      0.1605
     74  C          0.6310  -11.9270   -0.3850 C.2   221  TRP221      0.2264
     75  O          0.2620  -11.2430   -1.3410 O.2   221  TRP221     -0.2867
     76  CB        -0.9380  -11.4450    1.5040 C.3   221  TRP221      0.0550
     77  CG        -2.2710  -11.7870    2.0730 C.ar  221  TRP221      0.0003
     78  CD1       -2.5520  -12.1170    3.3630 C.ar  221  TRP221      0.0946
     79  CD2       -3.5120  -11.8500    1.3620 C.ar  221  TRP221      0.0152
     80  NE1       -3.8940  -12.3740    3.5040 N.ar  221  TRP221     -0.2442
     81  CE2       -4.5050  -12.2190    2.2880 C.ar  221  TRP221      0.0810
     82  CE3       -3.8780  -11.6280    0.0340 C.ar  221  TRP221      0.0012
     83  CZ2       -5.8400  -12.3680    1.9270 C.ar  221  TRP221      0.0191
     84  CZ3       -5.1990  -11.7760   -0.3240 C.ar  221  TRP221      0.0001
     85  CH2       -6.1660  -12.1440    0.6180 C.ar  221  TRP221      0.0015
     86  N          1.1050  -13.4090   -4.6930 N.3   224  TYR224     -0.1227
     87  CA         0.1560  -12.8240   -5.6360 C.3   224  TYR224      0.1736
     88  C          0.3890  -11.3220   -5.7980 C.2   224  TYR224      0.2595
     89  O          0.3430  -10.7950   -6.9080 O.2   224  TYR224     -0.2718
     90  CB        -1.2860  -13.1160   -5.2060 C.3   224  TYR224      0.0548
     91  CG        -2.3150  -12.0800   -5.6300 C.ar  224  TYR224     -0.0200
     92  CD1       -3.0880  -12.2650   -6.7700 C.ar  224  TYR224     -0.0009
     93  CD2       -2.5320  -10.9300   -4.8720 C.ar  224  TYR224     -0.0009
     94  CE1       -4.0310  -11.3250   -7.1540 C.ar  224  TYR224      0.0417
     95  CE2       -3.4620   -9.9840   -5.2510 C.ar  224  TYR224      0.0417
     96  CZ        -4.2120  -10.1870   -6.3900 C.ar  224  TYR224      0.1957
     97  OH        -5.1440   -9.2440   -6.7620 O.3   224  TYR224     -0.2866
     98  N          0.6310  -10.6370   -4.6860 N.am  225  ASN225     -0.1974
     99  CA         0.7870   -9.1870   -4.7180 C.3   225  ASN225      0.1688
    100  C          2.0410   -8.7350   -5.4500 C.2   225  ASN225      0.2292
    101  O          2.1310   -7.5870   -5.8830 O.2   225  ASN225     -0.2864
    102  CB         0.7470   -8.5950   -3.3080 C.3   225  ASN225      0.1181
    103  CG        -0.6670   -8.3690   -2.8140 C.2   225  ASN225      0.2629
    104  OD1       -1.2900   -7.3500   -3.1220 O.2   225  ASN225     -0.2716
    105  ND2       -1.1830   -9.3190   -2.0420 N.am  225  ASN225     -0.0877
    106  N         -2.9960  -17.0990   -6.3630 N.3   247  TYR247     -0.1241
    107  CA        -4.3760  -16.9360   -5.9100 C.3   247  TYR247      0.1605
    108  C         -4.6800  -17.8160   -4.6960 C.2   247  TYR247      0.2264
    109  O         -5.1110  -17.3250   -3.6460 O.2   247  TYR247     -0.2867
    110  CB        -5.3490  -17.2670   -7.0450 C.3   247  TYR247      0.0534
    111  CG        -6.2630  -16.1260   -7.4380 C.ar  247  TYR247     -0.0201
    112  CD1       -7.6120  -16.1390   -7.0990 C.ar  247  TYR247     -0.0009
    113  CD2       -5.7770  -15.0360   -8.1490 C.ar  247  TYR247     -0.0009
    114  CE1       -8.4510  -15.0980   -7.4600 C.ar  247  TYR247      0.0417
    115  CE2       -6.6060  -13.9920   -8.5130 C.ar  247  TYR247      0.0417
    116  CZ        -7.9420  -14.0280   -8.1680 C.ar  247  TYR247      0.1957
    117  OH        -8.7660  -12.9870   -8.5290 O.3   247  TYR247     -0.2866
    118  N         -3.0340  -16.9150   -1.5880 N.3   250  CYS250     -0.1221
    119  CA        -3.7900  -15.8340   -0.9690 C.3   250  CYS250      0.1808
    120  C         -4.9880  -16.3630   -0.1930 C.2   250  CYS250      0.2601
    121  O         -5.3020  -15.8680    0.8910 O.2   250  CYS250     -0.2717
    122  CB        -4.2350  -14.8070   -2.0030 C.3   250  CYS250      0.0970
    123  SG        -2.9450  -13.6420   -2.4060 S.3   250  CYS250     -0.0800
    124  N         -5.6500  -17.3760   -0.7400 N.am  251  TYR251     -0.1976
    125  CA        -6.8310  -17.9300   -0.0800 C.3   251  TYR251      0.1639
    126  C         -6.5140  -18.6000    1.2590 C.2   251  TYR251      0.2290
    127  O         -7.2630  -18.4470    2.2250 O.2   251  TYR251     -0.2864
    128  CB        -7.5710  -18.9070   -1.0000 C.3   251  TYR251      0.0560
    129  CG        -8.4000  -18.2410   -2.0740 C.ar  251  TYR251     -0.0198
    130  CD1       -8.8760  -16.9450   -1.9120 C.ar  251  TYR251     -0.0009
    131  CD2       -8.7050  -18.9100   -3.2530 C.ar  251  TYR251     -0.0009
    132  CE1       -9.6310  -16.3370   -2.8960 C.ar  251  TYR251      0.0417
    133  CE2       -9.4580  -18.3090   -4.2430 C.ar  251  TYR251      0.0417
    134  CZ        -9.9170  -17.0220   -4.0600 C.ar  251  TYR251      0.1957
    135  OH       -10.6660  -16.4210   -5.0450 O.3   251  TYR251     -0.2866
@<TRIPOS>BOND
     1    20    19    1
     2   117   116    1
     3   115   116   ar
     4   115   113   ar
     5   116   114   ar
     6   113   111   ar
     7    19    17   ar
     8    19    18   ar
     9   114   112   ar
    10   111   112   ar
    11   111   110    1
    12    17    15   ar
    13    94    92   ar
    14    94    96   ar
    15   110   107    1
    16    18    16   ar
    17    89    88    2
    18    92    91   ar
    19    97    96    1
    20    15    14   ar
    21    45    44    2
    22    96    95   ar
    23   106   107    1
    24    16    14   ar
    25   107   108    1
    26   101   100    2
    27    88    87    1
    28    88    98   am
    29    54    52   ar
    30    54    55   ar
    31    14    13    1
    32    87    90    1
    33    87    86    1
    34    91    90    1
    35    91    93   ar
    36   100    99    1
    37    52    49   ar
    38    95    93   ar
    39    44    43    1
    40   135   134    1
    41    55    53   ar
    42     8     6   ar
    43    99    98    1
    44    99   102    1
    45   108   109    2
    46    13    10    1
    47    43    46    1
    48    43    42    1
    49     5     6    1
    50     5     2    1
    51   133   134   ar
    52   133   131   ar
    53    49    47   ar
    54    49    51   ar
    55   134   132   ar
    56     6     7   ar
    57    46    47    1
    58     9    10    1
    59     9     3   am
    60    53    51   ar
    61     1     2    1
    62    10    11    1
    63    47    48   ar
    64   102   103    1
    65    51    50   ar
    66   131   129   ar
    67     2     3    1
    68   104   103    2
    69   132   130   ar
    70   103   105   am
    71     3     4    2
    72   123   122    1
    73    11    12    2
    74    48    50   ar
    75   129   130   ar
    76   129   128    1
    77   122   119    1
    78   118   119    1
    79    75    74    2
    80   128   125    1
    81   119   120    1
    82    60    57    1
    83   124   120   am
    84   124   125    1
    85    74    73    1
    86    84    82   ar
    87    84    85   ar
    88   120   121    2
    89    68    70   ar
    90    68    66   ar
    91    26    25    1
    92    56    57    1
    93   125   126    1
    94    65    66    1
    95    65    62    1
    96    25    22    1
    97    82    79   ar
    98    33    32    2
    99    70    71   ar
   100    57    58    1
   101    66    67   ar
   102    61    58   am
   103    61    62    1
   104    73    72    1
   105    73    76    1
   106    85    83   ar
   107    31    32    1
   108    31    28    1
   109    58    59    2
   110    32    34   am
   111    62    63    1
   112    21    22    1
   113    71    69   ar
   114    27    28    1
   115    27    23   am
   116    67    69   ar
   117   126   127    2
   118    22    23    1
   119    79    77   ar
   120    79    81   ar
   121    76    77    1
   122    63    64    2
   123    28    29    1
   124    23    24    2
   125    83    81   ar
   126    77    78   ar
   127    81    80   ar
   128    29    30    2
   129    78    80   ar
   130    41    39    1
   131    39    40    1
   132    39    36    1
   133    35    36    1
   134    36    37    1
   135    37    38    2
