@<TRIPOS>MOLECULE
tmp/4mqtA01.pdb
 195 190 0 0 0
SMALL
GASTEIGER

@<TRIPOS>ATOM
      1  N         -9.8010  -20.8260   -7.6960 N.3    62  TYR62      -0.1241
      2  CA        -8.4940  -20.7310   -8.3370 C.3    62  TYR62       0.1605
      3  C         -7.9190  -22.1220   -8.5930 C.2    62  TYR62       0.2264
      4  O         -7.1480  -22.3240   -9.5350 O.2    62  TYR62      -0.2867
      5  CB        -7.5210  -19.8900   -7.5100 C.3    62  TYR62       0.0534
      6  CG        -6.2590  -19.5410   -8.2650 C.ar   62  TYR62      -0.0201
      7  CD1       -5.0580  -20.1780   -7.9850 C.ar   62  TYR62      -0.0009
      8  CD2       -6.2760  -18.5880   -9.2750 C.ar   62  TYR62      -0.0009
      9  CE1       -3.9060  -19.8630   -8.6800 C.ar   62  TYR62       0.0417
     10  CE2       -5.1310  -18.2690   -9.9750 C.ar   62  TYR62       0.0417
     11  CZ        -3.9490  -18.9090   -9.6750 C.ar   62  TYR62       0.1957
     12  OH        -2.8070  -18.5910  -10.3730 O.3    62  TYR62      -0.2866
     13  N         -9.7320  -22.9900  -11.7790 N.3    65  TYR65      -0.1227
     14  CA        -9.0540  -22.2080  -12.8110 C.3    65  TYR65       0.1736
     15  C         -7.7680  -22.8920  -13.2610 C.2    65  TYR65       0.2596
     16  O         -7.5460  -23.0920  -14.4550 O.2    65  TYR65      -0.2718
     17  CB        -8.7300  -20.8120  -12.2630 C.3    65  TYR65       0.0548
     18  CG        -8.2500  -19.7910  -13.2800 C.ar   65  TYR65      -0.0200
     19  CD1       -9.0070  -18.6640  -13.5650 C.ar   65  TYR65      -0.0009
     20  CD2       -7.0330  -19.9370  -13.9360 C.ar   65  TYR65      -0.0009
     21  CE1       -8.5740  -17.7240  -14.4790 C.ar   65  TYR65       0.0417
     22  CE2       -6.5980  -19.0020  -14.8560 C.ar   65  TYR65       0.0417
     23  CZ        -7.3710  -17.8970  -15.1220 C.ar   65  TYR65       0.1957
     24  OH        -6.9380  -16.9620  -16.0340 O.3    65  TYR65      -0.2866
     25  N         -6.9250  -23.2470  -12.2970 N.am   66  THR66      -0.1953
     26  CA        -5.6240  -23.8300  -12.6030 C.3    66  THR66       0.1897
     27  C         -5.7140  -25.2730  -13.0940 C.2    66  THR66       0.2313
     28  O         -4.9100  -25.7030  -13.9210 O.2    66  THR66      -0.2863
     29  CB        -4.6770  -23.7680  -11.3880 C.3    66  THR66       0.1794
     30  OG1       -5.3390  -24.3030  -10.2350 O.3    66  THR66      -0.2208
     31  CG2       -4.2700  -22.3320  -11.1070 C.3    66  THR66       0.0378
     32  N         -7.2390  -25.2310  -16.8410 N.3    69  GLY69      -0.1225
     33  CA        -6.3710  -24.5740  -17.8020 C.3    69  GLY69       0.1811
     34  C         -6.9310  -23.2400  -18.2530 C.2    69  GLY69       0.2280
     35  O         -6.2480  -22.4590  -18.9170 O.2    69  GLY69      -0.2866
     36  N         -9.9140  -10.1560   -4.0370 N.3    86  TYR86      -0.1241
     37  CA        -9.0690   -9.0030   -3.7400 C.3    86  TYR86       0.1605
     38  C         -9.5470   -8.2210   -2.5170 C.2    86  TYR86       0.2264
     39  O         -8.7420   -7.8330   -1.6650 O.2    86  TYR86      -0.2867
     40  CB        -8.9590   -8.0860   -4.9600 C.3    86  TYR86       0.0534
     41  CG        -7.9530   -8.5640   -5.9840 C.ar   86  TYR86      -0.0201
     42  CD1       -8.1930   -9.6990   -6.7460 C.ar   86  TYR86      -0.0009
     43  CD2       -6.7630   -7.8800   -6.1860 C.ar   86  TYR86      -0.0009
     44  CE1       -7.2780  -10.1400   -7.6810 C.ar   86  TYR86       0.0417
     45  CE2       -5.8420   -8.3110   -7.1190 C.ar   86  TYR86       0.0417
     46  CZ        -6.1040   -9.4420   -7.8640 C.ar   86  TYR86       0.1957
     47  OH        -5.1890   -9.8790   -8.7950 O.3    86  TYR86      -0.2866
     48  N        -10.5930   -6.1770  -21.4270 N.3   152  THR152     -0.1218
     49  CA        -9.2770   -6.6560  -21.8480 C.3   152  THR152      0.1862
     50  C         -9.0810   -8.1420  -21.5270 C.2   152  THR152      0.2287
     51  O         -8.2680   -8.8240  -22.1540 O.2   152  THR152     -0.2866
     52  CB        -8.1520   -5.8100  -21.1970 C.3   152  THR152      0.1770
     53  OG1       -8.3440   -4.4280  -21.5240 O.3   152  THR152     -0.2211
     54  CG2       -6.7750   -6.2430  -21.6820 C.3   152  THR152      0.0375
     55  N         -9.2260  -11.9310  -21.5750 N.3   154  GLU154     -0.1245
     56  CA        -9.4250  -12.9140  -22.6340 C.3   154  GLU154      0.1567
     57  C        -10.6330  -13.7980  -22.3380 C.2   154  GLU154      0.2260
     58  O        -11.1450  -13.8090  -21.2180 O.2   154  GLU154     -0.2867
     59  CB        -8.1720  -13.7780  -22.7960 C.3   154  GLU154      0.0388
     60  CG        -6.9060  -12.9900  -23.0970 C.3   154  GLU154      0.1160
     61  CD        -5.6630  -13.8590  -23.0820 C.2   154  GLU154      0.3649
     62  OE1       -5.7380  -14.9960  -22.5710 O.co2 154  GLU154     -0.2457
     63  OE2       -4.6130  -13.4050  -23.5830 O.co2 154  GLU154     -0.2457
     64  N         -8.9890  -16.9230  -20.2140 N.3   157  GLU157     -0.1231
     65  CA        -8.3440  -16.5150  -18.9710 C.3   157  GLU157      0.1699
     66  C         -9.2200  -15.5640  -18.1610 C.2   157  GLU157      0.2592
     67  O        -10.1490  -14.9550  -18.6920 O.2   157  GLU157     -0.2718
     68  CB        -6.9920  -15.8600  -19.2630 C.3   157  GLU157      0.0402
     69  CG        -5.9820  -16.8950  -19.6940 C.3   157  GLU157      0.1161
     70  CD        -4.5200  -16.5000  -19.4770 C.2   157  GLU157      0.3649
     71  OE1       -4.2160  -15.3310  -19.1950 O.co2 157  GLU157     -0.2457
     72  OE2       -3.6800  -17.3990  -19.5670 O.co2 157  GLU157     -0.2457
     73  N         -8.9190  -15.4470  -16.8720 N.am  158  CYS158     -0.1956
     74  CA        -9.6400  -14.5310  -15.9940 C.3   158  CYS158      0.1843
     75  C         -8.6880  -13.8400  -15.0250 C.2   158  CYS158      0.2625
     76  O         -8.4270  -14.3300  -13.9240 O.2   158  CYS158     -0.2714
     77  CB       -10.7500  -15.2620  -15.2360 C.3   158  CYS158      0.0997
     78  SG       -11.7350  -14.2440  -14.1200 S.3   158  CYS158     -0.0797
     79  N         -8.1670  -12.7000  -15.4610 N.am  159  TYR159     -0.1960
     80  CA        -7.2990  -11.8650  -14.6490 C.3   159  TYR159      0.1771
     81  C         -7.9590  -10.5020  -14.4990 C.2   159  TYR159      0.2619
     82  O         -9.0540  -10.2760  -15.0150 O.2   159  TYR159     -0.2715
     83  CB        -5.9330  -11.7180  -15.3230 C.3   159  TYR159      0.0574
     84  CG        -6.0210  -11.3310  -16.7840 C.ar  159  TYR159     -0.0198
     85  CD1       -6.0350   -9.9970  -17.1690 C.ar  159  TYR159     -0.0009
     86  CD2       -6.1010  -12.3000  -17.7780 C.ar  159  TYR159     -0.0009
     87  CE1       -6.1230   -9.6370  -18.5010 C.ar  159  TYR159      0.0417
     88  CE2       -6.1900  -11.9500  -19.1130 C.ar  159  TYR159      0.0417
     89  CZ        -6.2000  -10.6160  -19.4680 C.ar  159  TYR159      0.1957
     90  OH        -6.2870  -10.2560  -20.7940 O.3   159  TYR159     -0.2866
     91  N         -7.2970   -9.5960  -13.7900 N.am  160  ILE160     -0.1977
     92  CA        -7.8020   -8.2370  -13.6620 C.3   160  ILE160      0.1596
     93  C         -7.2760   -7.3800  -14.8100 C.2   160  ILE160      0.2287
     94  O         -6.1170   -7.5030  -15.2150 O.2   160  ILE160     -0.2864
     95  CB        -7.4330   -7.6030  -12.3070 C.3   160  ILE160      0.0276
     96  CG1       -8.0030   -8.4310  -11.1590 C.3   160  ILE160      0.0022
     97  CG2       -7.9750   -6.1870  -12.2230 C.3   160  ILE160      0.0022
     98  CD1       -9.4880   -8.3550  -11.0790 C.3   160  ILE160      0.0001
     99  N         -4.3030   -4.0770  -14.4960 N.3   163  PHE163     -0.1227
    100  CA        -2.8840   -4.3650  -14.3590 C.3   163  PHE163      0.1736
    101  C         -2.1710   -4.1730  -15.6930 C.2   163  PHE163      0.2596
    102  O         -0.9410   -4.1400  -15.7460 O.2   163  PHE163     -0.2718
    103  CB        -2.6710   -5.7840  -13.8370 C.3   163  PHE163      0.0547
    104  CG        -2.9190   -6.0180  -12.3710 C.ar  163  PHE163     -0.0202
    105  CD1       -2.1780   -5.3580  -11.4080 C.ar  163  PHE163     -0.0042
    106  CD2       -3.8850   -6.9150  -11.9350 C.ar  163  PHE163     -0.0042
    107  CE1       -2.4140   -5.5640  -10.0390 C.ar  163  PHE163     -0.0003
    108  CE2       -4.0780   -7.1430  -10.5730 C.ar  163  PHE163     -0.0003
    109  CZ        -3.3560   -6.4710   -9.6510 C.ar  163  PHE163     -0.0000
    110  N         -2.9450   -4.0540  -16.7700 N.am  164  SER164     -0.1952
    111  CA        -2.3790   -3.7750  -18.0850 C.3   164  SER164      0.1924
    112  C         -1.7330   -2.3890  -18.0880 C.2   164  SER164      0.2314
    113  O         -0.7450   -2.1510  -18.7830 O.2   164  SER164     -0.2863
    114  CB        -3.4560   -3.8800  -19.1670 C.3   164  SER164      0.2116
    115  OG        -4.0990   -5.1440  -19.1300 O.3   164  SER164     -0.2180
    116  N          3.7220  -12.4600   -4.8450 N.3   221  TYR221     -0.1241
    117  CA         2.7210  -11.9580   -5.7860 C.3   221  TYR221      0.1605
    118  C          2.7930  -10.4440   -6.0140 C.2   221  TYR221      0.2264
    119  O          2.6950   -9.9790   -7.1500 O.2   221  TYR221     -0.2867
    120  CB         1.3180  -12.3680   -5.3360 C.3   221  TYR221      0.0534
    121  CG         0.2070  -11.4640   -5.8230 C.ar  221  TYR221     -0.0201
    122  CD1       -0.4220  -11.6980   -7.0370 C.ar  221  TYR221     -0.0009
    123  CD2       -0.2250  -10.3860   -5.0580 C.ar  221  TYR221     -0.0009
    124  CE1       -1.4420  -10.8780   -7.4830 C.ar  221  TYR221      0.0417
    125  CE2       -1.2390   -9.5570   -5.4990 C.ar  221  TYR221      0.0417
    126  CZ        -1.8450   -9.8070   -6.7110 C.ar  221  TYR221      0.1957
    127  OH        -2.8580   -8.9830   -7.1470 O.3   221  TYR221     -0.2866
    128  N          3.3780   -8.8950   -9.4920 N.3   225  VAL225     -0.1245
    129  CA         2.4460   -7.9460  -10.0770 C.3   225  VAL225      0.1561
    130  C          3.2080   -6.7620  -10.6700 C.2   225  VAL225      0.2260
    131  O          2.8290   -6.2200  -11.7090 O.2   225  VAL225     -0.2867
    132  CB         1.4120   -7.4840   -9.0250 C.3   225  VAL225      0.0252
    133  CG1        1.0930   -6.0080   -9.1640 C.3   225  VAL225      0.0019
    134  CG2        0.1540   -8.3220   -9.1290 C.3   225  VAL225      0.0019
    135  N          5.2180   -8.0600  -14.0230 N.3   228  ASN228     -0.1240
    136  CA         4.3540   -8.2650  -15.1820 C.3   228  ASN228      0.1653
    137  C          3.7880   -6.9670  -15.7480 C.2   228  ASN228      0.2266
    138  O          3.3680   -6.9170  -16.9030 O.2   228  ASN228     -0.2867
    139  CB         3.2080   -9.2160  -14.8250 C.3   228  ASN228      0.1155
    140  CG         2.4480   -9.6990  -16.0440 C.2   228  ASN228      0.2627
    141  OD1        2.8120  -10.7020  -16.6590 O.2   228  ASN228     -0.2716
    142  ND2        1.3840   -8.9890  -16.3980 N.am  228  ASN228     -0.0877
    143  N          4.5730   -7.7700  -21.1150 N.3   232  ALA232     -0.1231
    144  CA         3.5040   -8.7590  -21.2270 C.3   232  ALA232      0.1679
    145  C          3.9600  -10.2280  -21.2780 C.2   232  ALA232      0.2434
    146  O          3.4520  -11.0500  -20.5150 O.2   232  ALA232     -0.2733
    147  CB         2.5840   -8.4260  -22.4070 C.3   232  ALA232      0.0304
    148  N          4.9130  -10.5730  -22.1680 N.am  233  PRO233     -0.2729
    149  CA         5.2700  -11.9950  -22.2420 C.3   233  PRO233      0.1401
    150  C          6.2800  -12.4070  -21.1730 C.2   233  PRO233      0.2269
    151  O          6.7500  -13.5440  -21.1850 O.2   233  PRO233     -0.2865
    152  CB         5.9210  -12.1230  -23.6290 C.3   233  PRO233      0.0296
    153  CG         5.7570  -10.7760  -24.2990 C.3   233  PRO233      0.0237
    154  CD         5.6310   -9.7940  -23.1890 C.3   233  PRO233      0.0939
    155  N          2.8630  -18.8810  -16.5010 N.3   237  ASN237     -0.1240
    156  CA         1.6710  -19.1730  -15.7140 C.3   237  ASN237      0.1653
    157  C          1.9250  -20.0270  -14.4740 C.2   237  ASN237      0.2266
    158  O          1.1920  -19.9300  -13.4900 O.2   237  ASN237     -0.2867
    159  CB         0.5980  -19.8180  -16.5930 C.3   237  ASN237      0.1155
    160  CG        -0.1900  -18.7980  -17.3910 C.2   237  ASN237      0.2627
    161  OD1       -0.4700  -17.7000  -16.9100 O.2   237  ASN237     -0.2716
    162  ND2       -0.5510  -19.1560  -18.6180 N.am  237  ASN237     -0.0877
    163  N          3.1310  -17.7950  -11.7620 N.3   240  TRP240     -0.1227
    164  CA         1.9300  -17.0530  -11.3620 C.3   240  TRP240      0.1737
    165  C          1.0910  -17.8430  -10.3620 C.2   240  TRP240      0.2596
    166  O          0.6930  -17.3210   -9.3160 O.2   240  TRP240     -0.2718
    167  CB         1.0730  -16.6730  -12.5740 C.3   240  TRP240      0.0564
    168  CG         1.1310  -15.2120  -12.9420 C.ar  240  TRP240      0.0003
    169  CD1        1.5060  -14.6880  -14.1440 C.ar  240  TRP240      0.0946
    170  CD2        0.8030  -14.0940  -12.1030 C.ar  240  TRP240      0.0152
    171  NE1        1.4340  -13.3170  -14.1080 N.ar  240  TRP240     -0.2442
    172  CE2        1.0040  -12.9260  -12.8670 C.ar  240  TRP240      0.0810
    173  CE3        0.3590  -13.9660  -10.7830 C.ar  240  TRP240      0.0012
    174  CZ2        0.7780  -11.6490  -12.3560 C.ar  240  TRP240      0.0191
    175  CZ3        0.1350  -12.6960  -10.2780 C.ar  240  TRP240      0.0001
    176  CH2        0.3460  -11.5550  -11.0630 C.ar  240  TRP240      0.0015
    177  N          0.8290  -19.1020  -10.7010 N.am  241  THR241     -0.1953
    178  CA         0.1030  -20.0170   -9.8290 C.3   241  THR241      0.1897
    179  C          0.7780  -20.1060   -8.4660 C.2   241  THR241      0.2313
    180  O          0.1220  -20.0100   -7.4210 O.2   241  THR241     -0.2863
    181  CB         0.0340  -21.4240  -10.4490 C.3   241  THR241      0.1794
    182  OG1       -0.8500  -21.4070  -11.5760 O.3   241  THR241     -0.2208
    183  CG2       -0.4710  -22.4360   -9.4390 C.3   241  THR241      0.0378
    184  N          0.1530  -16.8100   -6.4870 N.3   244  TYR244     -0.1241
    185  CA        -1.2250  -16.7590   -6.0050 C.3   244  TYR244      0.1605
    186  C         -1.4420  -17.6800   -4.8050 C.2   244  TYR244      0.2264
    187  O         -2.0110  -17.2680   -3.7890 O.2   244  TYR244     -0.2867
    188  CB        -2.2000  -17.1140   -7.1300 C.3   244  TYR244      0.0534
    189  CG        -3.0630  -15.9590   -7.5890 C.ar  244  TYR244     -0.0201
    190  CD1       -4.4450  -16.0080   -7.4670 C.ar  244  TYR244     -0.0009
    191  CD2       -2.4950  -14.8160   -8.1380 C.ar  244  TYR244     -0.0009
    192  CE1       -5.2390  -14.9550   -7.8850 C.ar  244  TYR244      0.0417
    193  CE2       -3.2800  -13.7570   -8.5570 C.ar  244  TYR244      0.0417
    194  CZ        -4.6510  -13.8320   -8.4290 C.ar  244  TYR244      0.1957
    195  OH        -5.4370  -12.7810   -8.8450 O.3   244  TYR244     -0.2866
@<TRIPOS>BOND
     1   153   152    1
     2   153   154    1
     3   152   149    1
     4    63    61   ar
     5   154   148    1
     6    60    61    1
     7    60    59    1
     8    61    62   ar
     9    59    56    1
    10    56    57    1
    11    56    55    1
    12   147   144    1
    13    57    58    2
    14   149   148    1
    15   149   150    1
    16   148   145   am
    17    51    50    2
    18    49    50    1
    19    49    48    1
    20    49    52    1
    21    54    52    1
    22    53    52    1
    23   145   144    1
    24   145   146    2
    25   144   143    1
    26   151   150    2
    27    90    89    1
    28    64    65    1
    29    69    70    1
    30    69    68    1
    31    72    70   ar
    32    70    71   ar
    33    89    88   ar
    34    89    87   ar
    35    68    65    1
    36   114   115    1
    37   114   111    1
    38    88    86   ar
    39    65    66    1
    40    35    34    2
    41   113   112    2
    42    67    66    2
    43   162   160   am
    44    87    85   ar
    45    34    33    1
    46    66    73   am
    47   112   111    1
    48   111   110    1
    49    33    32    1
    50    86    84   ar
    51   160   161    2
    52   160   159    1
    53    85    84   ar
    54   138   137    2
    55    73    74    1
    56    84    83    1
    57   110   101   am
    58   141   140    2
    59   159   156    1
    60   155   156    1
    61   142   140   am
    62   140   139    1
    63    24    23    1
    64    74    77    1
    65    74    75    1
    66   137   136    1
    67   102   101    2
    68   156   157    1
    69   101   100    1
    70    79    75   am
    71    79    80    1
    72    83    80    1
    73    77    78    1
    74    94    93    2
    75   136   139    1
    76   136   135    1
    77    23    22   ar
    78    23    21   ar
    79    75    76    2
    80    82    81    2
    81    22    20   ar
    82    93    92    1
    83    80    81    1
    84    81    91   am
    85    99   100    1
    86    21    19   ar
    87   157   158    2
    88    16    15    2
    89   100   103    1
    90   169   171   ar
    91   169   168   ar
    92   171   172   ar
    93    20    18   ar
    94    28    27    2
    95   103   104    1
    96    91    92    1
    97    92    95    1
    98    19    18   ar
    99    18    17    1
   100    15    14    1
   101    15    25   am
   102    27    26    1
   103   168   167    1
   104   168   170   ar
   105   172   174   ar
   106   172   170   ar
   107    14    17    1
   108    14    13    1
   109    26    25    1
   110    26    29    1
   111   167   164    1
   112   104   106   ar
   113   104   105   ar
   114   174   176   ar
   115    95    97    1
   116    95    96    1
   117   170   173   ar
   118   106   108   ar
   119   163   164    1
   120   131   130    2
   121   182   181    1
   122   105   107   ar
   123    29    31    1
   124    29    30    1
   125   164   165    1
   126    96    98    1
   127   176   175   ar
   128   173   175   ar
   129   177   165   am
   130   177   178    1
   131   130   129    1
   132   108   109   ar
   133   181   178    1
   134   181   183    1
   135    12    11    1
   136   165   166    2
   137   129   128    1
   138   129   132    1
   139   107   109   ar
   140    10    11   ar
   141    10     8   ar
   142   178   179    1
   143    11     9   ar
   144     4     3    2
   145     8     6   ar
   146   133   132    1
   147   134   132    1
   148   195   194    1
   149    47    46    1
   150     9     7   ar
   151     3     2    1
   152   193   194   ar
   153   193   191   ar
   154   179   180    2
   155   194   192   ar
   156     2     1    1
   157     2     5    1
   158     6     7   ar
   159     6     5    1
   160   191   189   ar
   161   192   190   ar
   162    46    44   ar
   163    46    45   ar
   164    44    42   ar
   165   189   190   ar
   166   189   188    1
   167   124   122   ar
   168   124   126   ar
   169   119   118    2
   170   127   126    1
   171   188   185    1
   172    45    43   ar
   173   122   121   ar
   174    42    41   ar
   175   126   125   ar
   176   184   185    1
   177    43    41   ar
   178   118   117    1
   179   185   186    1
   180    41    40    1
   181   121   120    1
   182   121   123   ar
   183   117   120    1
   184   117   116    1
   185   125   123   ar
   186    40    37    1
   187   186   187    2
   188    36    37    1
   189    37    38    1
   190    38    39    2
