@<TRIPOS>MOLECULE
tmp/4mqyA00.pdb
 186 176 0 0 0
SMALL
GASTEIGER

@<TRIPOS>ATOM
      1  N        198.2740  106.1280   10.1020 N.3    18  LEU18      -0.1245
      2  CA       197.7800  104.8450    9.6190 C.3    18  LEU18       0.1561
      3  C        198.8860  103.7680    9.6360 C.2    18  LEU18       0.2260
      4  O        198.6500  102.6220   10.0140 O.2    18  LEU18      -0.2867
      5  CB       197.2620  104.9940    8.1970 C.3    18  LEU18       0.0270
      6  CG       196.7430  103.7360    7.5100 C.3    18  LEU18       0.0019
      7  CD1      195.5740  103.1740    8.2850 C.3    18  LEU18       0.0001
      8  CD2      196.3650  104.0350    6.0570 C.3    18  LEU18       0.0001
      9  N        201.0430  101.1540   -1.6400 N.3    61  MET61      -0.1230
     10  CA       200.0460  100.1270   -1.3670 C.3    61  MET61       0.1702
     11  C        198.8410  100.7170   -0.6550 C.2    61  MET61       0.2592
     12  O        197.6980  100.3930   -0.9630 O.2    61  MET61      -0.2718
     13  CB       200.6490   99.0110   -0.5220 C.3    61  MET61       0.0401
     14  CG       199.6530   97.9700   -0.0310 C.3    61  MET61       0.0596
     15  SD       199.2530   96.6970   -1.2500 S.3    61  MET61      -0.1393
     16  CE       197.9330   97.4580   -2.1920 C.3    61  MET61       0.0692
     17  N        199.0890  101.5950    0.3020 N.am   62  LEU62      -0.1966
     18  CA       197.9850  102.2040    1.0160 C.3    62  LEU62       0.1728
     19  C        197.5900  103.5310    0.3930 C.2    62  LEU62       0.2616
     20  O        196.9680  103.5640   -0.6600 O.2    62  LEU62      -0.2715
     21  CB       198.3120  102.3340    2.5010 C.3    62  LEU62       0.0311
     22  CG       198.2140  100.9560    3.1590 C.3    62  LEU62       0.0022
     23  CD1      198.5370  100.9860    4.6440 C.3    62  LEU62       0.0001
     24  CD2      196.8290  100.3640    2.9090 C.3    62  LEU62       0.0001
     25  N        197.9730  104.6220    1.0340 N.am   63  CYS63      -0.1968
     26  CA       197.5850  105.9550    0.5950 C.3    63  CYS63       0.1712
     27  C        198.2860  106.3820   -0.6910 C.2    63  CYS63       0.2296
     28  O        198.3950  105.6140   -1.6490 O.2    63  CYS63      -0.2864
     29  CB       197.9520  106.9290    1.6960 C.3    63  CYS63       0.0983
     30  SG       199.6460  106.6860    2.2790 S.3    63  CYS63      -0.0798
     31  N        196.5400  112.7490    0.5340 N.3    78  GLU78      -0.1231
     32  CA       195.5280  113.0730   -0.4590 C.3    78  GLU78       0.1699
     33  C        194.1810  113.5100    0.1340 C.2    78  GLU78       0.2592
     34  O        193.4610  114.3120   -0.4720 O.2    78  GLU78      -0.2718
     35  CB       195.3350  111.9310   -1.4480 C.3    78  GLU78       0.0402
     36  CG       194.8560  110.6330   -0.8360 C.3    78  GLU78       0.1161
     37  CD       195.9740  109.7750   -0.2570 C.2    78  GLU78       0.3649
     38  OE1      197.1240  110.2510   -0.1040 O.co2  78  GLU78      -0.2457
     39  OE2      195.6760  108.6070    0.0590 O.co2  78  GLU78      -0.2457
     40  N        193.8380  112.9930    1.3020 N.am   79  HIS79      -0.1976
     41  CA       192.5810  113.4010    1.9130 C.3    79  HIS79       0.1656
     42  C        192.6560  114.8710    2.3510 C.2    79  HIS79       0.2291
     43  O        191.7610  115.6540    2.0600 O.2    79  HIS79      -0.2864
     44  CB       192.2050  112.4570    3.0410 C.3    79  HIS79       0.0771
     45  CG       192.0160  111.0310    2.5870 C.ar   79  HIS79       0.0820
     46  ND1      192.0320  109.9660    3.4680 N.ar   79  HIS79      -0.2267
     47  CD2      191.7990  110.5120    1.3580 C.ar   79  HIS79       0.1154
     48  CE1      191.8420  108.8460    2.7890 C.ar   79  HIS79       0.1986
     49  NE2      191.6850  109.1460    1.5150 N.ar   79  HIS79      -0.2212
     50  N        195.5280  109.8590    9.7560 N.3   103  ILE103     -0.1245
     51  CA       194.4190  109.3090    8.9610 C.3   103  ILE103      0.1561
     52  C        193.0490  109.8360    9.3960 C.2   103  ILE103      0.2260
     53  O        192.0870  109.8440    8.6060 O.2   103  ILE103     -0.2867
     54  CB       194.4380  107.7630    9.0210 C.3   103  ILE103      0.0252
     55  CG1      193.4780  107.1210    8.0020 C.3   103  ILE103      0.0019
     56  CG2      194.1910  107.2630   10.4750 C.3   103  ILE103      0.0019
     57  CD1      193.6720  107.6020    6.5800 C.3   103  ILE103      0.0001
     58  N        187.4910  106.3770    3.5390 N.3   191  THR191     -0.1203
     59  CA       188.2630  105.3270    2.9120 C.3   191  THR191      0.1994
     60  C        187.7840  103.9470    3.3470 C.2   191  THR191      0.2618
     61  O        187.0140  103.7980    4.3040 O.2   191  THR191     -0.2717
     62  CB       189.7430  105.4730    3.2250 C.3   191  THR191      0.1784
     63  OG1      190.4770  104.5830    2.3710 O.3   191  THR191     -0.2211
     64  CG2      190.0410  105.1660    4.6910 C.3   191  THR191      0.0376
     65  N        188.2120  102.9230    2.6340 N.am  192  PHE192     -0.1961
     66  CA       187.6590  101.6120    2.8910 C.3   192  PHE192      0.1771
     67  C        188.6730  100.5470    2.5600 C.2   192  PHE192      0.2620
     68  O        189.5450  100.7490    1.7010 O.2   192  PHE192     -0.2715
     69  CB       186.4000  101.3860    2.0580 C.3   192  PHE192      0.0574
     70  CG       186.5900  101.6560    0.5880 C.ar  192  PHE192     -0.0200
     71  CD1      187.0300  100.6610   -0.2700 C.ar  192  PHE192     -0.0042
     72  CD2      186.3220  102.9080    0.0590 C.ar  192  PHE192     -0.0042
     73  CE1      187.2060  100.9140   -1.6360 C.ar  192  PHE192     -0.0003
     74  CE2      186.4990  103.1620   -1.2940 C.ar  192  PHE192     -0.0003
     75  CZ       186.9390  102.1560   -2.1380 C.ar  192  PHE192     -0.0000
     76  N        188.5630   99.4060    3.2270 N.am  193  GLY193     -0.1954
     77  CA       189.4910   98.3390    2.9490 C.3   193  GLY193      0.1869
     78  C        188.9000   96.9900    3.2790 C.2   193  GLY193      0.2309
     79  O        187.8240   96.8930    3.8670 O.2   193  GLY193     -0.2863
     80  N        189.1330   93.4260    5.2200 N.3   195  MET195     -0.1245
     81  CA       189.6300   93.0290    6.5310 C.3   195  MET195      0.1570
     82  C        190.8120   92.0560    6.5150 C.2   195  MET195      0.2261
     83  O        191.7650   92.2100    7.2830 O.2   195  MET195     -0.2867
     84  CB       188.4890   92.4210    7.3460 C.3   195  MET195      0.0387
     85  CG       188.8660   91.9650    8.7530 C.3   195  MET195      0.0595
     86  SD       189.7540   93.2440    9.6820 S.3   195  MET195     -0.1393
     87  CE       188.5390   93.7180   10.8970 C.3   195  MET195      0.0692
     88  N        193.9810   93.9700    5.6010 N.3   198  ILE198     -0.1245
     89  CA       194.4160   94.7240    6.7690 C.3   198  ILE198      0.1561
     90  C        195.0380   93.8010    7.8260 C.2   198  ILE198      0.2260
     91  O        196.1190   94.0780    8.3400 O.2   198  ILE198     -0.2867
     92  CB       193.2620   95.5100    7.3780 C.3   198  ILE198      0.0252
     93  CG1      192.8060   96.5740    6.3850 C.3   198  ILE198      0.0019
     94  CG2      193.6930   96.1390    8.6830 C.3   198  ILE198      0.0019
     95  CD1      191.3560   96.9990    6.5310 C.3   198  ILE198      0.0001
     96  N        199.0040   94.0150    9.0840 N.3   202  GLN202     -0.1245
     97  CA       199.3220   94.1980   10.4920 C.3   202  GLN202      0.1566
     98  C        200.1550   93.0620   11.0640 C.2   202  GLN202      0.2260
     99  O        200.8550   93.2580   12.0390 O.2   202  GLN202     -0.2867
    100  CB       198.0490   94.3850   11.3080 C.3   202  GLN202      0.0367
    101  CG       197.3560   95.6910   11.0070 C.3   202  GLN202      0.0905
    102  CD       196.1780   95.9530   11.9050 C.2   202  GLN202      0.2608
    103  OE1      195.6670   95.0540   12.5730 O.2   202  GLN202     -0.2717
    104  NE2      195.7300   97.2050   11.9220 N.am  202  GLN202     -0.0878
    105  N        200.3380   99.0700    8.5620 N.3   207  CYS207     -0.1235
    106  CA       198.9750   99.5410    8.7350 C.3   207  CYS207      0.1677
    107  C        198.6000   99.4750   10.2100 C.2   207  CYS207      0.2270
    108  O        197.4990   99.0900   10.5480 O.2   207  CYS207     -0.2867
    109  CB       198.0320   98.6650    7.8900 C.3   207  CYS207      0.0956
    110  SG       196.5090   99.4400    7.3730 S.3   207  CYS207     -0.0801
    111  N        195.4260  101.2510   11.5520 N.3   210  GLY210     -0.1210
    112  CA       194.1170  100.8300   11.0860 C.3   210  GLY210      0.1956
    113  C        193.1860  100.4750   12.2350 C.2   210  GLY210      0.2613
    114  O        193.5980   99.8210   13.2170 O.2   210  GLY210     -0.2717
    115  N        191.9430  100.9480   12.1300 N.am  211  SER211     -0.1938
    116  CA       190.8710  100.5620   13.0310 C.3   211  SER211      0.2055
    117  C        189.5380  100.8550   12.3370 C.2   211  SER211      0.2643
    118  O        189.5110  101.4300   11.2480 O.2   211  SER211     -0.2714
    119  CB       190.9460  101.3150   14.3620 C.3   211  SER211      0.2130
    120  OG       190.6820  102.6890   14.2080 O.3   211  SER211     -0.2179
    121  N        188.4420  100.4460   12.9620 N.am  212  PHE212     -0.1973
    122  CA       187.1200  100.7600   12.4550 C.3   212  PHE212      0.1639
    123  C        186.8830  102.2570   12.5220 C.2   212  PHE212      0.2290
    124  O        186.0520  102.7920   11.7950 O.2   212  PHE212     -0.2864
    125  CB       186.0550  100.0280   13.2590 C.3   212  PHE212      0.0560
    126  CG       186.0260   98.5520   13.0010 C.ar  212  PHE212     -0.0200
    127  CD1      185.9740   98.0690   11.7130 C.ar  212  PHE212     -0.0042
    128  CD2      186.0750   97.6510   14.0410 C.ar  212  PHE212     -0.0042
    129  CE1      185.9590   96.7110   11.4710 C.ar  212  PHE212     -0.0003
    130  CE2      186.0590   96.2950   13.7940 C.ar  212  PHE212     -0.0003
    131  CZ       185.9990   95.8330   12.5140 C.ar  212  PHE212     -0.0000
    132  N        188.8810  104.5140   11.5420 N.3   214  CYS214     -0.1221
    133  CA       189.5370  105.2530   10.4740 C.3   214  CYS214      0.1808
    134  C        189.2150  104.7390    9.0800 C.2   214  CYS214      0.2601
    135  O        189.7640  105.2420    8.1010 O.2   214  CYS214     -0.2717
    136  CB       191.0500  105.2770   10.7000 C.3   214  CYS214      0.0970
    137  SG       191.9560  103.8480   10.0730 S.3   214  CYS214     -0.0800
    138  N        188.3150  103.7620    8.9740 N.am  215  ALA215     -0.1979
    139  CA       187.9650  103.1980    7.6720 C.3   215  ALA215      0.1597
    140  C        186.6830  102.3740    7.7130 C.2   215  ALA215      0.2287
    141  O        186.3200  101.8260    8.7460 O.2   215  ALA215     -0.2864
    142  CB       189.0760  102.3290    7.1660 C.3   215  ALA215      0.0319
    143  N        185.4470   98.9180    6.9110 N.3   217  VAL217     -0.1245
    144  CA       186.0890   97.6240    6.7120 C.3   217  VAL217      0.1561
    145  C        185.0430   96.5900    6.3330 C.2   217  VAL217      0.2260
    146  O        184.0390   96.4560    7.0350 O.2   217  VAL217     -0.2867
    147  CB       186.8130   97.2130    7.9780 C.3   217  VAL217      0.0252
    148  CG1      187.5230   95.8970    7.7960 C.3   217  VAL217      0.0019
    149  CG2      187.8340   98.2960    8.3450 C.3   217  VAL217      0.0019
    150  N        183.8640  108.3800   -1.7530 N.3   238  HIS238     -0.1226
    151  CA       185.2680  108.4400   -1.3440 C.3   238  HIS238      0.1752
    152  C        186.2680  108.4400   -2.5050 C.2   238  HIS238      0.2595
    153  O        187.3050  109.0920   -2.4260 O.2   238  HIS238     -0.2718
    154  CB       185.6720  107.3390   -0.3710 C.3   238  HIS238      0.0759
    155  CG       187.0480  107.5570    0.1490 C.ar  238  HIS238      0.0818
    156  ND1      187.3190  108.4380    1.1720 N.ar  238  HIS238     -0.2268
    157  CD2      188.2610  107.1240   -0.3050 C.ar  238  HIS238      0.1154
    158  CE1      188.6270  108.4920    1.3730 C.ar  238  HIS238      0.1986
    159  NE2      189.2190  107.7080    0.4790 N.ar  238  HIS238     -0.2212
    160  N        185.9820  107.6860   -3.5570 N.am  239  LYS239     -0.1980
    161  CA       186.8460  107.6830   -4.7260 C.3   239  LYS239      0.1596
    162  C        186.8190  109.0810   -5.3800 C.2   239  LYS239      0.2287
    163  O        187.8010  109.5140   -5.9710 O.2   239  LYS239     -0.2864
    164  CB       186.3740  106.6440   -5.7340 C.3   239  LYS239      0.0298
    165  CG       186.5120  105.2230   -5.2630 C.3   239  LYS239      0.0038
    166  CD       187.9610  104.8480   -5.0700 C.3   239  LYS239      0.0206
    167  CE       188.6640  104.7270   -6.4230 C.3   239  LYS239      0.1093
    168  NZ       189.8580  103.8250   -6.4280 N.3   239  LYS239     -0.1314
    169  N        189.0850  111.2250   -3.3800 N.3   242  ASP242     -0.1239
    170  CA       190.4690  110.8880   -3.6900 C.3   242  ASP242      0.1674
    171  C        190.8700  111.5590   -5.0300 C.2   242  ASP242      0.2266
    172  O        191.9750  112.0560   -5.1700 O.2   242  ASP242     -0.2867
    173  CB       190.6670  109.3450   -3.7580 C.3   242  ASP242      0.1410
    174  CG       190.8520  108.6820   -2.3450 C.2   242  ASP242      0.3668
    175  OD1      191.1370  109.3620   -1.3510 O.co2 242  ASP242     -0.2456
    176  OD2      190.7190  107.4520   -2.2130 O.co2 242  ASP242     -0.2456
    177  N        194.3740  106.4030   -7.8830 N.3   265  HIS265     -0.1241
    178  CA       195.4550  107.3520   -7.6860 C.3   265  HIS265      0.1621
    179  C        196.4300  107.3990   -8.8630 C.2   265  HIS265      0.2264
    180  O        196.7240  108.4720   -9.3980 O.2   265  HIS265     -0.2867
    181  CB       196.1910  107.0230   -6.3920 C.3   265  HIS265      0.0745
    182  CG       195.3840  107.2990   -5.1570 C.ar  265  HIS265      0.0817
    183  ND1      194.8810  108.5510   -4.8650 N.ar  265  HIS265     -0.2268
    184  CD2      195.0270  106.4960   -4.1230 C.ar  265  HIS265      0.1154
    185  CE1      194.2360  108.5020   -3.7130 C.ar  265  HIS265      0.1986
    186  NE2      194.3020  107.2670   -3.2470 N.ar  265  HIS265     -0.2212
@<TRIPOS>BOND
     1   180   179    2
     2   179   178    1
     3   177   178    1
     4   178   181    1
     5   168   167    1
     6   167   166    1
     7   181   182    1
     8   163   162    2
     9   164   165    1
    10   164   161    1
    11   162   161    1
    12   165   166    1
    13   172   171    2
    14   182   183   ar
    15   182   184   ar
    16   171   170    1
    17   183   185   ar
    18   161   160    1
    19   184   186   ar
    20   173   170    1
    21   173   174    1
    22   185   186   ar
    23   170   169    1
    24   160   152   am
    25   152   153    2
    26   152   151    1
    27   174   176   ar
    28   174   175   ar
    29    16    15    1
    30    75    73   ar
    31    75    74   ar
    32   150   151    1
    33    28    27    2
    34     9    10    1
    35    73    71   ar
    36    35    36    1
    37    35    32    1
    38    10    11    1
    39    10    13    1
    40   151   154    1
    41    74    72   ar
    42    15    14    1
    43    12    11    2
    44    36    37    1
    45    27    26    1
    46    20    19    2
    47    11    17   am
    48    13    14    1
    49    34    33    2
    50    32    33    1
    51    32    31    1
    52   154   155    1
    53   157   155   ar
    54   157   159   ar
    55    71    70   ar
    56    37    38   ar
    57    37    39   ar
    58    72    70   ar
    59    33    40   am
    60   155   156   ar
    61    17    18    1
    62    19    18    1
    63    19    25   am
    64   159   158   ar
    65    70    69    1
    66    26    25    1
    67    26    29    1
    68    18    21    1
    69   156   158   ar
    70    40    41    1
    71    47    49   ar
    72    47    45   ar
    73    49    48   ar
    74    29    30    1
    75    68    67    2
    76    41    42    1
    77    41    44    1
    78    69    66    1
    79    43    42    2
    80    63    62    1
    81    21    22    1
    82    67    66    1
    83    67    76   am
    84    45    44    1
    85    45    46   ar
    86    65    66    1
    87    65    60   am
    88    48    46   ar
    89    24    22    1
    90    59    62    1
    91    59    60    1
    92    59    58    1
    93    77    76    1
    94    77    78    1
    95    22    23    1
    96    62    64    1
    97    78    79    2
    98    60    61    2
    99    80    81    1
   100    88    89    1
   101     8     6    1
   102   145   144    1
   103   145   146    2
   104    93    95    1
   105    93    92    1
   106    82    81    1
   107    82    83    2
   108    81    84    1
   109    57    55    1
   110   144   143    1
   111   144   147    1
   112    89    92    1
   113    89    90    1
   114   142   139    1
   115    84    85    1
   116   110   109    1
   117    92    94    1
   118     6     5    1
   119     6     7    1
   120   139   140    1
   121   139   138    1
   122   140   141    2
   123   148   147    1
   124    90    91    2
   125   109   106    1
   126   147   149    1
   127    55    54    1
   128   135   134    2
   129     5     2    1
   130   105   106    1
   131    53    52    2
   132   106   107    1
   133    85    86    1
   134    51    54    1
   135    51    52    1
   136    51    50    1
   137   138   134   am
   138    54    56    1
   139   134   133    1
   140    96    97    1
   141     2     3    1
   142     2     1    1
   143     3     4    2
   144    86    87    1
   145   137   136    1
   146   107   108    2
   147   133   136    1
   148   133   132    1
   149    97    98    1
   150    97   100    1
   151   101   100    1
   152   101   102    1
   153    98    99    2
   154   112   111    1
   155   112   113    1
   156   118   117    2
   157   129   127   ar
   158   129   131   ar
   159   127   126   ar
   160   124   123    2
   161   102   104   am
   162   102   103    2
   163   115   113   am
   164   115   116    1
   165   113   114    2
   166   117   121   am
   167   117   116    1
   168   122   123    1
   169   122   121    1
   170   122   125    1
   171   131   130   ar
   172   126   125    1
   173   126   128   ar
   174   116   119    1
   175   130   128   ar
   176   120   119    1
