@<TRIPOS>MOLECULE
tmp/4mr3A00.pdb
 110 107 0 0 0
SMALL
GASTEIGER

@<TRIPOS>ATOM
      1  N         29.7140   30.4990   22.0840 N.3    40  TRP40      -0.1228
      2  CA        28.3640   30.4830   21.5470 C.3    40  TRP40       0.1722
      3  C         27.7960   31.7990   20.9950 C.2    40  TRP40       0.2437
      4  O         27.1270   31.7400   19.9730 O.2    40  TRP40      -0.2733
      5  CB        27.3700   29.8380   22.5280 C.3    40  TRP40       0.0563
      6  CG        27.2910   30.4600   23.8600 C.ar   40  TRP40       0.0003
      7  CD1       28.0930   30.1680   24.9480 C.ar   40  TRP40       0.0946
      8  CD2       26.3840   31.4730   24.3100 C.ar   40  TRP40       0.0152
      9  NE1       27.7670   30.9510   25.9970 N.ar   40  TRP40      -0.2442
     10  CE2       26.7210   31.7610   25.6470 C.ar   40  TRP40       0.0810
     11  CE3       25.3420   32.1920   23.7030 C.ar   40  TRP40       0.0012
     12  CZ2       26.0510   32.7320   26.3880 C.ar   40  TRP40       0.0191
     13  CZ3       24.6580   33.1480   24.4670 C.ar   40  TRP40       0.0001
     14  CH2       25.0160   33.4020   25.7740 C.ar   40  TRP40       0.0015
     15  N         28.0950   32.9640   21.6240 N.am   41  PRO41      -0.2718
     16  CA        27.5290   34.1800   20.9750 C.3    41  PRO41       0.1535
     17  C         28.1520   34.5130   19.6050 C.2    41  PRO41       0.2598
     18  O         27.6150   35.3580   18.8630 O.2    41  PRO41      -0.2715
     19  CB        27.8950   35.2900   21.9680 C.3    41  PRO41       0.0310
     20  CG        28.2140   34.5900   23.2620 C.3    41  PRO41       0.0237
     21  CD        28.8340   33.3010   22.8440 C.3    41  PRO41       0.0939
     22  N         29.2450   33.8460   19.3040 N.am   42  PHE42      -0.1974
     23  CA        30.0610   34.1450   18.1240 C.3    42  PHE42       0.1639
     24  C         29.9980   33.0570   17.0730 C.2    42  PHE42       0.2290
     25  O         30.6880   33.1710   16.0790 O.2    42  PHE42      -0.2864
     26  CB        31.5060   34.4110   18.5620 C.3    42  PHE42       0.0560
     27  CG        31.6050   35.4480   19.6430 C.ar   42  PHE42      -0.0200
     28  CD1       31.5050   36.8050   19.3220 C.ar   42  PHE42      -0.0042
     29  CD2       31.7880   35.1030   20.9510 C.ar   42  PHE42      -0.0042
     30  CE1       31.5610   37.7520   20.3090 C.ar   42  PHE42      -0.0003
     31  CE2       31.8070   36.0630   21.9510 C.ar   42  PHE42      -0.0003
     32  CZ        31.7190   37.3830   21.6230 C.ar   42  PHE42      -0.0000
     33  N         27.5610   32.1970   15.1050 N.3    44  GLN44      -0.1245
     34  CA        26.5690   32.4700   14.0560 C.3    44  GLN44       0.1566
     35  C         26.3920   33.9970   13.9750 C.2    44  GLN44       0.2260
     36  O         26.7240   34.7050   14.9100 O.2    44  GLN44      -0.2867
     37  CB        25.2060   31.8240   14.3950 C.3    44  GLN44       0.0367
     38  CG        24.5670   32.3800   15.6420 C.3    44  GLN44       0.0905
     39  CD        25.2630   31.8970   16.9090 C.2    44  GLN44       0.2608
     40  OE1       25.5340   30.6880   17.0770 O.2    44  GLN44      -0.2717
     41  NE2       25.6490   32.8390   17.7620 N.am   44  GLN44      -0.0878
     42  N         24.8290   37.6040   14.3180 N.3    46  VAL46      -0.1245
     43  CA        23.8710   38.2100   15.2780 C.3    46  VAL46       0.1561
     44  C         22.4690   38.2670   14.6520 C.2    46  VAL46       0.2260
     45  O         22.3110   38.8350   13.5940 O.2    46  VAL46      -0.2867
     46  CB        24.3300   39.6390   15.7290 C.3    46  VAL46       0.0252
     47  CG1       23.2890   40.3280   16.5970 C.3    46  VAL46       0.0019
     48  CG2       25.6590   39.5570   16.4360 C.3    46  VAL46       0.0019
     49  N         16.7550   38.8810   18.6190 N.3    51  LEU51      -0.1245
     50  CA        17.2340   39.5740   19.8200 C.3    51  LEU51       0.1561
     51  C         16.6820   40.9720   20.0150 C.2    51  LEU51       0.2260
     52  O         16.9490   41.6230   21.0420 O.2    51  LEU51      -0.2867
     53  CB        18.7670   39.5980   19.7600 C.3    51  LEU51       0.0270
     54  CG        19.4150   38.2250   19.7790 C.3    51  LEU51       0.0019
     55  CD1       20.9260   38.3730   19.5690 C.3    51  LEU51       0.0001
     56  CD2       19.1150   37.4550   21.0710 C.3    51  LEU51       0.0001
     57  N         17.3220   43.9500   18.1130 N.3    53  LEU53      -0.1245
     58  CA        18.4410   44.8880   18.0720 C.3    53  LEU53       0.1561
     59  C         18.3950   45.7270   16.8180 C.2    53  LEU53       0.2260
     60  O         19.2200   45.6040   15.9000 O.2    53  LEU53      -0.2867
     61  CB        19.7420   44.0930   18.1420 C.3    53  LEU53       0.0270
     62  CG        19.9170   43.1460   19.3150 C.3    53  LEU53       0.0019
     63  CD1       21.1930   42.3510   19.1310 C.3    53  LEU53       0.0001
     64  CD2       19.9250   43.9020   20.6320 C.3    53  LEU53       0.0001
     65  N         21.7020   47.2990   15.5120 N.3    56  TYR56      -0.1241
     66  CA        22.9310   46.5110   15.3790 C.3    56  TYR56       0.1605
     67  C         23.5170   46.6530   13.9890 C.2    56  TYR56       0.2264
     68  O         24.6790   47.0080   13.8500 O.2    56  TYR56      -0.2867
     69  CB        22.7320   45.0210   15.7520 C.3    56  TYR56       0.0534
     70  CG        24.0670   44.2740   15.7280 C.ar   56  TYR56      -0.0201
     71  CD1       24.9020   44.2820   16.8300 C.ar   56  TYR56      -0.0009
     72  CD2       24.5190   43.6420   14.5890 C.ar   56  TYR56      -0.0009
     73  CE1       26.1510   43.6640   16.8110 C.ar   56  TYR56       0.0417
     74  CE2       25.7380   43.0090   14.5590 C.ar   56  TYR56       0.0417
     75  CZ        26.5640   43.0300   15.6550 C.ar   56  TYR56       0.1957
     76  OH        27.8110   42.4090   15.6210 O.3    56  TYR56      -0.2866
     77  N         32.0010   43.4590   18.1450 N.3    95  CYS95      -0.1235
     78  CA        31.5500   43.2900   19.5080 C.3    95  CYS95       0.1677
     79  C         31.9060   44.5360   20.3360 C.2    95  CYS95       0.2270
     80  O         31.0720   45.0670   21.0900 O.2    95  CYS95      -0.2867
     81  CB        32.1280   42.0110   20.0630 C.3    95  CYS95       0.0956
     82  SG        31.5590   41.6120   21.7220 S.3    95  CYS95      -0.0801
     83  N         29.9160   47.9470   19.4460 N.3    98  TYR98      -0.1227
     84  CA        28.4680   47.9060   19.7140 C.3    98  TYR98       0.1736
     85  C         28.1010   47.7520   21.1880 C.2    98  TYR98       0.2595
     86  O         27.2230   48.4620   21.6780 O.2    98  TYR98      -0.2718
     87  CB        27.7870   46.7980   18.8800 C.3    98  TYR98       0.0548
     88  CG        26.3050   46.7330   19.1320 C.ar   98  TYR98      -0.0200
     89  CD1       25.4390   47.6040   18.4770 C.ar   98  TYR98      -0.0009
     90  CD2       25.7770   45.8730   20.0500 C.ar   98  TYR98      -0.0009
     91  CE1       24.0860   47.5890   18.7240 C.ar   98  TYR98       0.0417
     92  CE2       24.4110   45.8230   20.3120 C.ar   98  TYR98       0.0417
     93  CZ        23.5580   46.6930   19.6560 C.ar   98  TYR98       0.1957
     94  OH        22.1990   46.7100   19.9490 O.3    98  TYR98      -0.2866
     95  N         28.7540   46.8200   21.8780 N.am   99  ASN99      -0.1974
     96  CA        28.3370   46.4140   23.2060 C.3    99  ASN99       0.1688
     97  C         28.9110   47.3160   24.2650 C.2    99  ASN99       0.2292
     98  O         30.0290   47.8150   24.1070 O.2    99  ASN99      -0.2864
     99  CB        28.7140   44.9870   23.4740 C.3    99  ASN99       0.1181
    100  CG        27.8370   44.0480   22.7050 C.2    99  ASN99       0.2629
    101  OD1       26.6550   43.8720   23.0140 O.2    99  ASN99      -0.2716
    102  ND2       28.3980   43.4720   21.6430 N.am   99  ASN99      -0.0877
    103  N         29.1340   39.9900   27.3210 N.3   105  ILE105     -0.1245
    104  CA        29.5470   39.5940   25.9850 C.3   105  ILE105      0.1561
    105  C         30.9390   40.1210   25.6500 C.2   105  ILE105      0.2260
    106  O         31.7400   39.4320   24.9870 O.2   105  ILE105     -0.2867
    107  CB        28.5420   39.9900   24.9320 C.3   105  ILE105      0.0252
    108  CG1       28.9110   39.3030   23.6350 C.3   105  ILE105      0.0019
    109  CG2       28.4900   41.5090   24.7720 C.3   105  ILE105      0.0019
    110  CD1       27.8800   39.4600   22.6040 C.3   105  ILE105      0.0001
@<TRIPOS>BOND
     1    45    44    2
     2    68    67    2
     3    35    34    1
     4    35    36    2
     5    67    66    1
     6    34    37    1
     7    34    33    1
     8    42    43    1
     9    37    38    1
    10    74    72   ar
    11    74    75   ar
    12    72    70   ar
    13    44    43    1
    14    43    46    1
    15    66    65    1
    16    66    69    1
    17    76    75    1
    18    38    39    1
    19    75    73   ar
    20    70    69    1
    21    70    71   ar
    22    46    48    1
    23    46    47    1
    24    60    59    2
    25    25    24    2
    26    73    71   ar
    27    59    58    1
    28    39    40    2
    29    39    41   am
    30    24    23    1
    31    58    57    1
    32    58    61    1
    33    23    26    1
    34    23    22    1
    35    61    62    1
    36    77    78    1
    37    89    91   ar
    38    89    88   ar
    39    26    27    1
    40    49    50    1
    41    91    93   ar
    42    18    17    2
    43    87    88    1
    44    87    84    1
    45    63    62    1
    46    88    90   ar
    47    22    17   am
    48    62    64    1
    49    28    27   ar
    50    28    30   ar
    51    83    84    1
    52    78    81    1
    53    78    79    1
    54    55    54    1
    55    17    16    1
    56    27    29   ar
    57    93    94    1
    58    93    92   ar
    59    84    85    1
    60    53    54    1
    61    53    50    1
    62    54    56    1
    63    50    51    1
    64     4     3    2
    65    51    52    2
    66    90    92   ar
    67    81    82    1
    68    30    32   ar
    69    79    80    2
    70    29    31   ar
    71    16    15    1
    72    16    19    1
    73     3     2    1
    74     3    15   am
    75    85    86    2
    76    85    95   am
    77     2     1    1
    78     2     5    1
    79    32    31   ar
    80    15    21    1
    81   102   100   am
    82    95    96    1
    83    19    20    1
    84     5     6    1
    85   110   108    1
    86   100   101    2
    87   100    99    1
    88    21    20    1
    89    96    99    1
    90    96    97    1
    91   108   107    1
    92    11     8   ar
    93    11    13   ar
    94     6     8   ar
    95     6     7   ar
    96    98    97    2
    97     8    10   ar
    98    13    14   ar
    99   109   107    1
   100   107   104    1
   101     7     9   ar
   102   106   105    2
   103    10     9   ar
   104    10    12   ar
   105   105   104    1
   106    14    12   ar
   107   104   103    1
