@<TRIPOS>MOLECULE
tmp/4mr4A00.pdb
 142 137 0 0 0
SMALL
GASTEIGER

@<TRIPOS>ATOM
      1  N         22.8340   21.9680    1.0440 N.3    40  TRP40      -0.1228
      2  CA        22.6900   20.5520    1.5290 C.3    40  TRP40       0.1722
      3  C         23.9650   19.7410    1.7400 C.2    40  TRP40       0.2437
      4  O         24.0180   19.0570    2.7360 O.2    40  TRP40      -0.2733
      5  CB        21.6170   19.7960    0.7210 C.3    40  TRP40       0.0563
      6  CG        21.9290   19.6500   -0.7530 C.ar   40  TRP40       0.0003
      7  CD1       21.6480   20.5540   -1.7560 C.ar   40  TRP40       0.0946
      8  CD2       22.6120   18.5640   -1.4080 C.ar   40  TRP40       0.0152
      9  NE1       22.1120   20.0720   -2.9640 N.ar   40  TRP40      -0.2442
     10  CE2       22.6900   18.9040   -2.8070 C.ar   40  TRP40       0.0810
     11  CE3       23.1720   17.3420   -0.9690 C.ar   40  TRP40       0.0012
     12  CZ2       23.3020   18.0630   -3.7350 C.ar   40  TRP40       0.0191
     13  CZ3       23.7820   16.5210   -1.8970 C.ar   40  TRP40       0.0001
     14  CH2       23.8600   16.8700   -3.2430 C.ar   40  TRP40       0.0015
     15  N         24.9960   19.8020    0.8560 N.am   41  PRO41      -0.2718
     16  CA        26.1830   18.9420    1.1240 C.3    41  PRO41       0.1535
     17  C         26.9740   19.3460    2.3610 C.2    41  PRO41       0.2598
     18  O         27.7600   18.5450    2.8770 O.2    41  PRO41      -0.2715
     19  CB        27.0570   19.1630   -0.0990 C.3    41  PRO41       0.0310
     20  CG        26.1610   19.6580   -1.1440 C.3    41  PRO41       0.0237
     21  CD        25.1640   20.4990   -0.4320 C.3    41  PRO41       0.0939
     22  N         26.7010   20.5680    2.8450 N.am   42  PHE42      -0.1974
     23  CA        27.4260   21.2470    3.9050 C.3    42  PHE42       0.1639
     24  C         26.6390   21.2840    5.2210 C.2    42  PHE42       0.2290
     25  O         27.1200   21.8860    6.2130 O.2    42  PHE42      -0.2864
     26  CB        27.7950   22.6770    3.4540 C.3    42  PHE42       0.0560
     27  CG        28.6280   22.7020    2.2020 C.ar   42  PHE42      -0.0200
     28  CD1       30.0040   22.4420    2.2460 C.ar   42  PHE42      -0.0042
     29  CD2       28.0470   22.8570    0.9720 C.ar   42  PHE42      -0.0042
     30  CE1       30.7630   22.3680    1.0930 C.ar   42  PHE42      -0.0003
     31  CE2       28.8300   22.8160   -0.1600 C.ar   42  PHE42      -0.0003
     32  CZ        30.1700   22.5870   -0.1120 C.ar   42  PHE42      -0.0000
     33  N         25.8390   18.8920    7.3660 N.3    44  GLN44      -0.1245
     34  CA        26.2250   17.8190    8.3360 C.3    44  GLN44       0.1566
     35  C         27.6310   17.4000    7.9840 C.2    44  GLN44       0.2260
     36  O         28.0700   17.6450    6.8460 O.2    44  GLN44      -0.2867
     37  CB        25.2530   16.6290    8.2630 C.3    44  GLN44       0.0367
     38  CG        25.0450   15.9760    6.8980 C.3    44  GLN44       0.0905
     39  CD        24.2340   16.8410    5.9210 C.2    44  GLN44       0.2608
     40  OE1       23.1270   17.3210    6.2460 O.2    44  GLN44      -0.2717
     41  NE2       24.8130   17.1020    4.7520 N.am   44  GLN44      -0.0878
     42  N         30.7380   15.3570    6.6200 N.3    46  VAL46      -0.1245
     43  CA        30.9250   14.4400    5.4960 C.3    46  VAL46       0.1561
     44  C         30.9010   12.9920    5.9740 C.2    46  VAL46       0.2260
     45  O         31.7080   12.5810    6.8130 O.2    46  VAL46      -0.2867
     46  CB        32.2330   14.7600    4.7700 C.3    46  VAL46       0.0252
     47  CG1       32.5240   13.6990    3.7050 C.3    46  VAL46       0.0019
     48  CG2       32.1860   16.1320    4.0730 C.3    46  VAL46       0.0019
     49  N         29.3080    8.0730    1.2190 N.3    51  LEU51      -0.1231
     50  CA        29.7870    8.7000   -0.0070 C.3    51  LEU51       0.1693
     51  C         30.9600    7.9430   -0.6770 C.2    51  LEU51       0.2592
     52  O         31.4150    8.2880   -1.7770 O.2    51  LEU51      -0.2718
     53  CB        30.1630   10.1550    0.2880 C.3    51  LEU51       0.0284
     54  CG        29.0010   11.0500    0.7220 C.3    51  LEU51       0.0019
     55  CD1       29.5300   12.3850    1.2510 C.3    51  LEU51       0.0001
     56  CD2       27.9580   11.2960   -0.4180 C.3    51  LEU51       0.0001
     57  N         31.4380    6.9000   -0.0220 N.am   52  ASN52      -0.1960
     58  CA        32.5590    6.1020   -0.5330 C.3    52  ASN52       0.1819
     59  C         33.7430    6.9870   -0.8580 C.2    52  ASN52       0.2621
     60  O         34.2280    6.9760   -1.9870 O.2    52  ASN52      -0.2715
     61  CB        32.1790    5.2550   -1.7470 C.3    52  ASN52       0.1195
     62  CG        33.2810    4.2820   -2.1250 C.2    52  ASN52       0.2630
     63  OD1       34.0450    3.8200   -1.2610 O.2    52  ASN52      -0.2716
     64  ND2       33.3770    3.9760   -3.4170 N.am   52  ASN52      -0.0877
     65  N         34.1680    7.7610    0.1460 N.am   53  LEU53      -0.1977
     66  CA        35.3900    8.5810    0.0790 C.3    53  LEU53       0.1596
     67  C         36.3840    8.1700    1.1850 C.2    53  LEU53       0.2287
     68  O         36.6430    8.9390    2.1090 O.2    53  LEU53      -0.2864
     69  CB        35.0200   10.0440    0.2330 C.3    53  LEU53       0.0297
     70  CG        33.9820   10.5650   -0.7420 C.3    53  LEU53       0.0022
     71  CD1       33.5910   11.9720   -0.2600 C.3    53  LEU53       0.0001
     72  CD2       34.3640   10.4780   -2.2050 C.3    53  LEU53       0.0001
     73  N         39.0060   10.5570    2.5520 N.3    56  TYR56      -0.1241
     74  CA        38.5840   11.8950    2.9610 C.3    56  TYR56       0.1605
     75  C         39.2450   12.3580    4.2540 C.2    56  TYR56       0.2264
     76  O         39.8320   13.4750    4.3300 O.2    56  TYR56      -0.2867
     77  CB        37.0450   12.0200    3.0480 C.3    56  TYR56       0.0534
     78  CG        36.5960   13.4730    3.2520 C.ar   56  TYR56      -0.0201
     79  CD1       36.4140   13.9960    4.5450 C.ar   56  TYR56      -0.0009
     80  CD2       36.4380   14.3790    2.1600 C.ar   56  TYR56      -0.0009
     81  CE1       36.0790   15.3210    4.7490 C.ar   56  TYR56       0.0417
     82  CE2       36.1130   15.7100    2.3610 C.ar   56  TYR56       0.0417
     83  CZ        35.9210   16.1980    3.6440 C.ar   56  TYR56       0.1957
     84  OH        35.6050   17.5300    3.8470 O.3    56  TYR56      -0.2866
     85  N         35.0250   20.3620    9.1400 N.3    64  MET64      -0.1245
     86  CA        33.9920   21.2840    9.6160 C.3    64  MET64       0.1570
     87  C         32.8290   21.3750    8.6330 C.2    64  MET64       0.2261
     88  O         32.9840   21.1530    7.4440 O.2    64  MET64      -0.2867
     89  CB        34.5990   22.6700    9.8930 C.3    64  MET64       0.0387
     90  CG        33.7290   23.7260   10.5730 C.3    64  MET64       0.0595
     91  SD        32.9740   23.1340   12.0880 S.3    64  MET64      -0.1393
     92  CE        34.3600   22.6900   13.1710 C.3    64  MET64       0.0692
     93  N         35.6020   24.9830    6.6880 N.3    91  MET91      -0.1245
     94  CA        34.6980   24.2610    5.8140 C.3    91  MET91       0.1570
     95  C         34.9880   24.4920    4.3560 C.2    91  MET91       0.2261
     96  O         35.1080   23.5120    3.5910 O.2    91  MET91      -0.2867
     97  CB        33.2550   24.6480    6.1360 C.3    91  MET91       0.0387
     98  CG        32.2110   23.8720    5.3840 C.3    91  MET91       0.0595
     99  SD        30.5560   24.4250    5.7790 S.3    91  MET91      -0.1393
    100  CE        30.5190   26.0550    4.9290 C.3    91  MET91       0.0692
    101  N         36.9480   21.8300    1.4280 N.3    95  CYS95      -0.1235
    102  CA        36.3220   21.5080    0.1450 C.3    95  CYS95       0.1677
    103  C         37.3100   21.7160   -1.0040 C.2    95  CYS95       0.2270
    104  O         37.4380   20.8910   -1.8900 O.2    95  CYS95      -0.2867
    105  CB        35.0260   22.3070   -0.0370 C.3    95  CYS95       0.0956
    106  SG        34.1100   21.8750   -1.5190 S.3    95  CYS95      -0.0801
    107  N         40.2440   19.1000   -0.7960 N.3    98  TYR98      -0.1227
    108  CA        39.9400   17.7030   -1.1460 C.3    98  TYR98       0.1736
    109  C         39.6040   17.4890   -2.6460 C.2    98  TYR98       0.2595
    110  O         39.9940   16.4630   -3.2570 O.2    98  TYR98      -0.2718
    111  CB        38.8330   17.1290   -0.2630 C.3    98  TYR98       0.0548
    112  CG        38.5770   15.6650   -0.5130 C.ar   98  TYR98      -0.0200
    113  CD1       39.4930   14.6640   -0.1040 C.ar   98  TYR98      -0.0009
    114  CD2       37.4580   15.2510   -1.2020 C.ar   98  TYR98      -0.0009
    115  CE1       39.2500   13.3330   -0.3650 C.ar   98  TYR98       0.0417
    116  CE2       37.2180   13.9290   -1.4550 C.ar   98  TYR98       0.0417
    117  CZ        38.1080   12.9530   -1.0250 C.ar   98  TYR98       0.1957
    118  OH        37.9300   11.6170   -1.3170 O.3    98  TYR98      -0.2866
    119  N         38.8900   18.4460   -3.2240 N.am   99  ASN99      -0.1974
    120  CA        38.2970   18.3300   -4.5470 C.3    99  ASN99       0.1688
    121  C         39.0730   18.9950   -5.6610 C.2    99  ASN99       0.2292
    122  O         40.1630   19.4250   -5.4410 O.2    99  ASN99      -0.2864
    123  CB        36.8680   18.8570   -4.4720 C.3    99  ASN99       0.1181
    124  CG        36.0220   18.0460   -3.5030 C.2    99  ASN99       0.2629
    125  OD1       35.6120   16.9040   -3.8070 O.2    99  ASN99      -0.2716
    126  ND2       35.7980   18.6030   -2.2940 N.am   99  ASN99      -0.0877
    127  N         34.7300   21.0770  -10.1010 N.3   103  ASP103     -0.1239
    128  CA        33.7920   20.0470   -9.6260 C.3   103  ASP103      0.1674
    129  C         32.5560   20.7310   -9.0970 C.2   103  ASP103      0.2266
    130  O         32.6780   21.7990   -8.5240 O.2   103  ASP103     -0.2867
    131  CB        34.3640   19.2500   -8.4760 C.3   103  ASP103      0.1410
    132  CG        35.4150   18.2640   -8.8880 C.2   103  ASP103      0.3668
    133  OD1       35.5040   17.9340  -10.1040 O.co2 103  ASP103     -0.2456
    134  OD2       36.1530   17.8060   -7.9490 O.co2 103  ASP103     -0.2456
    135  N         30.9030   20.2000   -6.3170 N.3   105  ILE105     -0.1245
    136  CA        30.9520   20.5650   -4.8950 C.3   105  ILE105      0.1561
    137  C         31.7450   21.8770   -4.6660 C.2   105  ILE105      0.2260
    138  O         31.4470   22.6310   -3.7670 O.2   105  ILE105     -0.2867
    139  CB        31.4720   19.4140   -4.0300 C.3   105  ILE105      0.0252
    140  CG1       31.1900   19.6730   -2.5450 C.3   105  ILE105      0.0019
    141  CG2       32.9460   19.1000   -4.2990 C.3   105  ILE105      0.0019
    142  CD1       29.7310   19.4620   -2.1300 C.3   105  ILE105      0.0001
@<TRIPOS>BOND
     1   133   132   ar
     2   127   128    1
     3   128   129    1
     4   128   131    1
     5   129   130    2
     6   132   131    1
     7   132   134   ar
     8   135   136    1
     9   121   122    2
    10   121   120    1
    11   136   137    1
    12   136   139    1
    13   137   138    2
    14   120   123    1
    15   120   119    1
    16   123   124    1
    17   141   139    1
    18   139   140    1
    19   125   124    2
    20    12    14   ar
    21    12    10   ar
    22   124   126   am
    23    64    62   am
    24   110   109    2
    25    14    13   ar
    26   119   109   am
    27     9    10   ar
    28     9     7   ar
    29    10     8   ar
    30   109   108    1
    31   140   142    1
    32    72    70    1
    33    62    61    1
    34    62    63    2
    35    60    59    2
    36    13    11   ar
    37   104   103    2
    38    52    51    2
    39     7     6   ar
    40    61    58    1
    41   106   105    1
    42   116   114   ar
    43   116   117   ar
    44     8    11   ar
    45     8     6   ar
    46   118   117    1
    47   114   112   ar
    48   108   107    1
    49   108   111    1
    50    20    21    1
    51    20    19    1
    52   117   115   ar
    53   103   102    1
    54    59    58    1
    55    59    65   am
    56     6     5    1
    57    70    71    1
    58    70    69    1
    59    51    57   am
    60    51    50    1
    61    58    57    1
    62   112   111    1
    63   112   113   ar
    64    21    15    1
    65    56    54    1
    66   115   113   ar
    67    31    32   ar
    68    31    29   ar
    69    32    30   ar
    70    19    16    1
    71   105   102    1
    72    50    53    1
    73    50    49    1
    74    66    65    1
    75    66    69    1
    76    66    67    1
    77   102   101    1
    78    53    54    1
    79     5     2    1
    80    54    55    1
    81    15    16    1
    82    15     3   am
    83    29    27   ar
    84     1     2    1
    85    30    28   ar
    86    16    17    1
    87    67    68    2
    88     2     3    1
    89     3     4    2
    90    80    82   ar
    91    80    78   ar
    92    27    28   ar
    93    27    26    1
    94    17    22   am
    95    17    18    2
    96    82    83   ar
    97    73    74    1
    98    22    23    1
    99    74    77    1
   100    74    75    1
   101    77    78    1
   102    78    79   ar
   103    26    23    1
   104    96    95    2
   105    83    84    1
   106    83    81   ar
   107    47    46    1
   108    23    24    1
   109    48    46    1
   110    75    76    2
   111    95    94    1
   112    79    81   ar
   113    41    39   am
   114    46    43    1
   115   100    99    1
   116    24    25    2
   117    98    99    1
   118    98    97    1
   119    43    44    1
   120    43    42    1
   121    94    97    1
   122    94    93    1
   123    39    40    2
   124    39    38    1
   125    44    45    2
   126    36    35    2
   127    38    37    1
   128    33    34    1
   129    88    87    2
   130    35    34    1
   131    37    34    1
   132    87    86    1
   133    85    86    1
   134    86    89    1
   135    89    90    1
   136    90    91    1
   137    91    92    1
