@<TRIPOS>MOLECULE
tmp/4mr5A00.pdb
 133 130 0 0 0
SMALL
GASTEIGER

@<TRIPOS>ATOM
      1  N         42.1570    4.4610   25.2270 N.3    25  TRP25      -0.1228
      2  CA        43.5410    4.1980   24.7680 C.3    25  TRP25       0.1722
      3  C         43.7880    2.8440   24.0700 C.2    25  TRP25       0.2437
      4  O         44.6080    2.8060   23.1110 O.2    25  TRP25      -0.2733
      5  CB        44.5820    4.5200   25.8590 C.3    25  TRP25       0.0563
      6  CG        44.5960    3.5610   26.9720 C.ar   25  TRP25       0.0003
      7  CD1       43.9630    3.6920   28.2000 C.ar   25  TRP25       0.0946
      8  CD2       45.2450    2.2800   26.9990 C.ar   25  TRP25       0.0152
      9  NE1       44.1640    2.5690   28.9570 N.ar   25  TRP25      -0.2442
     10  CE2       44.9660    1.7010   28.2500 C.ar   25  TRP25       0.0810
     11  CE3       46.0390    1.5610   26.0750 C.ar   25  TRP25       0.0012
     12  CZ2       45.4440    0.4450   28.6200 C.ar   25  TRP25       0.0191
     13  CZ3       46.5460    0.3390   26.4690 C.ar   25  TRP25       0.0001
     14  CH2       46.2090   -0.2260   27.7080 C.ar   25  TRP25       0.0015
     15  N         43.1210    1.7570   24.5000 N.am   26  PRO26      -0.2718
     16  CA        43.3570    0.4770   23.7980 C.3    26  PRO26       0.1535
     17  C         42.9020    0.5010   22.3500 C.2    26  PRO26       0.2598
     18  O         43.3030   -0.3700   21.5840 O.2    26  PRO26      -0.2715
     19  CB        42.5530   -0.5300   24.5880 C.3    26  PRO26       0.0310
     20  CG        42.4030    0.0810   25.9500 C.3    26  PRO26       0.0237
     21  CD        42.2260    1.5500   25.6580 C.3    26  PRO26       0.0939
     22  N         42.0550    1.4680   21.9940 N.am   27  PHE27      -0.1974
     23  CA        41.4960    1.6200   20.6410 C.3    27  PHE27       0.1639
     24  C         42.2550    2.5840   19.7610 C.2    27  PHE27       0.2290
     25  O         41.8930    2.7750   18.5910 O.2    27  PHE27      -0.2864
     26  CB        40.0060    1.9900   20.7410 C.3    27  PHE27       0.0560
     27  CG        39.2520    1.0340   21.5970 C.ar   27  PHE27      -0.0200
     28  CD1       38.9040   -0.2210   21.1290 C.ar   27  PHE27      -0.0042
     29  CD2       39.0270    1.3120   22.9550 C.ar   27  PHE27      -0.0042
     30  CE1       38.2620   -1.1170   21.9650 C.ar   27  PHE27      -0.0003
     31  CE2       38.4150    0.3820   23.8090 C.ar   27  PHE27      -0.0003
     32  CZ        38.0750   -0.8680   23.3010 C.ar   27  PHE27      -0.0000
     33  N         45.3930   -3.5390   17.2480 N.3    31  VAL31      -0.1245
     34  CA        45.7590   -4.5510   18.1830 C.3    31  VAL31       0.1561
     35  C         47.0280   -5.2180   17.6880 C.2    31  VAL31       0.2260
     36  O         47.0710   -5.7140   16.5670 O.2    31  VAL31      -0.2867
     37  CB        44.6540   -5.6030   18.3550 C.3    31  VAL31       0.0252
     38  CG1       45.1120   -6.7490   19.2410 C.3    31  VAL31       0.0019
     39  CG2       43.4130   -4.9670   18.9430 C.3    31  VAL31       0.0019
     40  N         51.0650   -8.8180   22.2440 N.3    36  LEU36      -0.1245
     41  CA        50.2480   -9.1330   23.3900 C.3    36  LEU36       0.1561
     42  C         50.1270  -10.6350   23.6870 C.2    36  LEU36       0.2260
     43  O         49.4970  -10.9970   24.6490 O.2    36  LEU36      -0.2867
     44  CB        48.8230   -8.5980   23.1580 C.3    36  LEU36       0.0270
     45  CG        48.7590   -7.0620   23.1620 C.3    36  LEU36       0.0019
     46  CD1       47.4490   -6.6170   22.5560 C.3    36  LEU36       0.0001
     47  CD2       48.9250   -6.5110   24.5710 C.3    36  LEU36       0.0001
     48  N         48.4470  -12.7520   21.7210 N.3    38  LEU38      -0.1245
     49  CA        47.0810  -13.1390   21.3290 C.3    38  LEU38       0.1561
     50  C         47.1790  -13.8560   19.9710 C.2    38  LEU38       0.2260
     51  O         46.7790  -13.3600   18.9240 O.2    38  LEU38      -0.2867
     52  CB        46.1900  -11.8850   21.2290 C.3    38  LEU38       0.0270
     53  CG        46.1500  -11.0170   22.4720 C.3    38  LEU38       0.0019
     54  CD1       45.1880   -9.8510   22.2380 C.3    38  LEU38       0.0001
     55  CD2       45.7730  -11.8030   23.6980 C.3    38  LEU38       0.0001
     56  N         44.1630  -14.1710   17.6570 N.3    41  TYR41      -0.1241
     57  CA        43.3600  -12.9550   17.3890 C.3    41  TYR41       0.1605
     58  C         42.9360  -12.8540   15.9080 C.2    41  TYR41       0.2264
     59  O         41.7740  -12.6220   15.5880 O.2    41  TYR41      -0.2867
     60  CB        44.1320  -11.6970   17.7640 C.3    41  TYR41       0.0534
     61  CG        43.2490  -10.4340   17.7660 C.ar   41  TYR41      -0.0201
     62  CD1       43.2230   -9.5820   16.6660 C.ar   41  TYR41      -0.0009
     63  CD2       42.4300  -10.1560   18.8360 C.ar   41  TYR41      -0.0009
     64  CE1       42.3990   -8.4580   16.6570 C.ar   41  TYR41       0.0417
     65  CE2       41.6040   -9.0450   18.8320 C.ar   41  TYR41       0.0417
     66  CZ        41.6120   -8.2020   17.7420 C.ar   41  TYR41       0.1957
     67  OH        40.7710   -7.1260   17.7160 O.3    41  TYR41      -0.2866
     68  N         40.0260   -3.3580   13.2130 N.3    49  MET49      -0.1245
     69  CA        39.7530   -1.9310   13.0840 C.3    49  MET49       0.1570
     70  C         40.1320   -1.2080   14.3720 C.2    49  MET49       0.2261
     71  O         40.0470   -1.7980   15.4560 O.2    49  MET49      -0.2867
     72  CB        38.2730   -1.7220   12.7440 C.3    49  MET49       0.0387
     73  CG        37.8660   -0.2810   12.4020 C.3    49  MET49       0.0595
     74  SD        38.9050    0.5450   11.1220 S.3    49  MET49      -0.1393
     75  CE        38.6450   -0.6070    9.7860 C.3    49  MET49       0.0692
     76  N         35.0590   -1.9890   15.0900 N.3    76  MET76      -0.1245
     77  CA        36.0830   -1.9660   16.1520 C.3    76  MET76       0.1570
     78  C         35.5480   -2.4820   17.5080 C.2    76  MET76       0.2261
     79  O         36.1590   -3.3450   18.1710 O.2    76  MET76      -0.2867
     80  CB        36.6380   -0.5210   16.2530 C.3    76  MET76       0.0387
     81  CG        37.6170   -0.3070   17.3400 C.3    76  MET76       0.0595
     82  SD        38.0340    1.4440   17.5050 S.3    76  MET76      -0.1393
     83  CE        36.6150    2.0650   18.3890 C.3    76  MET76       0.0692
     84  N         36.0720   -6.3880   19.6330 N.3    80  CYS80      -0.1235
     85  CA        36.3880   -6.4740   21.0440 C.3    80  CYS80       0.1677
     86  C         35.4130   -7.4360   21.7580 C.2    80  CYS80       0.2270
     87  O         35.8170   -8.3100   22.5300 O.2    80  CYS80      -0.2867
     88  CB        36.4020   -5.0580   21.6340 C.3    80  CYS80       0.0956
     89  SG        37.0370   -4.9550   23.3210 S.3    80  CYS80      -0.0801
     90  N         36.1210  -11.2230   20.4820 N.3    83  TYR83      -0.1227
     91  CA        37.3680  -11.8890   20.8650 C.3    83  TYR83       0.1736
     92  C         37.4410  -12.1970   22.3720 C.2    83  TYR83       0.2595
     93  O         37.9050  -13.2660   22.8060 O.2    83  TYR83      -0.2718
     94  CB        38.5840  -11.0460   20.4400 C.3    83  TYR83       0.0548
     95  CG        39.8790  -11.7320   20.8320 C.ar   83  TYR83      -0.0200
     96  CD1       40.5770  -11.3760   21.9690 C.ar   83  TYR83      -0.0009
     97  CD2       40.3080  -12.8360   20.1280 C.ar   83  TYR83      -0.0009
     98  CE1       41.7110  -12.0540   22.3540 C.ar   83  TYR83       0.0417
     99  CE2       41.4470  -13.5370   20.5110 C.ar   83  TYR83       0.0417
    100  CZ        42.1090  -13.1690   21.6470 C.ar   83  TYR83       0.1957
    101  OH        43.2480  -13.8510   22.0300 O.3    83  TYR83      -0.2866
    102  N         37.0270  -11.2300   23.1870 N.am   84  ASN84      -0.1961
    103  CA        37.3640  -11.2260   24.6310 C.3    84  ASN84       0.1804
    104  C         36.2990  -11.8470   25.5020 C.2    84  ASN84       0.2463
    105  O         35.1100  -11.7870   25.1990 O.2    84  ASN84      -0.2730
    106  CB        37.5670   -9.7830   25.0840 C.3    84  ASN84       0.1195
    107  CG        38.7620   -9.1810   24.4510 C.2    84  ASN84       0.2630
    108  OD1       39.8690   -9.5270   24.7960 O.2    84  ASN84      -0.2716
    109  ND2       38.5590   -8.3240   23.4620 N.am   84  ASN84      -0.0877
    110  N         36.7370  -12.4710   26.6100 N.am   85  PRO85      -0.2727
    111  CA        35.7530  -12.8320   27.6140 C.3    85  PRO85       0.1402
    112  C         35.0050  -11.6010   28.0500 C.2    85  PRO85       0.2269
    113  O         35.6040  -10.5200   28.1330 O.2    85  PRO85      -0.2865
    114  CB        36.5970  -13.3750   28.7630 C.3    85  PRO85       0.0296
    115  CG        37.9550  -13.5480   28.2410 C.3    85  PRO85       0.0237
    116  CD        38.1220  -12.6820   27.0390 C.3    85  PRO85       0.0939
    117  N         36.4750   -9.0710   30.7000 N.3    88  HIS88      -0.1241
    118  CA        37.7970   -8.4830   30.5370 C.3    88  HIS88       0.1621
    119  C         37.6750   -6.9800   30.6630 C.2    88  HIS88       0.2264
    120  O         36.6640   -6.3690   30.2780 O.2    88  HIS88      -0.2867
    121  CB        38.4110   -8.9020   29.1840 C.3    88  HIS88       0.0745
    122  CG        39.8880   -8.6940   29.0810 C.ar   88  HIS88       0.0817
    123  ND1       40.4730   -7.4470   28.9770 N.ar   88  HIS88      -0.2268
    124  CD2       40.9110   -9.5840   29.1060 C.ar   88  HIS88       0.1154
    125  CE1       41.7810   -7.5800   28.8650 C.ar   88  HIS88       0.1986
    126  NE2       42.0760   -8.8670   28.9670 N.ar   88  HIS88      -0.2212
    127  N         39.0590   -4.7780   28.9910 N.3    90  VAL90      -0.1245
    128  CA        39.0170   -4.0810   27.6780 C.3    90  VAL90       0.1561
    129  C         37.5540   -3.9770   27.1960 C.2    90  VAL90       0.2260
    130  O         37.1720   -3.0500   26.4720 O.2    90  VAL90      -0.2867
    131  CB        39.9550   -4.6980   26.6160 C.3    90  VAL90       0.0252
    132  CG1       39.4870   -6.0470   26.1210 C.3    90  VAL90       0.0019
    133  CG2       40.2200   -3.6990   25.4610 C.3    90  VAL90       0.0019
@<TRIPOS>BOND
     1    75    74    1
     2    74    73    1
     3    73    72    1
     4    72    69    1
     5    69    68    1
     6    69    70    1
     7    70    71    2
     8    76    77    1
     9    59    58    2
    10    58    57    1
    11    77    80    1
    12    77    78    1
    13    80    81    1
    14    36    35    2
    15    64    62   ar
    16    64    66   ar
    17    62    61   ar
    18    33    34    1
    19    81    82    1
    20    57    56    1
    21    57    60    1
    22    82    83    1
    23    78    79    2
    24    35    34    1
    25    67    66    1
    26    66    65   ar
    27    60    61    1
    28    61    63   ar
    29    34    37    1
    30    37    39    1
    31    37    38    1
    32    25    24    2
    33    65    63   ar
    34    51    50    2
    35    84    85    1
    36    24    23    1
    37    50    49    1
    38    97    99   ar
    39    97    95   ar
    40    94    95    1
    41    94    91    1
    42    90    91    1
    43    99   100   ar
    44    23    26    1
    45    23    22    1
    46    26    27    1
    47    95    96   ar
    48    91    92    1
    49    85    88    1
    50    85    86    1
    51    28    27   ar
    52    28    30   ar
    53    52    49    1
    54    52    53    1
    55    49    48    1
    56    18    17    2
    57    27    29   ar
    58    88    89    1
    59   100   101    1
    60   100    98   ar
    61    86    87    2
    62    30    32   ar
    63    96    98   ar
    64    22    17   am
    65    54    53    1
    66    40    41    1
    67    17    16    1
    68    92    93    2
    69    92   102   am
    70    53    55    1
    71    46    45    1
    72    29    31   ar
    73     4     3    2
    74    44    45    1
    75    44    41    1
    76    45    47    1
    77   102   103    1
    78    32    31   ar
    79    41    42    1
    80   109   107   am
    81    42    43    2
    82    16    15    1
    83    16    19    1
    84     3    15   am
    85     3     2    1
    86   107   108    2
    87   107   106    1
    88    15    21    1
    89    19    20    1
    90   103   106    1
    91   103   104    1
    92     2     1    1
    93     2     5    1
    94   105   104    2
    95   133   131    1
    96   104   110   am
    97    21    20    1
    98     5     6    1
    99    11    13   ar
   100    11     8   ar
   101   132   131    1
   102    13    14   ar
   103   130   129    2
   104   110   116    1
   105   110   111    1
   106   131   128    1
   107     6     8   ar
   108     6     7   ar
   109     8    10   ar
   110   116   115    1
   111   129   128    1
   112   111   112    1
   113   111   114    1
   114   128   127    1
   115    14    12   ar
   116   112   113    2
   117     7     9   ar
   118   115   114    1
   119    10    12   ar
   120    10     9   ar
   121   125   126   ar
   122   125   123   ar
   123   126   124   ar
   124   123   122   ar
   125   122   124   ar
   126   122   121    1
   127   121   118    1
   128   120   119    2
   129   118   119    1
   130   118   117    1
