@<TRIPOS>MOLECULE
tmp/4mr6A00.pdb
 133 130 0 0 0
SMALL
GASTEIGER

@<TRIPOS>ATOM
      1  N         -9.3570   42.4710   31.6700 N.3    25  TRP25      -0.1228
      2  CA        -8.8520   43.8310   31.9300 C.3    25  TRP25       0.1722
      3  C         -8.1410   44.0850   33.2390 C.2    25  TRP25       0.2437
      4  O         -7.1890   44.8770   33.2440 O.2    25  TRP25      -0.2733
      5  CB        -9.9050   44.9020   31.6220 C.3    25  TRP25       0.0563
      6  CG       -11.0610   44.9170   32.5830 C.ar   25  TRP25       0.0003
      7  CD1      -12.3140   44.2830   32.4690 C.ar   25  TRP25       0.0946
      8  CD2      -11.1090   45.6130   33.8730 C.ar   25  TRP25       0.0152
      9  NE1      -13.0780   44.5200   33.5890 N.ar   25  TRP25      -0.2442
     10  CE2      -12.4120   45.3190   34.4590 C.ar   25  TRP25       0.0810
     11  CE3      -10.2080   46.4080   34.5890 C.ar   25  TRP25       0.0012
     12  CZ2      -12.7870   45.8200   35.7130 C.ar   25  TRP25       0.0191
     13  CZ3      -10.6000   46.9060   35.8320 C.ar   25  TRP25       0.0001
     14  CH2      -11.8600   46.6300   36.3660 C.ar   25  TRP25       0.0015
     15  N         -8.5770   43.4360   34.3620 N.am   26  PRO26      -0.2718
     16  CA        -7.8730   43.6620   35.6200 C.3    26  PRO26       0.1535
     17  C         -6.4270   43.2390   35.5940 C.2    26  PRO26       0.2598
     18  O         -5.6510   43.6860   36.4380 O.2    26  PRO26      -0.2715
     19  CB        -8.6610   42.8380   36.6210 C.3    26  PRO26       0.0310
     20  CG       -10.0540   42.7380   36.0330 C.3    26  PRO26       0.0237
     21  CD        -9.7830   42.6100   34.5760 C.3    26  PRO26       0.0939
     22  N         -6.0700   42.3860   34.6280 N.am   27  PHE27      -0.1974
     23  CA        -4.7120   41.8510   34.4470 C.3    27  PHE27       0.1639
     24  C         -3.7980   42.6100   33.4580 C.2    27  PHE27       0.2290
     25  O         -2.5860   42.2440   33.2430 O.2    27  PHE27      -0.2864
     26  CB        -4.8600   40.3450   34.0530 C.3    27  PHE27       0.0560
     27  CG        -5.7430   39.5890   35.0180 C.ar   27  PHE27      -0.0200
     28  CD1       -5.2530   39.2260   36.2670 C.ar   27  PHE27      -0.0042
     29  CD2       -7.1090   39.3750   34.7410 C.ar   27  PHE27      -0.0042
     30  CE1       -6.0810   38.6160   37.1960 C.ar   27  PHE27      -0.0003
     31  CE2       -7.9460   38.7370   35.6570 C.ar   27  PHE27      -0.0003
     32  CZ        -7.4340   38.3730   36.9010 C.ar   27  PHE27      -0.0000
     33  N         -1.3150   45.7140   39.5780 N.3    31  VAL31      -0.1245
     34  CA        -2.2980   46.0650   40.5990 C.3    31  VAL31       0.1561
     35  C         -1.8300   47.3510   41.2730 C.2    31  VAL31       0.2260
     36  O         -0.7170   47.4230   41.7570 O.2    31  VAL31      -0.2867
     37  CB        -2.4750   44.9130   41.6200 C.3    31  VAL31       0.0252
     38  CG1       -3.2980   45.4020   42.8470 C.3    31  VAL31       0.0019
     39  CG2       -3.0240   43.6740   40.9180 C.3    31  VAL31       0.0019
     40  N         -6.2750   51.4220   45.0360 N.3    36  LEU36      -0.1245
     41  CA        -7.4080   50.5460   45.3560 C.3    36  LEU36       0.1561
     42  C         -7.7000   50.4410   46.8410 C.2    36  LEU36       0.2260
     43  O         -8.7030   49.8720   47.2130 O.2    36  LEU36      -0.2867
     44  CB        -7.1710   49.1290   44.7830 C.3    36  LEU36       0.0270
     45  CG        -7.2140   49.0090   43.2640 C.3    36  LEU36       0.0019
     46  CD1       -6.5440   47.7290   42.7730 C.3    36  LEU36       0.0001
     47  CD2       -8.6650   49.0930   42.8280 C.3    36  LEU36       0.0001
     48  N         -5.6810   48.7740   48.9360 N.3    38  LEU38      -0.1245
     49  CA        -5.1870   47.4310   49.3210 C.3    38  LEU38       0.1561
     50  C         -3.8510   47.5600   50.0140 C.2    38  LEU38       0.2260
     51  O         -2.8140   47.1950   49.4820 O.2    38  LEU38      -0.2867
     52  CB        -5.0980   46.5210   48.0840 C.3    38  LEU38       0.0270
     53  CG        -6.3720   46.3840   47.2700 C.3    38  LEU38       0.0019
     54  CD1       -6.1080   45.4740   46.0430 C.3    38  LEU38       0.0001
     55  CD2       -7.5340   45.9220   48.1690 C.3    38  LEU38       0.0001
     56  N         -1.5140   44.5430   50.2790 N.3    41  TYR41      -0.1241
     57  CA        -1.2710   43.7290   49.0800 C.3    41  TYR41       0.1605
     58  C          0.2110   43.3140   48.9670 C.2    41  TYR41       0.2264
     59  O          0.5270   42.1420   48.6920 O.2    41  TYR41      -0.2867
     60  CB        -1.7000   44.4820   47.8180 C.3    41  TYR41       0.0534
     61  CG        -1.6970   43.5990   46.5860 C.ar   41  TYR41      -0.0201
     62  CD1       -0.6160   43.5790   45.7260 C.ar   41  TYR41      -0.0009
     63  CD2       -2.7930   42.8060   46.2850 C.ar   41  TYR41      -0.0009
     64  CE1       -0.5870   42.7550   44.6140 C.ar   41  TYR41       0.0417
     65  CE2       -2.7950   41.9840   45.1740 C.ar   41  TYR41       0.0417
     66  CZ        -1.6860   41.9630   44.3480 C.ar   41  TYR41       0.1957
     67  OH        -1.6240   41.1730   43.2160 O.3    41  TYR41      -0.2866
     68  N          2.7590   40.3900   39.3840 N.3    49  MET49      -0.1245
     69  CA         2.8750   40.1010   37.9610 C.3    49  MET49       0.1570
     70  C          1.5660   40.4640   37.2780 C.2    49  MET49       0.2261
     71  O          0.4930   40.4110   37.8940 O.2    49  MET49      -0.2867
     72  CB         3.2240   38.6040   37.7300 C.3    49  MET49       0.0387
     73  CG         3.6200   38.2210   36.3030 C.3    49  MET49       0.0595
     74  SD         4.8400   39.2770   35.4940 S.3    49  MET49      -0.1393
     75  CE         6.2010   39.1100   36.6540 C.3    49  MET49       0.0692
     76  N          0.8910   35.3820   38.0170 N.3    76  MET76      -0.1245
     77  CA        -0.1490   36.3960   37.9960 C.3    76  MET76       0.1570
     78  C         -1.5070   35.8430   38.5260 C.2    76  MET76       0.2261
     79  O         -2.1620   36.4820   39.4050 O.2    76  MET76      -0.2867
     80  CB        -0.2440   36.9360   36.5600 C.3    76  MET76       0.0387
     81  CG        -1.4020   37.8700   36.3370 C.3    76  MET76       0.0595
     82  SD        -1.5510   38.3230   34.6140 S.3    76  MET76      -0.1393
     83  CE        -2.4560   36.8850   34.0420 C.3    76  MET76       0.0692
     84  N         -3.5510   36.4050   42.4400 N.3    80  CYS80      -0.1235
     85  CA        -4.9840   36.6730   42.5620 C.3    80  CYS80       0.1677
     86  C         -5.7300   35.7340   43.5320 C.2    80  CYS80       0.2270
     87  O         -6.5250   36.1800   44.3950 O.2    80  CYS80      -0.2867
     88  CB        -5.6370   36.6900   41.1420 C.3    80  CYS80       0.0956
     89  SG        -7.3000   37.3730   41.0460 S.3    80  CYS80      -0.0801
     90  N         -4.4420   36.4000   47.2940 N.3    83  TYR83      -0.1227
     91  CA        -4.7560   37.6560   47.9860 C.3    83  TYR83       0.1736
     92  C         -6.2640   37.7240   48.3550 C.2    83  TYR83       0.2595
     93  O         -6.6450   38.1510   49.4790 O.2    83  TYR83      -0.2718
     94  CB        -4.2790   38.8950   47.1710 C.3    83  TYR83       0.0548
     95  CG        -4.7010   40.1670   47.8850 C.ar   83  TYR83      -0.0200
     96  CD1       -4.0060   40.6000   48.9890 C.ar   83  TYR83      -0.0009
     97  CD2       -5.8480   40.8630   47.5270 C.ar   83  TYR83      -0.0009
     98  CE1       -4.3930   41.7460   49.6990 C.ar   83  TYR83       0.0417
     99  CE2       -6.2680   41.9770   48.2500 C.ar   83  TYR83       0.0417
    100  CZ        -5.5380   42.4060   49.3490 C.ar   83  TYR83       0.1957
    101  OH        -5.9470   43.5510   50.0770 O.3    83  TYR83      -0.2866
    102  N         -7.1040   37.3550   47.3980 N.am   84  ASN84      -0.1961
    103  CA        -8.5210   37.6790   47.4010 C.3    84  ASN84       0.1804
    104  C         -9.3980   36.6260   48.0430 C.2    84  ASN84       0.2463
    105  O         -9.1360   35.4150   47.9330 O.2    84  ASN84      -0.2730
    106  CB        -8.9990   37.8920   45.9640 C.3    84  ASN84       0.1195
    107  CG        -8.3560   39.1120   45.3280 C.2    84  ASN84       0.2630
    108  OD1       -8.7070   40.2310   45.6890 O.2    84  ASN84      -0.2716
    109  ND2       -7.3630   38.9190   44.4630 N.am   84  ASN84      -0.0877
    110  N        -10.4930   37.0810   48.6560 N.am   85  PRO85      -0.2727
    111  CA       -11.5490   36.1470   49.0490 C.3    85  PRO85       0.1402
    112  C        -12.0070   35.3980   47.8130 C.2    85  PRO85       0.2269
    113  O        -12.1390   35.9970   46.7180 O.2    85  PRO85      -0.2865
    114  CB       -12.6680   37.0460   49.5870 C.3    85  PRO85       0.0296
    115  CG       -12.0890   38.3780   49.7620 C.3    85  PRO85       0.0237
    116  CD       -10.8470   38.4820   48.9420 C.3    85  PRO85       0.0939
    117  N        -14.7060   36.8710   45.3030 N.3    88  HIS88      -0.1241
    118  CA       -14.5680   38.2100   44.7790 C.3    88  HIS88       0.1621
    119  C        -14.7050   38.1300   43.2800 C.2    88  HIS88       0.2264
    120  O        -14.3270   37.1350   42.6610 O.2    88  HIS88      -0.2867
    121  CB       -13.2110   38.7900   45.1790 C.3    88  HIS88       0.0745
    122  CG       -13.0890   40.2710   44.9470 C.ar   88  HIS88       0.0817
    123  ND1      -12.8480   40.8090   43.7110 N.ar   88  HIS88      -0.2268
    124  CD2      -13.1970   41.3510   45.8370 C.ar   88  HIS88       0.1154
    125  CE1      -12.8110   42.1640   43.8160 C.ar   88  HIS88       0.1986
    126  NE2      -13.0290   42.4930   45.1130 N.ar   88  HIS88      -0.2212
    127  N        -13.0060   39.4400   40.9630 N.3    90  VAL90      -0.1245
    128  CA       -11.7170   39.3620   40.2350 C.3    90  VAL90       0.1561
    129  C        -11.2640   37.8980   40.1570 C.2    90  VAL90       0.2260
    130  O        -10.5690   37.5360   39.2380 O.2    90  VAL90      -0.2867
    131  CB       -10.6150   40.2850   40.8090 C.3    90  VAL90       0.0252
    132  CG1      -10.0710   39.7910   42.1410 C.3    90  VAL90       0.0019
    133  CG2       -9.4690   40.4890   39.7840 C.3    90  VAL90       0.0019
@<TRIPOS>BOND
     1     5     2    1
     2     5     6    1
     3     1     2    1
     4     2     3    1
     5     7     6   ar
     6     7     9   ar
     7     6     8   ar
     8     3     4    2
     9     3    15   am
    10    25    24    2
    11    24    23    1
    12     9    10   ar
    13     8    10   ar
    14     8    11   ar
    15    83    82    1
    16    26    23    1
    17    26    27    1
    18    15    21    1
    19    15    16    1
    20    23    22    1
    21    10    12   ar
    22    21    20    1
    23    11    13   ar
    24    82    81    1
    25    22    17   am
    26    29    27   ar
    27    29    31   ar
    28    27    28   ar
    29    74    73    1
    30    74    75    1
    31    17    16    1
    32    17    18    2
    33    16    19    1
    34    31    32   ar
    35    12    14   ar
    36    13    14   ar
    37    20    19    1
    38    28    30   ar
    39    73    72    1
    40    81    80    1
    41    80    77    1
    42    32    30   ar
    43    70    71    2
    44    70    69    1
    45    72    69    1
    46    69    68    1
    47    77    76    1
    48    77    78    1
    49    78    79    2
    50   130   129    2
    51    33    34    1
    52   133   131    1
    53   129   128    1
    54   128   131    1
    55   128   127    1
    56    34    35    1
    57    34    37    1
    58   131   132    1
    59    39    37    1
    60    89    88    1
    61    88    85    1
    62    35    36    2
    63    37    38    1
    64    84    85    1
    65    85    86    1
    66   120   119    2
    67    46    45    1
    68    47    45    1
    69    67    66    1
    70    45    44    1
    71   119   118    1
    72    86    87    2
    73   123   125   ar
    74   123   122   ar
    75   125   126   ar
    76    66    64   ar
    77    66    65   ar
    78   109   107   am
    79    64    62   ar
    80   118   121    1
    81   118   117    1
    82    44    41    1
    83   122   121    1
    84   122   124   ar
    85    40    41    1
    86   126   124   ar
    87    65    63   ar
    88   107   108    2
    89   107   106    1
    90    41    42    1
    91    62    61   ar
    92   106   103    1
    93    54    53    1
    94    63    61   ar
    95    61    60    1
    96   113   112    2
    97    42    43    2
    98    94    95    1
    99    94    91    1
   100    53    52    1
   101    53    55    1
   102    90    91    1
   103   102   103    1
   104   102    92   am
   105   103   104    1
   106    97    95   ar
   107    97    99   ar
   108   112   111    1
   109    60    57    1
   110    95    96   ar
   111   105   104    2
   112    91    92    1
   113   104   110   am
   114    52    49    1
   115    99   100   ar
   116    92    93    2
   117   110   116    1
   118   110   111    1
   119    59    58    2
   120    48    49    1
   121   116   115    1
   122    58    57    1
   123    96    98   ar
   124   111   114    1
   125    57    56    1
   126    49    50    1
   127   100    98   ar
   128   100   101    1
   129    51    50    2
   130   114   115    1
