@<TRIPOS>MOLECULE
tmp/4mr7A00.pdb
 161 157 0 0 0
SMALL
GASTEIGER

@<TRIPOS>ATOM
      1  N        -47.3630   15.2160  -20.2640 N.3    17  GLY17      -0.1210
      2  CA       -47.9040   16.5760  -20.3670 C.3    17  GLY17       0.1956
      3  C        -48.8440   16.8080  -21.5370 C.2    17  GLY17       0.2612
      4  O        -49.9300   17.3670  -21.3560 O.2    17  GLY17      -0.2717
      5  N        -48.4430   16.3920  -22.7520 N.am   18  TRP18      -0.1962
      6  CA       -49.3100   16.4870  -23.9250 C.3    18  TRP18       0.1756
      7  C        -49.3050   15.1040  -24.5680 C.2    18  TRP18       0.2461
      8  O        -48.3400   14.7720  -25.2620 O.2    18  TRP18      -0.2730
      9  CB       -48.8620   17.5730  -24.8990 C.3    18  TRP18       0.0590
     10  CG       -49.6860   17.6150  -26.1560 C.ar   18  TRP18       0.0006
     11  CD1      -50.9740   18.0600  -26.2800 C.ar   18  TRP18       0.0946
     12  CD2      -49.2690   17.2110  -27.4700 C.ar   18  TRP18       0.0152
     13  NE1      -51.3860   17.9460  -27.5890 N.ar   18  TRP18      -0.2442
     14  CE2      -50.3640   17.4260  -28.3410 C.ar   18  TRP18       0.0810
     15  CE3      -48.0920   16.6450  -27.9870 C.ar   18  TRP18       0.0012
     16  CZ2      -50.2980   17.1380  -29.7080 C.ar   18  TRP18       0.0191
     17  CZ3      -48.0080   16.3920  -29.3460 C.ar   18  TRP18       0.0001
     18  CH2      -49.0990   16.6310  -30.1930 C.ar   18  TRP18       0.0015
     19  N        -50.3180   14.2460  -24.2560 N.am   19  PRO19      -0.2727
     20  CA       -50.3270   12.8700  -24.7990 C.3    19  PRO19       0.1402
     21  C        -50.8680   12.8260  -26.2260 C.2    19  PRO19       0.2269
     22  O        -51.7340   11.9990  -26.5370 O.2    19  PRO19      -0.2865
     23  CB       -51.2280   12.1200  -23.8120 C.3    19  PRO19       0.0296
     24  CG       -52.1800   13.1400  -23.3400 C.3    19  PRO19       0.0237
     25  CD       -51.5120   14.4960  -23.4180 C.3    19  PRO19       0.0939
     26  N        -43.8270   12.0410  -23.6440 N.3    56  CYS56      -0.1235
     27  CA       -43.6520   13.5020  -23.5580 C.3    56  CYS56       0.1677
     28  C        -42.4940   13.8010  -22.5760 C.2    56  CYS56       0.2270
     29  O        -42.5420   14.7570  -21.7970 O.2    56  CYS56      -0.2867
     30  CB       -44.9630   14.1590  -23.1260 C.3    56  CYS56       0.0956
     31  SG       -45.1150   15.9110  -23.5580 S.3    56  CYS56      -0.0801
     32  N        -43.7850   16.3970  -28.6740 N.3    82  CYS82      -0.1221
     33  CA       -43.6970   17.3670  -27.5610 C.3    82  CYS82       0.1808
     34  C        -42.5160   18.3170  -27.7730 C.2    82  CYS82       0.2602
     35  O        -41.4900   17.8980  -28.2980 O.2    82  CYS82      -0.2717
     36  CB       -43.6110   16.6510  -26.2060 C.3    82  CYS82       0.0970
     37  SG       -45.2260   16.0580  -25.6040 S.3    82  CYS82      -0.0800
     38  N        -42.6490   19.5680  -27.3340 N.am   83  SER83      -0.1938
     39  CA       -41.5840   20.5980  -27.4250 C.3    83  SER83       0.2055
     40  C        -40.3310   20.1700  -26.6650 C.2    83  SER83       0.2643
     41  O        -39.2630   20.2990  -27.1990 O.2    83  SER83      -0.2714
     42  CB       -42.0740   21.9310  -26.8740 C.3    83  SER83       0.2130
     43  OG       -42.7990   22.6300  -27.8690 O.3    83  SER83      -0.2179
     44  N        -40.4670   19.6200  -25.4510 N.am   84  SER84      -0.1949
     45  CA       -39.3280   19.1780  -24.6430 C.3    84  SER84       0.1924
     46  C        -38.6050   18.0690  -25.3740 C.2    84  SER84       0.2314
     47  O        -37.3790   18.0450  -25.3810 O.2    84  SER84      -0.2863
     48  CB       -39.7850   18.7220  -23.2600 C.3    84  SER84       0.2116
     49  OG       -40.6640   17.6080  -23.3650 O.3    84  SER84      -0.2180
     50  N        -46.2230   18.5030  -33.3710 N.3   104  GLY104     -0.1225
     51  CA       -46.8860   19.0310  -32.1820 C.3   104  GLY104      0.1811
     52  C        -46.2030   20.0830  -31.3370 C.2   104  GLY104      0.2280
     53  O        -46.7970   20.5250  -30.3650 O.2   104  GLY104     -0.2866
     54  N        -44.9880   23.6350  -29.9740 N.3   106  SER106     -0.1217
     55  CA       -45.3510   25.0660  -29.9950 C.3   106  SER106      0.1889
     56  C        -44.2730   26.0300  -29.4260 C.2   106  SER106      0.2288
     57  O        -44.4540   27.2490  -29.5080 O.2   106  SER106     -0.2866
     58  CB       -46.6420   25.2890  -29.2090 C.3   106  SER106      0.2089
     59  OG       -46.4860   24.7830  -27.8900 O.3   106  SER106     -0.2183
     60  N        -46.8240   22.2380  -36.7830 N.3   123  HIS123     -0.1241
     61  CA       -47.4940   22.8910  -35.6500 C.3   123  HIS123      0.1621
     62  C        -46.8560   24.2860  -35.5810 C.2   123  HIS123      0.2264
     63  O        -45.6310   24.3810  -35.5400 O.2   123  HIS123     -0.2867
     64  CB       -47.1970   22.1720  -34.3150 C.3   123  HIS123      0.0745
     65  CG       -48.0800   22.6230  -33.1700 C.ar  123  HIS123      0.0817
     66  ND1      -48.0770   23.9450  -32.7050 N.ar  123  HIS123     -0.2268
     67  CD2      -48.9830   21.9190  -32.4430 C.ar  123  HIS123      0.1154
     68  CE1      -48.9530   23.9830  -31.7170 C.ar  123  HIS123      0.1986
     69  NE2      -49.5330   22.7940  -31.5350 N.ar  123  HIS123     -0.2212
     70  N        -42.2160   29.2420  -22.3480 N.3   154  VAL154     -0.1245
     71  CA       -43.0950   29.5420  -23.4700 C.3   154  VAL154      0.1561
     72  C        -43.7640   30.8950  -23.3400 C.2   154  VAL154      0.2260
     73  O        -43.7390   31.6390  -24.3010 O.2   154  VAL154     -0.2867
     74  CB       -44.1190   28.4400  -23.7870 C.3   154  VAL154      0.0252
     75  CG1      -43.4000   27.2760  -24.4180 C.3   154  VAL154      0.0019
     76  CG2      -44.8940   27.9960  -22.5370 C.3   154  VAL154      0.0019
     77  N        -51.3800   28.7310  -18.0640 N.3   203  TYR203     -0.1227
     78  CA       -52.1210   27.4990  -18.2790 C.3   203  TYR203      0.1736
     79  C        -53.4780   27.6160  -17.5920 C.2   203  TYR203      0.2595
     80  O        -53.7130   28.6090  -16.8860 O.2   203  TYR203     -0.2718
     81  CB       -51.3200   26.2730  -17.8300 C.3   203  TYR203      0.0548
     82  CG       -50.2000   25.9870  -18.8010 C.ar  203  TYR203     -0.0200
     83  CD1      -50.4660   25.7150  -20.1410 C.ar  203  TYR203     -0.0009
     84  CD2      -48.8700   26.0770  -18.4050 C.ar  203  TYR203     -0.0009
     85  CE1      -49.4350   25.5190  -21.0620 C.ar  203  TYR203      0.0417
     86  CE2      -47.8260   25.8770  -19.3180 C.ar  203  TYR203      0.0417
     87  CZ       -48.1170   25.5790  -20.6400 C.ar  203  TYR203      0.1957
     88  OH       -47.1040   25.3960  -21.5410 O.3   203  TYR203     -0.2866
     89  N        -54.3890   26.6470  -17.8640 N.am  204  GLU204     -0.1979
     90  CA       -55.7710   26.6000  -17.3820 C.3   204  GLU204      0.1602
     91  C        -55.9230   26.6570  -15.8700 C.2   204  GLU204      0.2287
     92  O        -56.8090   27.3730  -15.4100 O.2   204  GLU204     -0.2864
     93  CB       -56.4900   25.3780  -17.9540 C.3   204  GLU204      0.0415
     94  CG       -57.9950   25.5290  -18.0970 C.3   204  GLU204      0.1163
     95  CD       -58.6520   24.2660  -18.6160 C.2   204  GLU204      0.3649
     96  OE1      -58.3340   23.8630  -19.7510 O.co2 204  GLU204     -0.2457
     97  OE2      -59.4200   23.6330  -17.8630 O.co2 204  GLU204     -0.2457
     98  N        -56.9700   27.6470  -26.0660 N.3   231  TRP231     -0.1227
     99  CA       -57.0220   26.1840  -26.0680 C.3   231  TRP231      0.1737
    100  C        -57.3540   25.5820  -24.7200 C.2   231  TRP231      0.2595
    101  O        -57.1510   24.3800  -24.5190 O.2   231  TRP231     -0.2718
    102  CB       -55.7810   25.5320  -26.6970 C.3   231  TRP231      0.0564
    103  CG       -54.4730   26.1810  -26.4000 C.ar  231  TRP231      0.0003
    104  CD1      -53.6580   26.8270  -27.2870 C.ar  231  TRP231      0.0946
    105  CD2      -53.7800   26.1630  -25.1510 C.ar  231  TRP231      0.0152
    106  NE1      -52.5120   27.2450  -26.6550 N.ar  231  TRP231     -0.2442
    107  CE2      -52.5510   26.8350  -25.3450 C.ar  231  TRP231      0.0810
    108  CE3      -54.0810   25.6430  -23.8720 C.ar  231  TRP231      0.0012
    109  CZ2      -51.6070   26.9690  -24.3230 C.ar  231  TRP231      0.0191
    110  CZ3      -53.1460   25.7850  -22.8590 C.ar  231  TRP231      0.0001
    111  CH2      -51.9330   26.4520  -23.0860 C.ar  231  TRP231      0.0015
    112  N        -57.9560   26.3710  -23.8180 N.am  232  TYR232     -0.1976
    113  CA       -58.4360   25.7960  -22.5600 C.3   232  TYR232      0.1639
    114  C        -59.6590   24.9310  -22.8820 C.2   232  TYR232      0.2290
    115  O        -60.2610   25.0660  -23.9540 O.2   232  TYR232     -0.2864
    116  CB       -58.8810   26.8720  -21.5800 C.3   232  TYR232      0.0560
    117  CG       -57.8340   27.8730  -21.1690 C.ar  232  TYR232     -0.0198
    118  CD1      -56.5070   27.4820  -20.9660 C.ar  232  TYR232     -0.0009
    119  CD2      -58.1830   29.1890  -20.8640 C.ar  232  TYR232     -0.0009
    120  CE1      -55.5440   28.3950  -20.5480 C.ar  232  TYR232      0.0417
    121  CE2      -57.2340   30.1040  -20.4210 C.ar  232  TYR232      0.0417
    122  CZ       -55.9120   29.7040  -20.2680 C.ar  232  TYR232      0.1957
    123  OH       -54.9710   30.6040  -19.8400 O.3   232  TYR232     -0.2866
    124  N        -54.8410   28.6230  -32.8370 N.3   263  ILE263     -0.1245
    125  CA       -54.4310   28.2220  -34.1740 C.3   263  ILE263      0.1561
    126  C        -55.4940   27.3310  -34.8190 C.2   263  ILE263      0.2260
    127  O        -56.0920   26.4840  -34.1540 O.2   263  ILE263     -0.2867
    128  CB       -53.0040   27.6040  -34.1480 C.3   263  ILE263      0.0252
    129  CG1      -51.9600   28.6960  -33.8480 C.3   263  ILE263      0.0019
    130  CG2      -52.6670   26.8700  -35.4590 C.3   263  ILE263      0.0019
    131  CD1      -50.9480   28.3090  -32.7920 C.3   263  ILE263      0.0001
    132  N        -56.3900   24.4380  -36.8850 N.3   265  MET265     -0.1245
    133  CA       -55.7250   23.1620  -37.1270 C.3   265  MET265      0.1570
    134  C        -56.4390   22.2650  -38.1280 C.2   265  MET265      0.2261
    135  O        -55.8670   21.2770  -38.5840 O.2   265  MET265     -0.2867
    136  CB       -55.5010   22.4400  -35.8040 C.3   265  MET265      0.0387
    137  CG       -54.3570   23.0380  -35.0380 C.3   265  MET265      0.0595
    138  SD       -54.1150   22.1920  -33.4930 S.3   265  MET265     -0.1393
    139  CE       -52.7690   23.2130  -32.8030 C.3   265  MET265      0.0692
    140  N        -54.3190   14.6510  -28.3450 N.3   299  GLY299     -0.1225
    141  CA       -53.8510   15.2190  -29.6120 C.3   299  GLY299      0.1811
    142  C        -54.8110   15.1270  -30.7800 C.2   299  GLY299      0.2280
    143  O        -54.3790   15.1850  -31.9350 O.2   299  GLY299     -0.2866
    144  N        -57.0780   17.3120  -31.8750 N.3   301  GLN301     -0.1231
    145  CA       -57.0800   18.5480  -32.6530 C.3   301  GLN301      0.1698
    146  C        -55.8080   18.7630  -33.4560 C.2   301  GLN301      0.2592
    147  O        -55.8610   19.4090  -34.5070 O.2   301  GLN301     -0.2718
    148  CB       -57.3960   19.7840  -31.7810 C.3   301  GLN301      0.0381
    149  CG       -56.4880   19.9630  -30.5570 C.3   301  GLN301      0.0905
    150  CD       -56.5470   21.3570  -29.9320 C.2   301  GLN301      0.2608
    151  OE1      -57.4290   22.1780  -30.2380 O.2   301  GLN301     -0.2717
    152  NE2      -55.6210   21.6420  -29.0070 N.am  301  GLN301     -0.0878
    153  N        -54.6660   18.2320  -32.9640 N.am  302  GLU302     -0.1979
    154  CA       -53.3850   18.3640  -33.6540 C.3   302  GLU302      0.1602
    155  C        -53.1950   17.3290  -34.7200 C.2   302  GLU302      0.2287
    156  O        -52.3030   17.5070  -35.5430 O.2   302  GLU302     -0.2864
    157  CB       -52.1990   18.3070  -32.6660 C.3   302  GLU302      0.0415
    158  CG       -52.0900   19.5410  -31.7960 C.3   302  GLU302      0.1163
    159  CD       -52.9290   19.4730  -30.5410 C.2   302  GLU302      0.3649
    160  OE1      -53.5200   18.4080  -30.2590 O.co2 302  GLU302     -0.2457
    161  OE2      -52.9660   20.4830  -29.8130 O.co2 302  GLU302     -0.2457
@<TRIPOS>BOND
     1   135   134    2
     2   134   133    1
     3   133   132    1
     4   133   136    1
     5    60    61    1
     6   136   137    1
     7    61    62    1
     8    61    64    1
     9    62    63    2
    10   156   155    2
    11   130   128    1
    12   137   138    1
    13   126   125    1
    14   126   127    2
    15   155   154    1
    16   147   146    2
    17    64    65    1
    18   125   128    1
    19   125   124    1
    20   128   129    1
    21   129   131    1
    22   154   153    1
    23   154   157    1
    24   138   139    1
    25   146   153   am
    26   146   145    1
    27    50    51    1
    28    65    66   ar
    29    65    67   ar
    30    66    68   ar
    31   157   158    1
    32   145   144    1
    33   145   148    1
    34    67    69   ar
    35    51    52    1
    36   143   142    2
    37   158   159    1
    38   148   149    1
    39    68    69   ar
    40    52    53    2
    41   142   141    1
    42   149   150    1
    43   159   160   ar
    44   159   161   ar
    45   151   150    2
    46    18    16   ar
    47    18    17   ar
    48    55    54    1
    49    55    56    1
    50    55    58    1
    51   150   152   am
    52    16    14   ar
    53   141   140    1
    54    57    56    2
    55    17    15   ar
    56    58    59    1
    57    32    33    1
    58    14    13   ar
    59    14    12   ar
    60    35    34    2
    61    15    12   ar
    62    43    42    1
    63    34    33    1
    64    34    38   am
    65    13    11   ar
    66    33    36    1
    67    12    10   ar
    68    39    38    1
    69    39    42    1
    70    39    40    1
    71   104   106   ar
    72   104   103   ar
    73    41    40    2
    74   102   103    1
    75   102    99    1
    76    40    44   am
    77   106   107   ar
    78    22    21    2
    79   103   105   ar
    80    11    10   ar
    81    21    20    1
    82    36    37    1
    83    10     9    1
    84    99    98    1
    85    99   100    1
    86    37    31    1
    87    44    45    1
    88    47    46    2
    89    46    45    1
    90   107   105   ar
    91   107   109   ar
    92     8     7    2
    93   105   108   ar
    94     9     6    1
    95    20    19    1
    96    20    23    1
    97   100   101    2
    98   100   112   am
    99    45    48    1
   100     7    19   am
   101     7     6    1
   102    75    74    1
   103   109   111   ar
   104    73    72    2
   105    19    25    1
   106   115   114    2
   107     6     5    1
   108   108   110   ar
   109   112   113    1
   110    23    24    1
   111    74    71    1
   112    74    76    1
   113    26    27    1
   114    27    30    1
   115    27    28    1
   116    31    30    1
   117    71    72    1
   118    71    70    1
   119    25    24    1
   120    49    48    1
   121   111   110   ar
   122   114   113    1
   123     5     3   am
   124    28    29    2
   125   113   116    1
   126   116   117    1
   127    88    87    1
   128     3     4    2
   129     3     2    1
   130   117   118   ar
   131   117   119   ar
   132    85    87   ar
   133    85    83   ar
   134   118   120   ar
   135   119   121   ar
   136    87    86   ar
   137   120   122   ar
   138   121   122   ar
   139     2     1    1
   140   122   123    1
   141    83    82   ar
   142    96    95   ar
   143    86    84   ar
   144    82    84   ar
   145    82    81    1
   146    95    94    1
   147    95    97   ar
   148    78    77    1
   149    78    81    1
   150    78    79    1
   151    94    93    1
   152    93    90    1
   153    89    79   am
   154    89    90    1
   155    79    80    2
   156    90    91    1
   157    91    92    2
