@<TRIPOS>MOLECULE
tmp/4mr8A02.pdb
 125 120 0 0 0
SMALL
GASTEIGER

@<TRIPOS>ATOM
      1  N        -47.5500   14.9190  -20.2940 N.3    17  GLY17      -0.1210
      2  CA       -48.1860   16.2370  -20.3150 C.3    17  GLY17       0.1956
      3  C        -49.1230   16.4590  -21.4900 C.2    17  GLY17       0.2611
      4  O        -50.1950   17.0540  -21.3330 O.2    17  GLY17      -0.2717
      5  N        -48.7050   16.0140  -22.6890 N.am   18  TRP18      -0.1976
      6  CA       -49.5200   16.0900  -23.8940 C.3    18  TRP18       0.1640
      7  C        -49.5320   14.6970  -24.5290 C.2    18  TRP18       0.2290
      8  O        -48.5840   14.3330  -25.2380 O.2    18  TRP18      -0.2864
      9  CB       -49.0300   17.1680  -24.8780 C.3    18  TRP18       0.0576
     10  CG       -49.8360   17.2230  -26.1500 C.ar   18  TRP18       0.0006
     11  CD1      -51.1340   17.6310  -26.2840 C.ar   18  TRP18       0.0946
     12  CD2      -49.4020   16.8220  -27.4600 C.ar   18  TRP18       0.0152
     13  NE1      -51.5260   17.5350  -27.6030 N.ar   18  TRP18      -0.2442
     14  CE2      -50.4760   17.0590  -28.3480 C.ar   18  TRP18       0.0810
     15  CE3      -48.1930   16.3160  -27.9790 C.ar   18  TRP18       0.0012
     16  CZ2      -50.3720   16.8180  -29.7290 C.ar   18  TRP18       0.0191
     17  CZ3      -48.1010   16.0470  -29.3350 C.ar   18  TRP18       0.0001
     18  CH2      -49.1820   16.2920  -30.1960 C.ar   18  TRP18       0.0015
     19  N        -43.9090   11.7630  -23.5100 N.3    56  CYS56      -0.1235
     20  CA       -43.7770   13.2300  -23.4380 C.3    56  CYS56       0.1677
     21  C        -42.6780   13.6300  -22.4110 C.2    56  CYS56       0.2270
     22  O        -42.8110   14.6230  -21.6920 O.2    56  CYS56      -0.2867
     23  CB       -45.1380   13.8580  -23.1140 C.3    56  CYS56       0.0956
     24  SG       -45.2880   15.6140  -23.5370 S.3    56  CYS56      -0.0801
     25  N        -44.1280   16.2590  -28.6050 N.3    82  CYS82      -0.1221
     26  CA       -44.0160   17.2480  -27.5130 C.3    82  CYS82       0.1808
     27  C        -42.8950   18.2390  -27.7600 C.2    82  CYS82       0.2602
     28  O        -41.8900   17.8840  -28.3910 O.2    82  CYS82      -0.2717
     29  CB       -43.8580   16.5490  -26.1560 C.3    82  CYS82       0.0970
     30  SG       -45.3810   15.7420  -25.5760 S.3    82  CYS82      -0.0800
     31  N        -43.0630   19.4690  -27.2380 N.am   83  SER83      -0.1938
     32  CA       -42.0800   20.5510  -27.3210 C.3    83  SER83       0.2055
     33  C        -40.7840   20.1500  -26.6070 C.2    83  SER83       0.2643
     34  O        -39.7260   20.3140  -27.1820 O.2    83  SER83      -0.2714
     35  CB       -42.6370   21.8410  -26.7320 C.3    83  SER83       0.2130
     36  OG       -43.4750   22.4700  -27.6790 O.3    83  SER83      -0.2179
     37  N        -40.8810   19.5550  -25.4060 N.am   84  SER84      -0.1949
     38  CA       -39.7270   19.1270  -24.6090 C.3    84  SER84       0.1924
     39  C        -38.9290   18.0390  -25.3380 C.2    84  SER84       0.2314
     40  O        -37.6980   18.0540  -25.3210 O.2    84  SER84      -0.2863
     41  CB       -40.1680   18.6470  -23.2260 C.3    84  SER84       0.2116
     42  OG       -40.9520   17.4650  -23.3060 O.3    84  SER84      -0.2180
     43  N        -46.5730   18.2870  -33.2170 N.3   104  GLY104     -0.1225
     44  CA       -47.2590   18.8200  -32.0380 C.3   104  GLY104      0.1811
     45  C        -46.5930   19.8950  -31.2030 C.2   104  GLY104      0.2280
     46  O        -47.1440   20.2720  -30.1760 O.2   104  GLY104     -0.2866
     47  N        -45.5400   23.5090  -29.8790 N.3   106  SER106     -0.1202
     48  CA       -46.0130   24.9020  -29.8920 C.3   106  SER106      0.2020
     49  C        -45.0350   25.9120  -29.2650 C.2   106  SER106      0.2619
     50  O        -45.2520   27.1200  -29.3970 O.2   106  SER106     -0.2717
     51  CB       -47.3330   25.0000  -29.1400 C.3   106  SER106      0.2103
     52  OG       -47.1350   24.7410  -27.7540 O.3   106  SER106     -0.2182
     53  N        -44.0050   25.4290  -28.5450 N.am  107  SER107     -0.1951
     54  CA       -43.0630   26.3030  -27.8400 C.3   107  SER107      0.1924
     55  C        -42.3710   27.3440  -28.7400 C.2   107  SER107      0.2314
     56  O        -41.7150   26.9570  -29.7130 O.2   107  SER107     -0.2863
     57  CB       -42.0320   25.4920  -27.0570 C.3   107  SER107      0.2116
     58  OG       -41.1180   26.3440  -26.3860 O.3   107  SER107     -0.2180
     59  N        -47.2540   22.1580  -36.5800 N.3   123  HIS123     -0.1241
     60  CA       -47.9540   22.7840  -35.4670 C.3   123  HIS123      0.1621
     61  C        -47.3750   24.1930  -35.3710 C.2   123  HIS123      0.2264
     62  O        -46.1600   24.3280  -35.2520 O.2   123  HIS123     -0.2867
     63  CB       -47.7230   22.0190  -34.1430 C.3   123  HIS123      0.0745
     64  CG       -48.5590   22.5270  -33.0010 C.ar  123  HIS123      0.0817
     65  ND1      -48.2550   23.7050  -32.3580 N.ar  123  HIS123     -0.2268
     66  CD2      -49.6470   21.9820  -32.4070 C.ar  123  HIS123      0.1154
     67  CE1      -49.1840   23.8590  -31.4290 C.ar  123  HIS123      0.1986
     68  NE2      -50.0170   22.8340  -31.3950 N.ar  123  HIS123     -0.2212
     69  N        -44.4810   30.3750  -16.8150 N.3   152  THR152     -0.1218
     70  CA       -44.1530   29.1710  -17.5690 C.3   152  THR152      0.1862
     71  C        -43.3490   29.7230  -18.7110 C.2   152  THR152      0.2287
     72  O        -43.6130   30.8480  -19.1490 O.2   152  THR152     -0.2866
     73  CB       -45.3950   28.3830  -18.0530 C.3   152  THR152      0.1770
     74  OG1      -46.3720   28.3120  -17.0150 O.3   152  THR152     -0.2211
     75  CG2      -45.0510   26.9640  -18.4840 C.3   152  THR152      0.0375
     76  N        -43.2610   28.9780  -21.8700 N.3   154  VAL154     -0.1245
     77  CA       -44.1180   29.2290  -23.0340 C.3   154  VAL154      0.1561
     78  C        -44.7950   30.6130  -23.0040 C.2   154  VAL154      0.2260
     79  O        -44.8010   31.3020  -24.0160 O.2   154  VAL154     -0.2867
     80  CB       -45.1090   28.0600  -23.3260 C.3   154  VAL154      0.0252
     81  CG1      -46.0700   27.7990  -22.1600 C.3   154  VAL154      0.0019
     82  CG2      -45.8670   28.2760  -24.6310 C.3   154  VAL154      0.0019
     83  N        -52.8750   28.5570  -17.8700 N.3   203  TYR203     -0.1241
     84  CA       -53.5990   27.3110  -18.0370 C.3   203  TYR203      0.1605
     85  C        -54.9720   27.4000  -17.3530 C.2   203  TYR203      0.2264
     86  O        -55.2710   28.3960  -16.6880 O.2   203  TYR203     -0.2867
     87  CB       -52.7700   26.1270  -17.5260 C.3   203  TYR203      0.0534
     88  CG       -51.5880   25.8370  -18.4200 C.ar  203  TYR203     -0.0201
     89  CD1      -51.7690   25.3550  -19.7160 C.ar  203  TYR203     -0.0009
     90  CD2      -50.2850   26.0440  -17.9750 C.ar  203  TYR203     -0.0009
     91  CE1      -50.6850   25.1100  -20.5550 C.ar  203  TYR203      0.0417
     92  CE2      -49.1910   25.7860  -18.8000 C.ar  203  TYR203      0.0417
     93  CZ       -49.3960   25.3310  -20.0930 C.ar  203  TYR203      0.1957
     94  OH       -48.3300   25.0830  -20.9190 O.3   203  TYR203     -0.2866
     95  N        -58.1870   27.7780  -25.6250 N.3   231  TRP231     -0.1241
     96  CA       -57.8310   26.3610  -25.4790 C.3   231  TRP231      0.1605
     97  C        -58.4680   25.6980  -24.2410 C.2   231  TRP231      0.2264
     98  O        -58.1200   24.5640  -23.8920 O.2   231  TRP231     -0.2867
     99  CB       -56.2930   26.2040  -25.4570 C.3   231  TRP231      0.0550
    100  CG       -55.5670   26.8880  -24.3250 C.ar  231  TRP231      0.0003
    101  CD1      -56.1080   27.6180  -23.3010 C.ar  231  TRP231      0.0946
    102  CD2      -54.1490   26.8850  -24.1100 C.ar  231  TRP231      0.0152
    103  NE1      -55.1160   28.0690  -22.4650 N.ar  231  TRP231     -0.2442
    104  CE2      -53.9020   27.6230  -22.9300 C.ar  231  TRP231      0.0810
    105  CE3      -53.0620   26.3080  -24.7880 C.ar  231  TRP231      0.0012
    106  CZ2      -52.6090   27.8150  -22.4260 C.ar  231  TRP231      0.0191
    107  CZ3      -51.7880   26.5010  -24.2910 C.ar  231  TRP231      0.0001
    108  CH2      -51.5670   27.2620  -23.1340 C.ar  231  TRP231      0.0015
    109  N        -56.7690   24.2420  -36.5640 N.3   265  MET265     -0.1245
    110  CA       -56.1200   22.9450  -36.7720 C.3   265  MET265      0.1570
    111  C        -56.8410   22.0500  -37.7900 C.2   265  MET265      0.2261
    112  O        -56.2990   21.0140  -38.1830 O.2   265  MET265     -0.2867
    113  CB       -55.9410   22.2100  -35.4410 C.3   265  MET265      0.0387
    114  CG       -54.9070   22.8640  -34.5360 C.3   265  MET265      0.0595
    115  SD       -54.6270   21.9090  -33.0490 S.3   265  MET265     -0.1393
    116  CE       -53.8500   23.1200  -32.0300 C.3   265  MET265      0.0692
    117  N        -55.1120   17.8400  -32.7370 N.3   302  GLU302     -0.1245
    118  CA       -53.8140   18.0250  -33.3850 C.3   302  GLU302      0.1567
    119  C        -53.5660   16.9970  -34.4860 C.2   302  GLU302      0.2260
    120  O        -52.6590   17.1930  -35.2950 O.2   302  GLU302     -0.2867
    121  CB       -52.6520   18.0090  -32.3650 C.3   302  GLU302      0.0388
    122  CG       -52.5700   19.2530  -31.4940 C.3   302  GLU302      0.1160
    123  CD       -53.4320   19.2470  -30.2490 C.2   302  GLU302      0.3649
    124  OE1      -53.8870   18.1520  -29.8410 O.co2 302  GLU302     -0.2457
    125  OE2      -53.6430   20.3400  -29.6740 O.co2 302  GLU302     -0.2457
@<TRIPOS>BOND
     1   112   111    2
     2   111   110    1
     3   110   109    1
     4   110   113    1
     5    59    60    1
     6    60    61    1
     7    60    63    1
     8   113   114    1
     9    61    62    2
    10   120   119    2
    11   114   115    1
    12   119   118    1
    13    63    64    1
    14   118   117    1
    15   118   121    1
    16    43    44    1
    17   115   116    1
    18    64    66   ar
    19    64    65   ar
    20    66    68   ar
    21   121   122    1
    22    65    67   ar
    23    44    45    1
    24   122   123    1
    25    67    68   ar
    26    45    46    2
    27   123   124   ar
    28   123   125   ar
    29    18    16   ar
    30    18    17   ar
    31    48    47    1
    32    48    49    1
    33    48    51    1
    34    16    14   ar
    35    56    55    2
    36    50    49    2
    37    17    15   ar
    38    49    53   am
    39    51    52    1
    40    55    54    1
    41    25    26    1
    42    53    54    1
    43    28    27    2
    44    14    13   ar
    45    14    12   ar
    46    15    12   ar
    47    54    57    1
    48    27    26    1
    49    27    31   am
    50    36    35    1
    51    13    11   ar
    52    26    29    1
    53    12    10   ar
    54    32    31    1
    55    32    35    1
    56    32    33    1
    57    34    33    2
    58    57    58    1
    59    33    37   am
    60    11    10   ar
    61    29    30    1
    62    10     9    1
    63    95    96    1
    64    30    24    1
    65    96    99    1
    66    96    97    1
    67    99   100    1
    68    37    38    1
    69    39    40    2
    70    39    38    1
    71     8     7    2
    72     9     6    1
    73   105   107   ar
    74   105   102   ar
    75    82    80    1
    76    38    41    1
    77     7     6    1
    78   100   102   ar
    79   100   101   ar
    80   107   108   ar
    81    97    98    2
    82   102   104   ar
    83    79    78    2
    84     6     5    1
    85    24    23    1
    86    19    20    1
    87    20    23    1
    88    20    21    1
    89    80    77    1
    90    80    81    1
    91    42    41    1
    92   101   103   ar
    93   108   106   ar
    94    77    78    1
    95    77    76    1
    96   104   103   ar
    97   104   106   ar
    98     5     3   am
    99    21    22    2
   100     3     4    2
   101     3     2    1
   102    94    93    1
   103    91    93   ar
   104    91    89   ar
   105     2     1    1
   106    93    92   ar
   107    89    88   ar
   108    72    71    2
   109    92    90   ar
   110    71    70    1
   111    75    73    1
   112    88    90   ar
   113    88    87    1
   114    73    70    1
   115    73    74    1
   116    84    83    1
   117    84    87    1
   118    84    85    1
   119    70    69    1
   120    85    86    2
