@<TRIPOS>MOLECULE
tmp/4mr9A00.pdb
 91 87 0 0 0
SMALL
GASTEIGER

@<TRIPOS>ATOM
      1  N        -48.6370   16.5810  -22.5630 N.3    18  TRP18      -0.1241
      2  CA       -49.4830   16.6640  -23.7580 C.3    18  TRP18       0.1605
      3  C        -49.4810   15.2620  -24.3830 C.2    18  TRP18       0.2264
      4  O        -48.5390   14.9380  -25.1000 O.2    18  TRP18      -0.2867
      5  CB       -49.0370   17.7450  -24.7370 C.3    18  TRP18       0.0550
      6  CG       -49.8370   17.7790  -26.0130 C.ar   18  TRP18       0.0003
      7  CD1      -51.0990   18.2770  -26.1730 C.ar   18  TRP18       0.0946
      8  CD2      -49.4160   17.3230  -27.3190 C.ar   18  TRP18       0.0152
      9  NE1      -51.5080   18.1100  -27.4670 N.ar   18  TRP18      -0.2442
     10  CE2      -50.4840   17.5600  -28.2040 C.ar   18  TRP18       0.0810
     11  CE3      -48.2350   16.7380  -27.8180 C.ar   18  TRP18       0.0012
     12  CZ2      -50.4220   17.2280  -29.5650 C.ar   18  TRP18       0.0191
     13  CZ3      -48.1660   16.4000  -29.1630 C.ar   18  TRP18       0.0001
     14  CH2      -49.2470   16.6560  -30.0280 C.ar   18  TRP18       0.0015
     15  N        -43.9250   12.0910  -23.4110 N.3    56  CYS56      -0.1235
     16  CA       -43.7960   13.5590  -23.3630 C.3    56  CYS56       0.1677
     17  C        -42.6270   13.8990  -22.4110 C.2    56  CYS56       0.2270
     18  O        -42.6140   14.9180  -21.7140 O.2    56  CYS56      -0.2867
     19  CB       -45.1230   14.1740  -22.9150 C.3    56  CYS56       0.0956
     20  SG       -45.3910   15.8920  -23.4080 S.3    56  CYS56      -0.0801
     21  N        -43.9450   16.4530  -28.5290 N.3    82  CYS82      -0.1221
     22  CA       -43.8090   17.4350  -27.4260 C.3    82  CYS82       0.1808
     23  C        -42.6460   18.3960  -27.6660 C.2    82  CYS82       0.2601
     24  O        -41.6140   17.9940  -28.1780 O.2    82  CYS82      -0.2717
     25  CB       -43.7100   16.7560  -26.0480 C.3    82  CYS82       0.0970
     26  SG       -45.3050   16.0750  -25.4680 S.3    82  CYS82      -0.0800
     27  N        -42.8230   19.6540  -27.2690 N.am   83  SER83      -0.1952
     28  CA       -41.8080   20.7300  -27.3010 C.3    83  SER83       0.1924
     29  C        -40.5240   20.3600  -26.5860 C.2    83  SER83       0.2314
     30  O        -39.4670   20.6220  -27.1360 O.2    83  SER83      -0.2863
     31  CB       -42.3700   22.0010  -26.6750 C.3    83  SER83       0.2116
     32  OG       -43.0500   22.7720  -27.6460 O.3    83  SER83      -0.2180
     33  N        -46.3550   18.5670  -33.2210 N.3   104  GLY104     -0.1225
     34  CA       -47.0300   19.1480  -32.0580 C.3   104  GLY104      0.1811
     35  C        -46.3270   20.1910  -31.1990 C.2   104  GLY104      0.2280
     36  O        -46.9030   20.6340  -30.2280 O.2   104  GLY104     -0.2866
     37  N        -45.1960   23.7040  -29.8590 N.3   106  SER106     -0.1217
     38  CA       -45.5960   25.1210  -29.9150 C.3   106  SER106      0.1889
     39  C        -44.5370   26.0910  -29.3200 C.2   106  SER106      0.2288
     40  O        -44.7150   27.3040  -29.4280 O.2   106  SER106     -0.2866
     41  CB       -46.9190   25.3300  -29.1840 C.3   106  SER106      0.2089
     42  OG       -46.7210   25.0940  -27.8010 O.3   106  SER106     -0.2183
     43  N        -46.9530   22.3940  -36.7170 N.3   123  HIS123     -0.1241
     44  CA       -47.5540   23.0520  -35.6090 C.3   123  HIS123      0.1621
     45  C        -46.9240   24.4380  -35.5320 C.2   123  HIS123      0.2264
     46  O        -45.6780   24.5680  -35.4940 O.2   123  HIS123     -0.2867
     47  CB       -47.2960   22.2950  -34.2950 C.3   123  HIS123      0.0745
     48  CG       -48.1430   22.7880  -33.1810 C.ar  123  HIS123      0.0817
     49  ND1      -48.1320   24.0830  -32.6890 N.ar  123  HIS123     -0.2268
     50  CD2      -49.0600   22.0210  -32.4300 C.ar  123  HIS123      0.1154
     51  CE1      -49.0290   24.0750  -31.7430 C.ar  123  HIS123      0.1986
     52  NE2      -49.6090   22.9460  -31.4970 N.ar  123  HIS123     -0.2212
     53  N        -57.0190   27.6320  -26.0890 N.3   231  TRP231     -0.1241
     54  CA       -57.0450   26.1600  -26.0180 C.3   231  TRP231      0.1605
     55  C        -57.4140   25.5290  -24.7040 C.2   231  TRP231      0.2264
     56  O        -57.2530   24.3190  -24.5680 O.2   231  TRP231     -0.2867
     57  CB       -55.8470   25.4900  -26.7230 C.3   231  TRP231      0.0550
     58  CG       -54.5030   26.0690  -26.3780 C.ar  231  TRP231      0.0003
     59  CD1      -53.7050   26.8230  -27.1920 C.ar  231  TRP231      0.0946
     60  CD2      -53.7940   25.9190  -25.1470 C.ar  231  TRP231      0.0152
     61  NE1      -52.5520   27.1800  -26.5310 N.ar  231  TRP231     -0.2442
     62  CE2      -52.5660   26.6170  -25.2830 C.ar  231  TRP231      0.0810
     63  CE3      -54.0600   25.2390  -23.9400 C.ar  231  TRP231      0.0012
     64  CZ2      -51.6170   26.6730  -24.2560 C.ar  231  TRP231      0.0191
     65  CZ3      -53.1270   25.3270  -22.9040 C.ar  231  TRP231      0.0001
     66  CH2      -51.9300   26.0550  -23.0660 C.ar  231  TRP231      0.0015
     67  N        -54.8050   28.8050  -32.6700 N.3   263  ILE263     -0.1245
     68  CA       -54.4080   28.3470  -34.0090 C.3   263  ILE263      0.1561
     69  C        -55.4980   27.4540  -34.6110 C.2   263  ILE263      0.2260
     70  O        -56.0820   26.6150  -33.9070 O.2   263  ILE263     -0.2867
     71  CB       -53.0250   27.6580  -33.9600 C.3   263  ILE263      0.0252
     72  CG1      -51.9320   28.7060  -33.7060 C.3   263  ILE263      0.0019
     73  CG2      -52.7370   26.8500  -35.2440 C.3   263  ILE263      0.0019
     74  CD1      -50.9140   28.3060  -32.7070 C.3   263  ILE263      0.0001
     75  N        -56.4730   24.4980  -36.5700 N.3   265  MET265     -0.1245
     76  CA       -55.8570   23.2030  -36.8720 C.3   265  MET265      0.1570
     77  C        -56.5830   22.3430  -37.9050 C.2   265  MET265      0.2261
     78  O        -56.0110   21.3860  -38.4110 O.2   265  MET265     -0.2867
     79  CB       -55.5550   22.4350  -35.5920 C.3   265  MET265      0.0387
     80  CG       -54.4120   23.0410  -34.8640 C.3   265  MET265      0.0595
     81  SD       -54.2020   22.3380  -33.2530 S.3   265  MET265     -0.1393
     82  CE       -52.9380   23.4030  -32.6430 C.3   265  MET265      0.0692
     83  N        -54.8030   18.4460  -32.7300 N.3   302  GLU302     -0.1245
     84  CA       -53.5080   18.5200  -33.4180 C.3   302  GLU302      0.1567
     85  C        -53.3440   17.4720  -34.5000 C.2   302  GLU302      0.2260
     86  O        -52.4780   17.6350  -35.3540 O.2   302  GLU302     -0.2867
     87  CB       -52.3570   18.3920  -32.4240 C.3   302  GLU302      0.0388
     88  CG       -52.1740   19.6140  -31.5640 C.3   302  GLU302      0.1160
     89  CD       -53.0790   19.6900  -30.3530 C.2   302  GLU302      0.3649
     90  OE1      -53.5990   18.6480  -29.8910 O.co2 302  GLU302     -0.2457
     91  OE2      -53.2280   20.8110  -29.8390 O.co2 302  GLU302     -0.2457
@<TRIPOS>BOND
     1    78    77    2
     2    77    76    1
     3    76    75    1
     4    76    79    1
     5    43    44    1
     6    44    45    1
     7    44    47    1
     8    79    80    1
     9    45    46    2
    10    86    85    2
    11    73    71    1
    12    80    81    1
    13    69    68    1
    14    69    70    2
    15    85    84    1
    16    47    48    1
    17    68    71    1
    18    68    67    1
    19    71    72    1
    20    72    74    1
    21    84    83    1
    22    84    87    1
    23    81    82    1
    24    33    34    1
    25    48    49   ar
    26    48    50   ar
    27    49    51   ar
    28    50    52   ar
    29    87    88    1
    30    34    35    1
    31    51    52   ar
    32    88    89    1
    33    35    36    2
    34    89    90   ar
    35    89    91   ar
    36    14    12   ar
    37    14    13   ar
    38    38    37    1
    39    38    39    1
    40    38    41    1
    41    12    10   ar
    42    40    39    2
    43    41    42    1
    44    13    11   ar
    45    21    22    1
    46    10     9   ar
    47    10     8   ar
    48    24    23    2
    49    11     8   ar
    50    23    22    1
    51    23    27   am
    52    32    31    1
    53     9     7   ar
    54    22    25    1
    55     8     6   ar
    56    28    27    1
    57    28    31    1
    58    28    29    1
    59    59    61   ar
    60    59    58   ar
    61    30    29    2
    62    57    58    1
    63    57    54    1
    64    61    62   ar
    65    58    60   ar
    66     7     6   ar
    67    53    54    1
    68    25    26    1
    69    54    55    1
    70     6     5    1
    71    26    20    1
    72    62    60   ar
    73    62    64   ar
    74    60    63   ar
    75     4     3    2
    76     5     2    1
    77    55    56    2
    78     3     2    1
    79    64    66   ar
    80    63    65   ar
    81     2     1    1
    82    15    16    1
    83    20    19    1
    84    16    19    1
    85    16    17    1
    86    66    65   ar
    87    17    18    2
