@<TRIPOS>MOLECULE
tmp/4mraA00.pdb
 141 134 0 0 0
SMALL
GASTEIGER

@<TRIPOS>ATOM
      1  N         -1.6170   20.5520   41.7360 N.3   107  ASP107     -0.1239
      2  CA        -1.0190   20.5090   40.4200 C.3   107  ASP107      0.1674
      3  C          0.4990   20.1560   40.5180 C.2   107  ASP107      0.2266
      4  O          1.3240   21.0250   40.8120 O.2   107  ASP107     -0.2867
      5  CB        -1.2490   21.8650   39.7240 C.3   107  ASP107      0.1410
      6  CG        -0.5950   21.9320   38.3360 C.2   107  ASP107      0.3668
      7  OD1        0.0110   20.9180   37.8740 O.co2 107  ASP107     -0.2456
      8  OD2       -0.6670   22.9990   37.7110 O.co2 107  ASP107     -0.2456
      9  N          2.8880   19.8770   38.4870 N.3   109  GLU109     -0.1231
     10  CA         3.8510   20.6480   37.6700 C.3   109  GLU109      0.1699
     11  C          4.2150   21.9380   38.3520 C.2   109  GLU109      0.2592
     12  O          5.3740   22.3780   38.3300 O.2   109  GLU109     -0.2718
     13  CB         3.2840   20.9980   36.3050 C.3   109  GLU109      0.0402
     14  CG         3.5190   19.9460   35.2460 C.3   109  GLU109      0.1161
     15  CD         3.5380   20.5330   33.8300 C.2   109  GLU109      0.3649
     16  OE1        3.4140   21.7850   33.6320 O.co2 109  GLU109     -0.2457
     17  OE2        3.7060   19.7170   32.9060 O.co2 109  GLU109     -0.2457
     18  N          3.2010   22.5360   38.9490 N.am  110  GLU110     -0.1979
     19  CA         3.3600   23.7130   39.7660 C.3   110  GLU110      0.1602
     20  C          4.3050   23.4340   40.9480 C.2   110  GLU110      0.2287
     21  O          5.0600   24.3030   41.3820 O.2   110  GLU110     -0.2864
     22  CB         1.9840   24.1600   40.2750 C.3   110  GLU110      0.0415
     23  CG         1.9640   25.5330   40.9220 C.3   110  GLU110      0.1163
     24  CD         0.7940   25.7050   41.8760 C.2   110  GLU110      0.3649
     25  OE1       -0.3070   25.1730   41.5540 O.co2 110  GLU110     -0.2457
     26  OE2        0.9870   26.3590   42.9390 O.co2 110  GLU110     -0.2457
     27  N          8.1220   23.4260   39.9980 N.3   113  GLU113     -0.1245
     28  CA         8.7350   24.7430   39.8340 C.3   113  GLU113      0.1567
     29  C          9.2960   25.3090   41.1010 C.2   113  GLU113      0.2260
     30  O         10.0130   26.3140   41.0590 O.2   113  GLU113     -0.2867
     31  CB         7.7480   25.7440   39.2300 C.3   113  GLU113      0.0388
     32  CG         7.3800   25.3750   37.8090 C.3   113  GLU113      0.1160
     33  CD         8.5980   25.3470   36.8970 C.2   113  GLU113      0.3649
     34  OE1        8.6970   24.3810   36.1210 O.co2 113  GLU113     -0.2457
     35  OE2        9.4610   26.2550   37.0100 O.co2 113  GLU113     -0.2457
     36  N         11.7120   13.9290   29.7270 N.3   465  LEU465     -0.1231
     37  CA        11.4490   14.8860   30.7710 C.3   465  LEU465      0.1693
     38  C         10.9940   16.2170   30.2280 C.2   465  LEU465      0.2592
     39  O          9.9520   16.7840   30.6490 O.2   465  LEU465     -0.2718
     40  CB        12.7330   15.0490   31.5680 C.3   465  LEU465      0.0284
     41  CG        12.6020   14.9810   33.0520 C.3   465  LEU465      0.0019
     42  CD1       13.8990   14.6340   33.7430 C.3   465  LEU465      0.0001
     43  CD2       12.1750   16.3900   33.4150 C.3   465  LEU465      0.0001
     44  N         11.7760   16.7670   29.3130 N.am  466  CYS466     -0.1970
     45  CA        11.5680   18.1650   28.9910 C.3   466  CYS466      0.1712
     46  C         10.5540   18.3030   27.8690 C.2   466  CYS466      0.2296
     47  O          9.9610   19.3660   27.6800 O.2   466  CYS466     -0.2864
     48  CB        12.8890   18.8300   28.6310 C.3   466  CYS466      0.0983
     49  SG        13.7280   18.1610   27.1930 S.3   466  CYS466     -0.0798
     50  N          7.7570   15.7700   26.8360 N.3   468  PRO468     -0.2116
     51  CA         6.9550   14.5350   26.8950 C.3   468  PRO468      0.1372
     52  C          6.0240   14.3690   25.6620 C.2   468  PRO468      0.2244
     53  O          5.7980   13.2560   25.2470 O.2   468  PRO468     -0.2868
     54  CB         6.1220   14.7030   28.1850 C.3   468  PRO468      0.0268
     55  CG         5.9970   16.1980   28.3580 C.3   468  PRO468      0.0207
     56  CD         7.3170   16.7670   27.8350 C.3   468  PRO468      0.0892
     57  N          4.8620   23.5600   22.4440 N.3   512  ASN512     -0.1240
     58  CA         6.0160   24.0210   23.1990 C.3   512  ASN512      0.1653
     59  C          6.2050   25.5330   23.0900 C.2   512  ASN512      0.2266
     60  O          6.5060   26.2000   24.0850 O.2   512  ASN512     -0.2867
     61  CB         7.2600   23.2610   22.7720 C.3   512  ASN512      0.1155
     62  CG         7.1170   21.8120   23.0580 C.2   512  ASN512      0.2627
     63  OD1        6.2710   21.4740   23.8160 O.2   512  ASN512     -0.2716
     64  ND2        7.9120   20.9540   22.4480 N.am  512  ASN512     -0.0877
     65  N          3.4180   27.3520   25.1410 N.3   515  LYS515     -0.1231
     66  CA         3.7040   27.2080   26.5380 C.3   515  LYS515      0.1693
     67  C          4.8780   28.1170   26.9380 C.2   515  LYS515      0.2592
     68  O          4.8000   28.8030   27.9500 O.2   515  LYS515     -0.2718
     69  CB         4.0160   25.7540   26.8960 C.3   515  LYS515      0.0285
     70  CG         3.7470   25.4330   28.3610 C.3   515  LYS515      0.0035
     71  CD         4.1920   24.0360   28.7540 C.3   515  LYS515      0.0206
     72  CE         3.8670   23.7490   30.2170 C.3   515  LYS515      0.1093
     73  NZ         4.0640   22.3020   30.5770 N.3   515  LYS515     -0.1314
     74  N          5.9460   28.1580   26.1420 N.am  516  PHE516     -0.1976
     75  CA         7.0750   28.9910   26.5170 C.3   516  PHE516      0.1639
     76  C          6.6970   30.4700   26.5090 C.2   516  PHE516      0.2290
     77  O          7.1230   31.2380   27.3760 O.2   516  PHE516     -0.2864
     78  CB         8.2900   28.7480   25.6290 C.3   516  PHE516      0.0560
     79  CG         9.5080   29.4460   26.1150 C.ar  516  PHE516     -0.0200
     80  CD1       10.1540   29.0030   27.2530 C.ar  516  PHE516     -0.0042
     81  CD2        9.9910   30.5530   25.4680 C.ar  516  PHE516     -0.0042
     82  CE1       11.2900   29.6440   27.7150 C.ar  516  PHE516     -0.0003
     83  CE2       11.1010   31.2180   25.9330 C.ar  516  PHE516     -0.0003
     84  CZ        11.7670   30.7610   27.0420 C.ar  516  PHE516     -0.0000
     85  N          4.9600   31.2120   29.7470 N.3   519  TYR519     -0.1241
     86  CA         5.9810   31.4000   30.7920 C.3   519  TYR519      0.1605
     87  C          6.5470   32.8080   30.8080 C.2   519  TYR519      0.2264
     88  O          6.6170   33.4340   31.8570 O.2   519  TYR519     -0.2867
     89  CB         7.1370   30.4540   30.5980 C.3   519  TYR519      0.0534
     90  CG         8.3240   30.6970   31.4960 C.ar  519  TYR519     -0.0201
     91  CD1        8.3470   30.1770   32.7860 C.ar  519  TYR519     -0.0009
     92  CD2        9.4430   31.3840   31.0470 C.ar  519  TYR519     -0.0009
     93  CE1        9.4310   30.3540   33.6160 C.ar  519  TYR519      0.0417
     94  CE2       10.5440   31.5680   31.8830 C.ar  519  TYR519      0.0417
     95  CZ        10.5170   31.0450   33.1690 C.ar  519  TYR519      0.1957
     96  OH        11.5750   31.1900   34.0260 O.3   519  TYR519     -0.2866
     97  N          3.7530   35.4030   31.9370 N.3   522  ARG522     -0.1231
     98  CA         3.4480   35.2220   33.3730 C.3   522  ARG522      0.1694
     99  C          4.5780   35.6590   34.3130 C.2   522  ARG522      0.2591
    100  O          4.3590   36.4320   35.2330 O.2   522  ARG522     -0.2718
    101  CB         3.0720   33.7540   33.6980 C.3   522  ARG522      0.0321
    102  CG         1.5590   33.4780   33.7980 C.3   522  ARG522      0.0489
    103  CD         1.2110   32.0040   34.0200 C.3   522  ARG522      0.2205
    104  NE         2.3150   31.3010   34.6780 N.pl3 522  ARG522     -0.0865
    105  CZ         3.0750   30.3460   34.1330 C.cat 522  ARG522      0.5346
    106  NH1        4.0590   29.8240   34.8530 N.pl3 522  ARG522      0.1354
    107  NH2        2.8670   29.8880   32.8920 N.pl3 522  ARG522      0.1354
    108  N          5.7800   35.1450   34.0890 N.am  523  GLU523     -0.1979
    109  CA         6.8760   35.3450   35.0310 C.3   523  GLU523      0.1602
    110  C          7.6960   36.5990   34.7350 C.2   523  GLU523      0.2287
    111  O          8.4690   37.0270   35.5970 O.2   523  GLU523     -0.2864
    112  CB         7.7720   34.0850   35.1270 C.3   523  GLU523      0.0415
    113  CG         7.7770   33.4040   36.5060 C.3   523  GLU523      0.1163
    114  CD         6.6870   32.3490   36.7000 C.2   523  GLU523      0.3649
    115  OE1        5.5360   32.5460   36.2480 O.co2 523  GLU523     -0.2457
    116  OE2        6.9760   31.2970   37.3190 O.co2 523  GLU523     -0.2457
    117  N         15.4880   23.2810   29.8560 N.3   625  GLU625     -0.1231
    118  CA        14.3880   22.3050   29.6610 C.3   625  GLU625      0.1699
    119  C         13.0930   22.9560   29.1750 C.2   625  GLU625      0.2592
    120  O         12.2810   22.2990   28.5380 O.2   625  GLU625     -0.2718
    121  CB        14.1410   21.4940   30.9250 C.3   625  GLU625      0.0402
    122  CG        15.3330   20.6060   31.3620 C.3   625  GLU625      0.1161
    123  CD        15.2070   20.0960   32.8190 C.2   625  GLU625      0.3649
    124  OE1       16.2130   19.6550   33.4280 O.co2 625  GLU625     -0.2457
    125  OE2       14.0900   20.1170   33.3710 O.co2 625  GLU625     -0.2457
    126  N         12.9380   24.2580   29.4030 N.am  626  LYS626     -0.1980
    127  CA        11.7890   24.9960   28.8810 C.3   626  LYS626      0.1596
    128  C         11.9990   25.5710   27.4690 C.2   626  LYS626      0.2287
    129  O         11.1400   25.3930   26.5780 O.2   626  LYS626     -0.2864
    130  CB        11.3740   26.1370   29.8110 C.3   626  LYS626      0.0298
    131  CG        10.9610   25.7600   31.2340 C.3   626  LYS626      0.0038
    132  CD        10.4680   27.0450   31.9060 C.3   626  LYS626      0.0206
    133  CE        10.0190   26.8970   33.3590 C.3   626  LYS626      0.1093
    134  NZ        10.8610   26.0870   34.2350 N.3   626  LYS626     -0.1314
    135  N         12.8890   22.8730   23.9710 N.3   629  PRO629     -0.2116
    136  CA        11.7730   22.2910   23.2060 C.3   629  PRO629      0.1372
    137  C         10.9380   23.2830   22.4280 C.2   629  PRO629      0.2244
    138  O         10.2700   22.8590   21.5110 O.2   629  PRO629     -0.2868
    139  CB        10.9210   21.6030   24.2780 C.3   629  PRO629      0.0268
    140  CG        11.8960   21.2870   25.3680 C.3   629  PRO629      0.0207
    141  CD        12.8780   22.4280   25.3740 C.3   629  PRO629      0.0892
@<TRIPOS>BOND
     1   138   137    2
     2   137   136    1
     3    57    58    1
     4    64    62   am
     5    61    62    1
     6    61    58    1
     7    62    63    2
     8    59    58    1
     9    59    60    2
    10   136   135    1
    11   136   139    1
    12   135   141    1
    13   139   140    1
    14    65    66    1
    15    53    52    2
    16   140   141    1
    17    81    83   ar
    18    81    79   ar
    19    78    79    1
    20    78    75    1
    21    52    51    1
    22    83    84   ar
    23    79    80   ar
    24    74    75    1
    25    74    67   am
    26    76    75    1
    27    76    77    2
    28    66    69    1
    29    66    67    1
    30   129   128    2
    31    50    51    1
    32    50    56    1
    33    51    54    1
    34    69    70    1
    35    67    68    2
    36    84    82   ar
    37    49    48    1
    38    80    82   ar
    39   128   127    1
    40    47    46    2
    41    56    55    1
    42    46    45    1
    43    54    55    1
    44    70    71    1
    45   120   119    2
    46    48    45    1
    47    71    72    1
    48   127   126    1
    49   127   130    1
    50    45    44    1
    51   119   126   am
    52   119   118    1
    53    44    38   am
    54   118   117    1
    55   118   121    1
    56    36    37    1
    57    85    86    1
    58   130   131    1
    59    72    73    1
    60    38    39    2
    61    38    37    1
    62    89    86    1
    63    89    90    1
    64    37    40    1
    65    86    87    1
    66    87    88    2
    67   121   122    1
    68    92    90   ar
    69    92    94   ar
    70   131   132    1
    71   122   123    1
    72    90    91   ar
    73    40    41    1
    74    94    95   ar
    75   132   133    1
    76    97    98    1
    77    91    93   ar
    78   123   125   ar
    79   123   124   ar
    80   107   105    1
    81    17    15   ar
    82    41    43    1
    83    41    42    1
    84    95    93   ar
    85    95    96    1
    86   133   134    1
    87    98   101    1
    88    98    99    1
    89    16    15   ar
    90   101   102    1
    91   102   103    1
    92    15    14    1
    93   103   104    1
    94   108    99   am
    95   108   109    1
    96   105   104    2
    97   105   106    1
    98    99   100    2
    99   110   109    1
   100   110   111    2
   101   109   112    1
   102   112   113    1
   103    14    13    1
   104    34    33   ar
   105   115   114   ar
   106    13    10    1
   107   113   114    1
   108   114   116   ar
   109    33    35   ar
   110    33    32    1
   111    10    11    1
   112    10     9    1
   113     8     6   ar
   114    32    31    1
   115     7     6   ar
   116    12    11    2
   117     6     5    1
   118    11    18   am
   119    18    19    1
   120    31    28    1
   121     5     2    1
   122    19    22    1
   123    19    20    1
   124    28    27    1
   125    28    29    1
   126    22    23    1
   127     2     3    1
   128     2     1    1
   129     3     4    2
   130    23    24    1
   131    20    21    2
   132    30    29    2
   133    25    24   ar
   134    24    26   ar
