@<TRIPOS>MOLECULE
tmp/4mrdA00.pdb
 111 110 0 0 0
SMALL
GASTEIGER

@<TRIPOS>ATOM
      1  N         12.1270   -1.8040    8.2530 N.3    21  ARG21      -0.1231
      2  CA        10.9370   -2.6080    8.3460 C.3    21  ARG21       0.1694
      3  C         10.2260   -2.2580    9.6440 C.2    21  ARG21       0.2592
      4  O         10.8570   -2.1760   10.6940 O.2    21  ARG21      -0.2718
      5  CB        11.3560   -4.0890    8.2250 C.3    21  ARG21       0.0321
      6  CG        10.6090   -5.1250    9.0370 C.3    21  ARG21       0.0489
      7  CD        11.2270   -6.5210    8.8300 C.3    21  ARG21       0.2205
      8  NE        10.6030   -7.4960    9.7230 N.pl3  21  ARG21      -0.0865
      9  CZ        11.1350   -7.9050   10.8730 C.cat  21  ARG21       0.5346
     10  NH1       10.4780   -8.7830   11.6360 N.pl3  21  ARG21       0.1354
     11  NH2       12.3270   -7.4460   11.2590 N.pl3  21  ARG21       0.1354
     12  N          8.9240   -2.0060    9.5570 N.am   22  TYR22      -0.1976
     13  CA         8.0890   -1.6890   10.7290 C.3    22  TYR22       0.1639
     14  C          8.4730   -0.3480   11.3810 C.2    22  TYR22       0.2290
     15  O          8.8460   -0.2940   12.5590 O.2    22  TYR22      -0.2864
     16  CB         8.0850   -2.8200   11.7920 C.3    22  TYR22       0.0560
     17  CG         7.6680   -4.2130   11.3240 C.ar   22  TYR22      -0.0198
     18  CD1        6.7820   -4.3940   10.2630 C.ar   22  TYR22      -0.0009
     19  CD2        8.1290   -5.3540   11.9870 C.ar   22  TYR22      -0.0009
     20  CE1        6.4060   -5.6730    9.8470 C.ar   22  TYR22       0.0417
     21  CE2        7.7540   -6.6330   11.5810 C.ar   22  TYR22       0.0417
     22  CZ         6.8950   -6.7820   10.5100 C.ar   22  TYR22       0.1957
     23  OH         6.5190   -8.0420   10.0950 O.3    22  TYR22      -0.2866
     24  N          5.1890  -11.2340    3.8700 N.3    57  CYS57      -0.1221
     25  CA         5.6790  -11.7960    5.1120 C.3    57  CYS57       0.1808
     26  C          5.9470  -10.6410    6.0550 C.2    57  CYS57       0.2601
     27  O          6.9500  -10.6280    6.7850 O.2    57  CYS57      -0.2717
     28  CB         6.9450  -12.6250    4.8730 C.3    57  CYS57       0.0970
     29  SG         7.5030  -13.5540    6.3500 S.3    57  CYS57      -0.0800
     30  N          5.0400   -9.6630    6.0230 N.am   58  ARG58      -0.1965
     31  CA         5.1700   -8.4320    6.8070 C.3    58  ARG58       0.1729
     32  C          3.8030   -7.9910    7.3070 C.2    58  ARG58       0.2616
     33  O          2.8440   -7.9660    6.5360 O.2    58  ARG58      -0.2715
     34  CB         5.8320   -7.3260    5.9640 C.3    58  ARG58       0.0348
     35  CG         7.3360   -7.5230    5.7170 C.3    58  ARG58       0.0492
     36  CD         8.2120   -6.6880    6.6660 C.3    58  ARG58       0.2205
     37  NE         9.6290   -6.7380    6.2910 N.pl3  58  ARG58      -0.0865
     38  CZ        10.2770   -5.8620    5.5010 C.cat  58  ARG58       0.5346
     39  NH1        9.6540   -4.8110    4.9830 N.pl3  58  ARG58       0.1354
     40  NH2       11.5780   -6.0260    5.2370 N.pl3  58  ARG58       0.1354
     41  N          3.7160   -7.6610    8.5990 N.am   59  TYR59      -0.1974
     42  CA         2.5170   -7.0550    9.1850 C.3    59  TYR59       0.1639
     43  C          2.3300   -5.6210    8.7270 C.2    59  TYR59       0.2290
     44  O          3.2940   -4.8730    8.5810 O.2    59  TYR59      -0.2864
     45  CB         2.6150   -7.0410   10.7040 C.3    59  TYR59       0.0560
     46  CG         2.5050   -8.4020   11.3400 C.ar   59  TYR59      -0.0198
     47  CD1        1.2560   -9.0040   11.5330 C.ar   59  TYR59      -0.0009
     48  CD2        3.6460   -9.0890   11.7520 C.ar   59  TYR59      -0.0009
     49  CE1        1.1510  -10.2530   12.1190 C.ar   59  TYR59       0.0417
     50  CE2        3.5510  -10.3410   12.3430 C.ar   59  TYR59       0.0417
     51  CZ         2.3080  -10.9220   12.5150 C.ar   59  TYR59       0.1957
     52  OH         2.2160  -12.1650   13.0940 O.3    59  TYR59      -0.2866
     53  N         -1.6240   -9.5520    8.0630 N.3    68  ILE68      -0.1245
     54  CA        -0.6630  -10.0710    7.1050 C.3    68  ILE68       0.1561
     55  C         -1.4060  -11.0900    6.2580 C.2    68  ILE68       0.2260
     56  O         -2.0380  -11.9980    6.8010 O.2    68  ILE68      -0.2867
     57  CB         0.5900  -10.6580    7.7960 C.3    68  ILE68       0.0252
     58  CG1        1.4890  -11.3540    6.7850 C.3    68  ILE68       0.0019
     59  CG2        0.2080  -11.5920    8.9310 C.3    68  ILE68       0.0019
     60  CD1        2.6990  -11.9880    7.3920 C.3    68  ILE68       0.0001
     61  N          6.4760  -20.8370    8.5580 N.3    75  ALA75      -0.1231
     62  CA         6.6910  -20.8270   10.0070 C.3    75  ALA75       0.1694
     63  C          7.0370  -19.4230   10.5600 C.2    75  ALA75       0.2592
     64  O          6.5870  -19.0330   11.6580 O.2    75  ALA75      -0.2718
     65  CB         7.7570  -21.8680   10.3870 C.3    75  ALA75       0.0304
     66  N          7.8140  -18.6660    9.7800 N.am   76  ILE76      -0.1966
     67  CA         8.1870  -17.2830   10.1260 C.3    76  ILE76       0.1727
     68  C          7.2350  -16.1900    9.5600 C.2    76  ILE76       0.2616
     69  O          7.4510  -14.9970    9.8080 O.2    76  ILE76      -0.2715
     70  CB         9.6470  -16.9830    9.7000 C.3    76  ILE76       0.0290
     71  CG1        9.8190  -17.1760    8.1790 C.3    76  ILE76       0.0022
     72  CG2       10.5980  -17.8750   10.4800 C.3    76  ILE76       0.0023
     73  CD1       11.1690  -16.7360    7.6030 C.3    76  ILE76       0.0001
     74  N          6.2010  -16.5690    8.8030 N.am   77  CYS77      -0.1954
     75  CA         5.2100  -15.5820    8.3830 C.3    77  CYS77       0.1843
     76  C          3.8290  -15.9370    8.9070 C.2    77  CYS77       0.2625
     77  O          3.0550  -16.6260    8.2370 O.2    77  CYS77      -0.2714
     78  CB         5.1610  -15.4180    6.8710 C.3    77  CYS77       0.0997
     79  SG         6.7370  -15.4110    6.0350 S.3    77  CYS77      -0.0797
     80  N          3.5250  -15.4590   10.1100 N.am   78  ALA78      -0.1963
     81  CA         2.2110  -15.6350   10.7420 C.3    78  ALA78       0.1728
     82  C          2.0030  -17.0190   11.3630 C.2    78  ALA78       0.2616
     83  O          0.8700  -17.3840   11.7130 O.2    78  ALA78      -0.2715
     84  CB         1.0710  -15.2740    9.7630 C.3    78  ALA78       0.0334
     85  N          3.1020  -17.7700   11.5100 N.am   79  ALA79      -0.1977
     86  CA         3.1110  -19.1130   12.1300 C.3    79  ALA79       0.1597
     87  C          2.1680  -20.0860   11.4250 C.2    79  ALA79       0.2287
     88  O          1.3060  -20.7030   12.0670 O.2    79  ALA79      -0.2864
     89  CB         2.7860  -19.0370   13.6460 C.3    79  ALA79       0.0319
     90  N         -0.4090  -19.7630    9.6590 N.3    81  HIS81      -0.1241
     91  CA        -1.7890  -19.4040    9.3920 C.3    81  HIS81       0.1621
     92  C         -1.9270  -19.0350    7.9040 C.2    81  HIS81       0.2264
     93  O         -0.9370  -18.7000    7.2270 O.2    81  HIS81      -0.2867
     94  CB        -2.2600  -18.2630   10.2950 C.3    81  HIS81       0.0745
     95  CG        -2.4440  -18.6580   11.7260 C.ar   81  HIS81       0.0817
     96  ND1       -1.3980  -18.7050   12.6280 N.ar   81  HIS81      -0.2268
     97  CD2       -3.5530  -19.0110   12.4170 C.ar   81  HIS81       0.1154
     98  CE1       -1.8540  -19.0800   13.8100 C.ar   81  HIS81       0.1986
     99  NE2       -3.1590  -19.2660   13.7100 N.ar   81  HIS81      -0.2212
    100  N         -4.6270  -12.7900    8.1700 N.3    85  TYR85      -0.1241
    101  CA        -4.4220  -12.9910    9.6000 C.3    85  TYR85       0.1605
    102  C         -4.3300  -11.6580   10.3170 C.2    85  TYR85       0.2264
    103  O         -3.5250  -10.7750    9.9640 O.2    85  TYR85      -0.2867
    104  CB        -3.1830  -13.8560    9.9130 C.3    85  TYR85       0.0534
    105  CG        -2.9400  -14.0060   11.4220 C.ar   85  TYR85      -0.0201
    106  CD1       -3.7770  -14.7990   12.2120 C.ar   85  TYR85      -0.0009
    107  CD2       -1.9060  -13.3220   12.0560 C.ar   85  TYR85      -0.0009
    108  CE1       -3.5820  -14.9100   13.5990 C.ar   85  TYR85       0.0417
    109  CE2       -1.7010  -13.4260   13.4430 C.ar   85  TYR85       0.0417
    110  CZ        -2.5450  -14.2230   14.2060 C.ar   85  TYR85       0.1957
    111  OH        -2.3410  -14.3430   15.5720 O.3    85  TYR85      -0.2866
@<TRIPOS>BOND
     1    24    25    1
     2    28    25    1
     3    28    29    1
     4    39    38    1
     5    25    26    1
     6    40    38    1
     7    38    37    2
     8    35    34    1
     9    35    36    1
    10    34    31    1
    11    30    26   am
    12    30    31    1
    13    79    29    1
    14    79    78    1
    15    26    27    2
    16    55    56    2
    17    55    54    1
    18    37    36    1
    19    33    32    2
    20    58    60    1
    21    58    57    1
    22    31    32    1
    23    78    75    1
    24    54    57    1
    25    54    53    1
    26    93    92    2
    27    32    41   am
    28    73    71    1
    29    57    59    1
    30    92    91    1
    31   100   101    1
    32    71    70    1
    33     5     2    1
    34     5     6    1
    35    77    76    2
    36     1     2    1
    37     2     3    1
    38    75    74    1
    39    75    76    1
    40    61    62    1
    41    44    43    2
    42    41    42    1
    43    43    42    1
    44    74    68   am
    45     7     6    1
    46     7     8    1
    47    76    80   am
    48    42    45    1
    49    91    90    1
    50    91    94    1
    51    12     3   am
    52    12    13    1
    53    68    69    2
    54    68    67    1
    55   101   104    1
    56   101   102    1
    57     3     4    2
    58    70    67    1
    59    70    72    1
    60     8     9    2
    61    84    81    1
    62    66    67    1
    63    66    63   am
    64    20    18   ar
    65    20    22   ar
    66   104   105    1
    67   103   102    2
    68    62    65    1
    69    62    63    1
    70    23    22    1
    71    80    81    1
    72    18    17   ar
    73    94    95    1
    74    22    21   ar
    75    63    64    2
    76    45    46    1
    77    13    14    1
    78    13    16    1
    79    81    82    1
    80     9    11    1
    81     9    10    1
    82    17    16    1
    83    17    19   ar
    84    46    47   ar
    85    46    48   ar
    86    82    85   am
    87    82    83    2
    88    14    15    2
    89   105   107   ar
    90   105   106   ar
    91    87    88    2
    92    87    86    1
    93    85    86    1
    94    47    49   ar
    95    21    19   ar
    96    95    97   ar
    97    95    96   ar
    98    48    50   ar
    99   107   109   ar
   100    49    51   ar
   101    86    89    1
   102   106   108   ar
   103    50    51   ar
   104    97    99   ar
   105    51    52    1
   106    96    98   ar
   107   109   110   ar
   108   108   110   ar
   109    99    98   ar
   110   110   111    1
