@<TRIPOS>MOLECULE
tmp/4mrgA00.pdb
 82 77 0 0 0
SMALL
GASTEIGER

@<TRIPOS>ATOM
      1  N          9.1940    1.4540    0.0890 N.3     6  ASN6       -0.1225
      2  CA         9.2980    0.2240   -0.6770 C.3     6  ASN6        0.1785
      3  C          7.9080   -0.2450   -0.9660 C.2     6  ASN6        0.2597
      4  O          7.1390   -0.4390   -0.0270 O.2     6  ASN6       -0.2718
      5  CB         9.9780   -0.8640    0.1660 C.3     6  ASN6        0.1169
      6  CG        11.4080   -0.5400    0.4890 C.2     6  ASN6        0.2627
      7  OD1       12.0900    0.2240   -0.2140 O.2     6  ASN6       -0.2716
      8  ND2       11.8780   -1.1000    1.5990 N.am    6  ASN6       -0.0877
      9  N          7.5900   -0.4460   -2.2340 N.am    7  VAL7       -0.1966
     10  CA         6.1880   -0.7660   -2.5960 C.3     7  VAL7        0.1727
     11  C          6.1070   -2.0810   -3.3780 C.2     7  VAL7        0.2616
     12  O          7.0050   -2.4560   -4.1520 O.2     7  VAL7       -0.2715
     13  CB         5.5310    0.3400   -3.4300 C.3     7  VAL7        0.0290
     14  CG1        5.5220    1.6920   -2.6730 C.3     7  VAL7        0.0023
     15  CG2        6.2680    0.5320   -4.7710 C.3     7  VAL7        0.0023
     16  N          5.0060   -2.7680   -3.1610 N.am    8  THR8       -0.1951
     17  CA         4.7250   -4.0380   -3.8400 C.3     8  THR8        0.1897
     18  C          3.8240   -3.9160   -5.0660 C.2     8  THR8        0.2313
     19  O          3.2660   -2.8730   -5.3560 O.2     8  THR8       -0.2863
     20  CB         4.0440   -5.0700   -2.9020 C.3     8  THR8        0.1794
     21  OG1        2.6980   -4.6440   -2.5690 O.3     8  THR8       -0.2208
     22  CG2        4.8700   -5.2850   -1.6280 C.3     8  THR8        0.0378
     23  N          1.4170   -3.1980   -0.3930 N.3    16  HIS16      -0.1241
     24  CA         2.1960   -3.0560    0.8730 C.3    16  HIS16       0.1621
     25  C          3.2780   -1.9670    0.7200 C.2    16  HIS16       0.2264
     26  O          3.9370   -1.9130   -0.3260 O.2    16  HIS16      -0.2867
     27  CB         2.8230   -4.4390    1.1820 C.3    16  HIS16       0.0745
     28  CG         3.8130   -4.4490    2.3000 C.ar   16  HIS16       0.0817
     29  ND1        5.1170   -4.8850    2.1350 N.ar   16  HIS16      -0.2268
     30  CD2        3.6940   -4.0990    3.6070 C.ar   16  HIS16       0.1154
     31  CE1        5.7570   -4.7950    3.2880 C.ar   16  HIS16       0.1986
     32  NE2        4.9120   -4.3320    4.1990 N.ar   16  HIS16      -0.2212
     33  N          6.6500   -0.2520    2.8470 N.3    18  GLU18      -0.1245
     34  CA         7.5810   -0.2030    4.0010 C.3    18  GLU18       0.1567
     35  C          8.3110    1.0910    3.9550 C.2    18  GLU18       0.2260
     36  O          8.8220    1.4510    2.8780 O.2    18  GLU18      -0.2867
     37  CB         8.6760   -1.2900    3.9460 C.3    18  GLU18       0.0388
     38  CG         8.2080   -2.6980    3.9360 C.3    18  GLU18       0.1160
     39  CD         9.3170   -3.6760    3.6080 C.2    18  GLU18       0.3649
     40  OE1       10.3880   -3.2760    3.0490 O.co2  18  GLU18      -0.2457
     41  OE2        9.0740   -4.8670    3.8500 O.co2  18  GLU18      -0.2457
     42  N         12.2980    0.2620    4.7790 N.3    21  GLY21      -0.1225
     43  CA        12.5070   -1.1530    4.9400 C.3    21  GLY21       0.1811
     44  C         12.5490   -1.6200    6.3940 C.2    21  GLY21       0.2280
     45  O         13.1730   -2.6460    6.6840 O.2    21  GLY21      -0.2866
     46  N          5.0530   -9.3970    6.3810 N.3    59  ARG59      -0.1245
     47  CA         5.1650   -8.1620    7.1690 C.3    59  ARG59       0.1563
     48  C          3.8260   -7.6650    7.7640 C.2    59  ARG59       0.2260
     49  O          2.7880   -7.5880    7.0650 O.2    59  ARG59      -0.2867
     50  CB         5.7420   -7.0290    6.3070 C.3    59  ARG59       0.0307
     51  CG         7.1520   -7.3190    5.7910 C.3    59  ARG59       0.0489
     52  CD         8.2440   -7.0580    6.8730 C.3    59  ARG59       0.2205
     53  NE         8.3980   -5.6150    7.1680 N.pl3  59  ARG59      -0.0865
     54  CZ         9.2900   -5.0850    8.0050 C.cat  59  ARG59       0.5346
     55  NH1        9.3210   -3.7480    8.1540 N.pl3  59  ARG59       0.1354
     56  NH2       10.2030   -5.8580    8.6070 N.pl3  59  ARG59       0.1354
     57  N         10.5700    2.9280   -4.1200 N.3   130  VAL130     -0.1231
     58  CA        11.4890    1.8440   -4.5140 C.3   130  VAL130      0.1692
     59  C         10.6540    0.6270   -4.8580 C.2   130  VAL130      0.2592
     60  O          9.9900    0.0590   -3.9750 O.2   130  VAL130     -0.2718
     61  CB        12.5110    1.4850   -3.3970 C.3   130  VAL130      0.0266
     62  CG1       13.5140    0.4130   -3.9160 C.3   130  VAL130      0.0020
     63  CG2       13.2310    2.7690   -2.8670 C.3   130  VAL130      0.0020
     64  N         10.6970    0.2110   -6.1320 N.am  131  ASN131     -0.1960
     65  CA         9.9910   -0.9990   -6.5440 C.3   131  ASN131      0.1819
     66  C         10.7900   -2.2550   -6.2630 C.2   131  ASN131      0.2621
     67  O         12.0060   -2.1870   -6.0280 O.2   131  ASN131     -0.2715
     68  CB         9.6350   -0.8790   -8.0200 C.3   131  ASN131      0.1195
     69  CG         8.6030    0.1760   -8.2340 C.2   131  ASN131      0.2630
     70  OD1        7.3920   -0.0770   -8.0550 O.2   131  ASN131     -0.2716
     71  ND2        9.0540    1.3950   -8.5560 N.am  131  ASN131     -0.0877
     72  N         10.1160   -3.3970   -6.2360 N.am  132  ARG132     -0.1977
     73  CA        10.8000   -4.6280   -5.9060 C.3   132  ARG132      0.1597
     74  C         11.8410   -5.0040   -6.9650 C.2   132  ARG132      0.2287
     75  O         12.8430   -5.6140   -6.6340 O.2   132  ARG132     -0.2864
     76  CB         9.8150   -5.7710   -5.5900 C.3   132  ARG132      0.0334
     77  CG        10.4590   -7.0990   -5.2380 C.3   132  ARG132      0.0492
     78  CD        11.2170   -7.0740   -3.9150 C.3   132  ARG132      0.2205
     79  NE        12.5400   -6.4250   -4.0280 N.pl3 132  ARG132     -0.0865
     80  CZ        13.5000   -6.5610   -3.1100 C.cat 132  ARG132      0.5346
     81  NH1       13.2920   -7.3370   -2.0580 N.pl3 132  ARG132      0.1354
     82  NH2       14.6510   -5.9430   -3.2480 N.pl3 132  ARG132      0.1354
@<TRIPOS>BOND
     1    71    69   am
     2    69    70    2
     3    69    68    1
     4    68    65    1
     5    74    75    2
     6    74    73    1
     7    65    66    1
     8    65    64    1
     9    66    72   am
    10    66    67    2
    11    72    73    1
    12    64    59   am
    13    73    76    1
    14    76    77    1
    15    19    18    2
    16    77    78    1
    17    18    17    1
    18    59    58    1
    19    59    60    2
    20    15    13    1
    21    58    57    1
    22    58    61    1
    23    12    11    2
    24    79    78    1
    25    79    80    2
    26    62    61    1
    27    17    16    1
    28    17    20    1
    29    13    14    1
    30    13    10    1
    31    61    63    1
    32    11    16   am
    33    11    10    1
    34    82    80    1
    35    80    81    1
    36    20    21    1
    37    20    22    1
    38    10     9    1
    39     9     3   am
    40     3     2    1
    41     3     4    2
    42     2     1    1
    43     2     5    1
    44    23    24    1
    45    26    25    2
    46     7     6    2
    47     5     6    1
    48     6     8   am
    49    25    24    1
    50    24    27    1
    51    27    28    1
    52    29    28   ar
    53    29    31   ar
    54    28    30   ar
    55    33    34    1
    56    36    35    2
    57    40    39   ar
    58    31    32   ar
    59    30    32   ar
    60    39    41   ar
    61    39    38    1
    62    38    37    1
    63    37    34    1
    64    35    34    1
    65    42    43    1
    66    43    44    1
    67    51    50    1
    68    51    52    1
    69    50    47    1
    70    46    47    1
    71    44    45    2
    72    52    53    1
    73    49    48    2
    74    53    54    2
    75    47    48    1
    76    54    55    1
    77    54    56    1
