@<TRIPOS>MOLECULE
tmp/4mrhA00.pdb
 96 91 0 0 0
SMALL
GASTEIGER

@<TRIPOS>ATOM
      1  N          0.5490   -4.5990   -6.9060 N.3    10  ARG10      -0.1245
      2  CA        -0.8230   -4.4050   -6.4310 C.3    10  ARG10       0.1563
      3  C         -1.6530   -5.6290   -6.7660 C.2    10  ARG10       0.2260
      4  O         -1.4980   -6.2280   -7.8590 O.2    10  ARG10      -0.2867
      5  CB        -1.4970   -3.1930   -7.0790 C.3    10  ARG10       0.0307
      6  CG        -1.1330   -1.8480   -6.4340 C.3    10  ARG10       0.0489
      7  CD         0.3360   -1.4220   -6.6230 C.3    10  ARG10       0.2205
      8  NE         0.5990   -1.2510   -8.0670 N.pl3  10  ARG10      -0.0865
      9  CZ         1.7160   -1.5420   -8.7300 C.cat  10  ARG10       0.5346
     10  NH1        2.7850   -2.0290   -8.1500 N.pl3  10  ARG10       0.1354
     11  NH2        1.7480   -1.3120  -10.0480 N.pl3  10  ARG10       0.1354
     12  N         -1.6340   -2.9220   -1.9590 N.3    15  PHE15      -0.1241
     13  CA        -0.1950   -3.0920   -1.9730 C.3    15  PHE15       0.1605
     14  C          0.3980   -2.8070   -0.6190 C.2    15  PHE15       0.2264
     15  O         -0.2600   -2.2470    0.2820 O.2    15  PHE15      -0.2867
     16  CB         0.4850   -2.2290   -3.0610 C.3    15  PHE15       0.0534
     17  CG         0.2550   -0.7280   -2.9490 C.ar   15  PHE15      -0.0203
     18  CD1        1.3190    0.1370   -2.5970 C.ar   15  PHE15      -0.0042
     19  CD2       -0.9710   -0.1360   -3.2490 C.ar   15  PHE15      -0.0042
     20  CE1        1.1260    1.5260   -2.5360 C.ar   15  PHE15      -0.0003
     21  CE2       -1.1390    1.2310   -3.1800 C.ar   15  PHE15      -0.0003
     22  CZ        -0.0780    2.0560   -2.8380 C.ar   15  PHE15      -0.0000
     23  N         -0.3470    8.3050   -2.1610 N.3    37  PHE37      -0.1241
     24  CA        -0.5360    7.4070   -3.2990 C.3    37  PHE37       0.1605
     25  C         -1.9780    7.4510   -3.8520 C.2    37  PHE37       0.2264
     26  O         -2.3790    6.5100   -4.5770 O.2    37  PHE37      -0.2867
     27  CB        -0.1950    5.9500   -2.9410 C.3    37  PHE37       0.0534
     28  CG         1.2650    5.6810   -2.6910 C.ar   37  PHE37      -0.0203
     29  CD1        2.1410    5.4440   -3.7400 C.ar   37  PHE37      -0.0042
     30  CD2        1.7650    5.5850   -1.3980 C.ar   37  PHE37      -0.0042
     31  CE1        3.5090    5.1640   -3.5000 C.ar   37  PHE37      -0.0003
     32  CE2        3.0950    5.3070   -1.1430 C.ar   37  PHE37      -0.0003
     33  CZ         3.9750    5.0980   -2.1970 C.ar   37  PHE37      -0.0000
     34  N         -5.6090    1.3500   -3.7830 N.3   102  ASN102     -0.1240
     35  CA        -5.8720    2.2950   -4.8500 C.3   102  ASN102      0.1653
     36  C         -6.9640    1.7530   -5.7680 C.2   102  ASN102      0.2266
     37  O         -6.7790    0.7770   -6.4580 O.2   102  ASN102     -0.2867
     38  CB        -4.6120    2.5320   -5.6570 C.3   102  ASN102      0.1155
     39  CG        -4.7880    3.7290   -6.6110 C.2   102  ASN102      0.2627
     40  OD1       -5.8120    3.8630   -7.2680 O.2   102  ASN102     -0.2716
     41  ND2       -3.8410    4.6690   -6.6170 N.am  102  ASN102     -0.0877
     42  N         -6.3810    0.9800   -9.6120 N.3   105  ALA105     -0.1245
     43  CA        -5.4710   -0.0290  -10.0320 C.3   105  ALA105      0.1562
     44  C         -6.2330   -1.1260  -10.7840 C.2   105  ALA105      0.2260
     45  O         -7.4490   -1.1970  -10.7050 O.2   105  ALA105     -0.2867
     46  CB        -4.7320   -0.6000   -8.8140 C.3   105  ALA105      0.0290
     47  N         -1.1530   -6.7660  -10.4960 N.3   110  ASP110     -0.1239
     48  CA        -0.4460   -5.7720  -11.2880 C.3   110  ASP110      0.1674
     49  C          0.9690   -5.6770  -10.7420 C.2   110  ASP110      0.2266
     50  O          1.2480   -5.0010   -9.6960 O.2   110  ASP110     -0.2867
     51  CB        -1.1500   -4.4240  -11.1870 C.3   110  ASP110      0.1410
     52  CG        -0.4020   -3.3370  -11.9110 C.2   110  ASP110      0.3668
     53  OD1        0.5200   -3.6610  -12.7130 O.co2 110  ASP110     -0.2456
     54  OD2       -0.7370   -2.1520  -11.7570 O.co2 110  ASP110     -0.2456
     55  N          3.5250   -4.3510  -12.3760 N.3   112  THR112     -0.1203
     56  CA         4.3120   -3.2850  -12.9550 C.3   112  THR112      0.1994
     57  C          4.8470   -2.4300  -11.8260 C.2   112  THR112      0.2619
     58  O          4.3550   -2.4840  -10.6620 O.2   112  THR112     -0.2717
     59  CB         3.4800   -2.4300  -13.9430 C.3   112  THR112      0.1784
     60  OG1        2.3950   -1.8100  -13.2260 O.3   112  THR112     -0.2211
     61  CG2        2.9540   -3.2680  -15.1070 C.3   112  THR112      0.0376
     62  N          5.8370   -1.6240  -12.1240 N.am  113  SER113     -0.1937
     63  CA         6.4440   -0.7640  -11.1210 C.3   113  SER113      0.2055
     64  C          5.6070    0.4860  -10.8730 C.2   113  SER113      0.2643
     65  O          4.8400    0.9590  -11.7520 O.2   113  SER113     -0.2714
     66  CB         7.8890   -0.4480  -11.5280 C.3   113  SER113      0.2130
     67  OG         7.8910    0.0410  -12.8530 O.3   113  SER113     -0.2179
     68  N          5.7970    1.0580   -9.6780 N.am  114  VAL114     -0.1963
     69  CA         5.1940    2.3290   -9.2850 C.3   114  VAL114      0.1727
     70  C          6.1800    3.4330   -9.6620 C.2   114  VAL114      0.2617
     71  O          7.3640    3.3930   -9.2980 O.2   114  VAL114     -0.2715
     72  CB         4.9020    2.3430   -7.7700 C.3   114  VAL114      0.0290
     73  CG1        4.3790    3.6900   -7.3050 C.3   114  VAL114      0.0023
     74  CG2        3.9320    1.2420   -7.4000 C.3   114  VAL114      0.0023
     75  N          5.6980    4.4030  -10.4350 N.am  115  THR115     -0.1937
     76  CA         6.5690    5.4050  -11.0440 C.3   115  THR115      0.2028
     77  C          6.1630    6.8420  -10.6970 C.2   115  THR115      0.2642
     78  O          6.5680    7.7930  -11.3920 O.2   115  THR115     -0.2714
     79  CB         6.5320    5.2890  -12.5920 C.3   115  THR115      0.1808
     80  OG1        5.1750    5.4080  -13.0500 O.3   115  THR115     -0.2208
     81  CG2        7.1360    3.9670  -13.0900 C.3   115  THR115      0.0379
     82  N          5.3600    7.0150   -9.6600 N.am  116  ASP116     -0.1971
     83  CA         4.8630    8.3370   -9.2980 C.3   116  ASP116      0.1709
     84  C          4.3530    8.2930   -7.8660 C.2   116  ASP116      0.2293
     85  O          4.0080    7.2230   -7.3350 O.2   116  ASP116     -0.2864
     86  CB         3.7290    8.7630  -10.2500 C.3   116  ASP116      0.1436
     87  CG         3.2210   10.1730   -9.9720 C.2   116  ASP116      0.3671
     88  OD1        4.0040   11.0280   -9.4780 O.co2 116  ASP116     -0.2456
     89  OD2        2.0190   10.4150  -10.2470 O.co2 116  ASP116     -0.2456
     90  N          1.5470   10.5400   -6.5770 N.3   118  PRO118     -0.2116
     91  CA         0.7910   11.6020   -7.2500 C.3   118  PRO118      0.1372
     92  C          0.2240   12.6620   -6.3410 C.2   118  PRO118      0.2244
     93  O         -0.1050   13.7670   -6.8140 O.2   118  PRO118     -0.2868
     94  CB        -0.3470   10.8320   -7.9250 C.3   118  PRO118      0.0268
     95  CG        -0.4320    9.5470   -7.1600 C.3   118  PRO118      0.0207
     96  CD         0.9320    9.2080   -6.7770 C.3   118  PRO118      0.0892
@<TRIPOS>BOND
     1    61    59    1
     2    59    60    1
     3    59    56    1
     4    81    79    1
     5    80    79    1
     6    56    55    1
     7    56    57    1
     8    67    66    1
     9    53    52   ar
    10    79    76    1
    11    62    57   am
    12    62    63    1
    13    52    54   ar
    14    52    51    1
    15    57    58    2
    16    65    64    2
    17    66    63    1
    18    78    77    2
    19    48    51    1
    20    48    49    1
    21    48    47    1
    22    63    64    1
    23    76    77    1
    24    76    75    1
    25    64    68   am
    26    44    45    2
    27    44    43    1
    28    49    50    2
    29    77    82   am
    30    75    70   am
    31    86    87    1
    32    86    83    1
    33    89    87   ar
    34    11     9    1
    35    43    42    1
    36    43    46    1
    37    87    88   ar
    38    68    69    1
    39    70    71    2
    40    70    69    1
    41    82    83    1
    42    83    84    1
    43    69    72    1
    44     9    10    1
    45     9     8    2
    46     8     7    1
    47    94    91    1
    48    94    95    1
    49    84    85    2
    50     4     3    2
    51    72    74    1
    52    72    73    1
    53    40    39    2
    54    91    90    1
    55    91    92    1
    56    95    96    1
    57     5     6    1
    58     5     2    1
    59     1     2    1
    60    93    92    2
    61    96    90    1
    62     3     2    1
    63     7     6    1
    64    41    39   am
    65    39    38    1
    66    37    36    2
    67    36    35    1
    68    38    35    1
    69    35    34    1
    70    26    25    2
    71    25    24    1
    72    29    31   ar
    73    29    28   ar
    74    31    33   ar
    75    24    27    1
    76    24    23    1
    77    19    21   ar
    78    19    17   ar
    79    21    22   ar
    80    16    17    1
    81    16    13    1
    82    17    18   ar
    83    27    28    1
    84    22    20   ar
    85    28    30   ar
    86    18    20   ar
    87    33    32   ar
    88    13    12    1
    89    13    14    1
    90    30    32   ar
    91    14    15    2
