@<TRIPOS>MOLECULE
tmp/4mriB00.pdb
 150 142 0 0 0
SMALL
GASTEIGER

@<TRIPOS>ATOM
      1  N        -53.0720   14.1430  -17.7270 N.3    13  HIS13      -0.1241
      2  CA       -53.1810   14.0390  -19.1800 C.3    13  HIS13       0.1621
      3  C        -52.3540   12.8750  -19.6630 C.2    13  HIS13       0.2264
      4  O        -51.1580   12.8040  -19.3750 O.2    13  HIS13      -0.2867
      5  CB       -52.6990   15.3060  -19.8080 C.3    13  HIS13       0.0745
      6  CG       -53.4670   16.4820  -19.3520 C.ar   13  HIS13       0.0817
      7  ND1      -52.8690   17.5800  -18.7790 N.ar   13  HIS13      -0.2268
      8  CD2      -54.8000   16.7220  -19.3360 C.ar   13  HIS13       0.1154
      9  CE1      -53.7960   18.4710  -18.4670 C.ar   13  HIS13       0.1986
     10  NE2      -54.9790   17.9730  -18.7940 N.ar   13  HIS13      -0.2212
     11  N        -48.8720   13.2030  -21.6350 N.3    16  GLU16      -0.1245
     12  CA       -47.7230   13.8410  -20.9550 C.3    16  GLU16       0.1567
     13  C        -46.9720   12.7710  -20.1600 C.2    16  GLU16       0.2260
     14  O        -47.2450   12.5180  -18.9930 O.2    16  GLU16      -0.2867
     15  CB       -48.2030   14.9970  -20.0860 C.3    16  GLU16       0.0388
     16  CG       -48.5540   16.2170  -20.9160 C.3    16  GLU16       0.1160
     17  CD       -49.5940   17.1250  -20.2930 C.2    16  GLU16       0.3649
     18  OE1      -49.6470   17.2550  -19.0530 O.co2  16  GLU16      -0.2457
     19  OE2      -50.3730   17.7170  -21.0730 O.co2  16  GLU16      -0.2457
     20  N        -54.5860   12.9010  -24.4870 N.3    55  ARG55      -0.1245
     21  CA       -54.8180   13.8680  -23.3920 C.3    55  ARG55       0.1563
     22  C        -56.0020   13.4730  -22.4990 C.2    55  ARG55       0.2260
     23  O        -55.8860   13.4210  -21.2800 O.2    55  ARG55      -0.2867
     24  CB       -55.0310   15.2680  -23.9410 C.3    55  ARG55       0.0307
     25  CG       -55.1250   16.3320  -22.8660 C.3    55  ARG55       0.0489
     26  CD       -55.3270   17.7030  -23.5090 C.3    55  ARG55       0.2205
     27  NE       -55.4690   18.8270  -22.5760 N.pl3  55  ARG55      -0.0865
     28  CZ       -54.4830   19.3390  -21.8450 C.cat  55  ARG55       0.5346
     29  NH1      -53.2580   18.8200  -21.8730 N.pl3  55  ARG55       0.1354
     30  NH2      -54.7200   20.3830  -21.0710 N.pl3  55  ARG55       0.1354
     31  N        -58.2620   17.8180  -15.7850 N.3    62  ASN62      -0.1225
     32  CA       -57.7030   18.8480  -14.9150 C.3    62  ASN62       0.1785
     33  C        -58.5000   20.1510  -14.9730 C.2    62  ASN62       0.2597
     34  O        -57.9700   21.2240  -14.6900 O.2    62  ASN62      -0.2718
     35  CB       -56.2490   19.0920  -15.3170 C.3    62  ASN62       0.1169
     36  CG       -55.4100   19.6430  -14.1970 C.2    62  ASN62       0.2627
     37  OD1      -55.5240   19.2200  -13.0370 O.2    62  ASN62      -0.2716
     38  ND2      -54.5100   20.5710  -14.5460 N.am   62  ASN62      -0.0877
     39  N        -59.7710   20.0580  -15.3330 N.am   63  ARG63      -0.1979
     40  CA       -60.6120   21.2340  -15.4250 C.3    63  ARG63       0.1597
     41  C        -61.9140   21.1700  -14.6160 C.2    63  ARG63       0.2287
     42  O        -62.6730   22.1360  -14.6030 O.2    63  ARG63      -0.2864
     43  CB       -60.9460   21.4900  -16.9020 C.3    63  ARG63       0.0334
     44  CG       -60.4160   22.8060  -17.4640 C.3    63  ARG63       0.0492
     45  CD       -58.9020   22.8660  -17.4810 C.3    63  ARG63       0.2205
     46  NE       -58.4380   24.1050  -18.0940 N.pl3  63  ARG63      -0.0865
     47  CZ       -57.2080   24.3050  -18.5520 C.cat  63  ARG63       0.5346
     48  NH1      -56.2800   23.3420  -18.4750 N.pl3  63  ARG63       0.1354
     49  NH2      -56.9150   25.4790  -19.1060 N.pl3  63  ARG63       0.1354
     50  N        -46.8160   17.1140  -15.0510 N.3   108  HIS108     -0.1226
     51  CA       -47.1710   17.6060  -16.3820 C.3   108  HIS108      0.1752
     52  C        -45.9490   17.8660  -17.3140 C.2   108  HIS108      0.2596
     53  O        -44.8360   18.1860  -16.8570 O.2   108  HIS108     -0.2718
     54  CB       -47.9060   18.9330  -16.2140 C.3   108  HIS108      0.0759
     55  CG       -49.2900   18.7960  -15.6880 C.ar  108  HIS108      0.0818
     56  ND1      -50.2090   17.9290  -16.2340 N.ar  108  HIS108     -0.2268
     57  CD2      -49.9310   19.4420  -14.6910 C.ar  108  HIS108      0.1154
     58  CE1      -51.3540   18.0370  -15.5860 C.ar  108  HIS108      0.1986
     59  NE2      -51.2130   18.9470  -14.6450 N.ar  108  HIS108     -0.2212
     60  N        -46.1820   17.7250  -18.6230 N.am  109  ASN109     -0.1960
     61  CA       -45.3000   18.2800  -19.6630 C.3   109  ASN109      0.1819
     62  C        -46.0500   19.2320  -20.6240 C.2   109  ASN109      0.2621
     63  O        -47.2680   19.1660  -20.7610 O.2   109  ASN109     -0.2715
     64  CB       -44.6510   17.1700  -20.4490 C.3   109  ASN109      0.1195
     65  CG       -44.2600   15.9850  -19.5900 C.2   109  ASN109      0.2630
     66  OD1      -45.0180   15.0250  -19.4520 O.2   109  ASN109     -0.2716
     67  ND2      -43.0560   16.0340  -19.0280 N.am  109  ASN109     -0.0877
     68  N        -45.3050   20.1240  -21.2740 N.am  110  THR110     -0.1951
     69  CA       -45.8480   21.1180  -22.2110 C.3   110  THR110      0.1897
     70  C        -44.9580   21.1940  -23.4140 C.2   110  THR110      0.2313
     71  O        -43.7520   20.9930  -23.3020 O.2   110  THR110     -0.2863
     72  CB       -45.9110   22.5480  -21.6050 C.3   110  THR110      0.1794
     73  OG1      -46.3860   23.4890  -22.5840 O.3   110  THR110     -0.2208
     74  CG2      -44.5430   23.0240  -21.0950 C.3   110  THR110      0.0378
     75  N        -46.7130   25.8460  -10.3980 N.3   119  ILE119     -0.1245
     76  CA       -47.9710   26.4960  -10.6160 C.3   119  ILE119      0.1561
     77  C        -48.6180   26.7720   -9.3000 C.2   119  ILE119      0.2260
     78  O        -48.9300   25.8500   -8.5420 O.2   119  ILE119     -0.2867
     79  CB       -48.8710   25.6420  -11.4970 C.3   119  ILE119      0.0252
     80  CG1      -48.0890   25.3170  -12.7730 C.3   119  ILE119      0.0019
     81  CG2      -50.1900   26.3730  -11.7590 C.3   119  ILE119      0.0019
     82  CD1      -48.9230   25.0350  -13.9870 C.3   119  ILE119      0.0001
     83  N        -59.0280   27.5530  -12.9980 N.3   156  TYR156     -0.1241
     84  CA       -59.7750   26.3500  -13.3330 C.3   156  TYR156      0.1605
     85  C        -59.5630   25.3270  -12.1980 C.2   156  TYR156      0.2264
     86  O        -58.5780   25.3940  -11.4550 O.2   156  TYR156     -0.2867
     87  CB       -59.3820   25.7920  -14.7320 C.3   156  TYR156      0.0534
     88  CG       -57.8970   25.8000  -14.9830 C.ar  156  TYR156     -0.0201
     89  CD1      -57.2670   26.9260  -15.4850 C.ar  156  TYR156     -0.0009
     90  CD2      -57.1080   24.6950  -14.6600 C.ar  156  TYR156     -0.0009
     91  CE1      -55.8920   26.9490  -15.6620 C.ar  156  TYR156      0.0417
     92  CE2      -55.7340   24.7160  -14.8370 C.ar  156  TYR156      0.0417
     93  CZ       -55.1380   25.8420  -15.3350 C.ar  156  TYR156      0.1957
     94  OH       -53.7920   25.8730  -15.5210 O.3   156  TYR156     -0.2866
     95  N        -55.3250   18.6300   -8.4630 N.3   160  ARG160     -0.1245
     96  CA       -54.6680   18.8200   -7.1910 C.3   160  ARG160      0.1563
     97  C        -55.3630   19.7990   -6.2830 C.2   160  ARG160      0.2260
     98  O        -54.9910   19.9070   -5.1320 O.2   160  ARG160     -0.2867
     99  CB       -53.2310   19.2660   -7.3750 C.3   160  ARG160      0.0307
    100  CG       -53.0830   20.6760   -7.8770 C.3   160  ARG160      0.0489
    101  CD       -52.7080   20.6610   -9.3210 C.3   160  ARG160      0.2205
    102  NE       -52.4880   22.0070   -9.8070 N.pl3 160  ARG160     -0.0865
    103  CZ       -52.2850   22.2910  -11.0850 C.cat 160  ARG160      0.5346
    104  NH1      -52.2830   21.3170  -12.0120 N.pl3 160  ARG160      0.1354
    105  NH2      -52.0850   23.5520  -11.4360 N.pl3 160  ARG160      0.1354
    106  N        -48.7160   22.2470   -8.7130 N.3   168  GLY168     -0.1225
    107  CA       -48.5090   21.7960  -10.0630 C.3   168  GLY168      0.1811
    108  C        -47.0710   21.9800  -10.5090 C.2   168  GLY168      0.2280
    109  O        -46.4860   23.0710  -10.3860 O.2   168  GLY168     -0.2866
    110  N        -44.6220   21.4950  -13.8770 N.3   170  GLU170     -0.1245
    111  CA       -44.7630   21.5430  -15.3460 C.3   170  GLU170      0.1567
    112  C        -43.3980   21.7120  -16.0000 C.2   170  GLU170      0.2260
    113  O        -42.6500   22.6300  -15.6800 O.2   170  GLU170     -0.2867
    114  CB       -45.6750   22.7190  -15.7190 C.3   170  GLU170      0.0388
    115  CG       -45.8390   22.9940  -17.1870 C.3   170  GLU170      0.1160
    116  CD       -46.8650   22.0960  -17.8250 C.2   170  GLU170      0.3649
    117  OE1      -48.0400   22.5090  -17.9650 O.co2 170  GLU170     -0.2457
    118  OE2      -46.4950   20.9580  -18.1660 O.co2 170  GLU170     -0.2457
    119  N        -46.9580   29.6630  -21.8500 N.3   274  PHE274     -0.1241
    120  CA       -47.6520   28.6590  -22.6620 C.3   274  PHE274      0.1605
    121  C        -47.7370   29.0300  -24.1680 C.2   274  PHE274      0.2264
    122  O        -48.7540   28.8780  -24.8370 O.2   274  PHE274     -0.2867
    123  CB       -49.0090   28.3010  -22.0350 C.3   274  PHE274      0.0534
    124  CG       -48.9050   27.3240  -20.8940 C.ar  274  PHE274     -0.0203
    125  CD1      -48.2540   26.0990  -21.0580 C.ar  274  PHE274     -0.0042
    126  CD2      -49.4780   27.6100  -19.6570 C.ar  274  PHE274     -0.0042
    127  CE1      -48.1530   25.2050  -20.0020 C.ar  274  PHE274     -0.0003
    128  CE2      -49.3860   26.7080  -18.6090 C.ar  274  PHE274     -0.0003
    129  CZ       -48.7230   25.5100  -18.7810 C.ar  274  PHE274     -0.0000
    130  N        -48.5280   25.8860  -26.9830 N.3   277  GLU277     -0.1245
    131  CA       -48.7730   24.6080  -26.3500 C.3   277  GLU277      0.1567
    132  C        -49.7540   23.8440  -27.2090 C.2   277  GLU277      0.2260
    133  O        -50.8720   24.2880  -27.4180 O.2   277  GLU277     -0.2867
    134  CB       -49.3390   24.7600  -24.9340 C.3   277  GLU277      0.0388
    135  CG       -50.0220   23.5000  -24.3850 C.3   277  GLU277      0.1160
    136  CD       -49.1350   22.2610  -24.4020 C.2   277  GLU277      0.3649
    137  OE1      -49.6230   21.1690  -24.7780 O.co2 277  GLU277     -0.2457
    138  OE2      -47.9490   22.3780  -24.0370 O.co2 277  GLU277     -0.2457
    139  N        -53.5530   23.4460  -26.4080 N.3   280  TYR280     -0.1241
    140  CA       -54.3630   24.6590  -26.2990 C.3   280  TYR280      0.1605
    141  C        -54.8870   25.2040  -27.6310 C.2   280  TYR280      0.2264
    142  O        -55.7110   26.1200  -27.6230 O.2   280  TYR280     -0.2867
    143  CB       -53.6110   25.7710  -25.5440 C.3   280  TYR280      0.0534
    144  CG       -53.2750   25.5070  -24.0490 C.ar  280  TYR280     -0.0201
    145  CD1      -53.7980   24.4200  -23.3460 C.ar  280  TYR280     -0.0009
    146  CD2      -52.4490   26.3950  -23.3380 C.ar  280  TYR280     -0.0009
    147  CE1      -53.4720   24.2040  -22.0100 C.ar  280  TYR280      0.0417
    148  CE2      -52.1280   26.1890  -21.9990 C.ar  280  TYR280      0.0417
    149  CZ       -52.6400   25.0920  -21.3340 C.ar  280  TYR280      0.1957
    150  OH       -52.3300   24.8880  -20.0000 O.3   280  TYR280     -0.2866
@<TRIPOS>BOND
     1   141   142    2
     2   141   140    1
     3   133   132    2
     4   132   131    1
     5   130   131    1
     6   139   140    1
     7   131   134    1
     8   140   143    1
     9   143   144    1
    10   134   135    1
    11   122   121    2
    12   137   136   ar
    13    20    21    1
    14   136   135    1
    15   136   138   ar
    16   121   120    1
    17   144   145   ar
    18   144   146   ar
    19    24    21    1
    20    24    25    1
    21    26    25    1
    22    26    27    1
    23    70    71    2
    24    70    69    1
    25    21    22    1
    26   145   147   ar
    27   146   148   ar
    28   120   123    1
    29   120   119    1
    30    73    72    1
    31    27    28    2
    32    22    23    2
    33    69    72    1
    34    69    68    1
    35   123   124    1
    36   147   149   ar
    37   148   149   ar
    38    29    28    1
    39    28    30    1
    40    11    12    1
    41    72    74    1
    42   149   150    1
    43    68    62   am
    44    19    17   ar
    45   125   124   ar
    46   125   127   ar
    47    12    13    1
    48    12    15    1
    49    16    17    1
    50    16    15    1
    51   124   126   ar
    52    63    62    2
    53    62    61    1
    54    64    61    1
    55    64    65    1
    56    17    18   ar
    57    13    14    2
    58   127   129   ar
    59     5     6    1
    60     5     2    1
    61    61    60    1
    62     3     4    2
    63     3     2    1
    64   126   128   ar
    65    65    66    2
    66    65    67   am
    67     6     8   ar
    68     6     7   ar
    69     8    10   ar
    70     2     1    1
    71    49    47    1
    72    10     9   ar
    73   129   128   ar
    74     7     9   ar
    75    60    52   am
    76    47    48    1
    77    47    46    2
    78   118   116   ar
    79    46    45    1
    80   117   116   ar
    81   116   115    1
    82    45    44    1
    83    44    43    1
    84    52    53    2
    85    52    51    1
    86   115   114    1
    87    43    40    1
    88    51    54    1
    89    51    50    1
    90    56    55   ar
    91    56    58   ar
    92    54    55    1
    93   112   113    2
    94   112   111    1
    95    31    32    1
    96   114   111    1
    97    55    57   ar
    98    91    89   ar
    99    91    93   ar
   100    58    59   ar
   101    94    93    1
   102    89    88   ar
   103    40    39    1
   104    40    41    1
   105   111   110    1
   106    93    92   ar
   107    39    33   am
   108    35    32    1
   109    35    36    1
   110    88    87    1
   111    88    90   ar
   112    33    32    1
   113    33    34    2
   114    92    90   ar
   115    87    84    1
   116    57    59   ar
   117    41    42    2
   118    38    36   am
   119    36    37    2
   120    82    80    1
   121    84    83    1
   122    84    85    1
   123    80    79    1
   124    85    86    2
   125   104   103    1
   126    81    79    1
   127    79    76    1
   128   105   103    1
   129   103   102    2
   130    76    75    1
   131    76    77    1
   132   108   109    2
   133   108   107    1
   134   107   106    1
   135   102   101    1
   136   101   100    1
   137    77    78    2
   138    95    96    1
   139   100    99    1
   140    99    96    1
   141    96    97    1
   142    97    98    2
