@<TRIPOS>MOLECULE
tmp/4mrmA00.pdb
 114 111 0 0 0
SMALL
GASTEIGER

@<TRIPOS>ATOM
      1  N        -47.1920   14.9320  -20.5340 N.3    17  GLY17      -0.1210
      2  CA       -47.8370   16.2380  -20.5950 C.3    17  GLY17       0.1956
      3  C        -48.6800   16.4130  -21.8450 C.2    17  GLY17       0.2611
      4  O        -49.7090   17.1070  -21.8280 O.2    17  GLY17      -0.2717
      5  N        -48.2670   15.7460  -22.9240 N.am   18  TRP18      -0.1976
      6  CA       -48.9970   15.7600  -24.1580 C.3    18  TRP18       0.1640
      7  C        -48.9210   14.3860  -24.7530 C.2    18  TRP18       0.2290
      8  O        -47.9150   14.0880  -25.4150 O.2    18  TRP18      -0.2864
      9  CB       -48.4290   16.8260  -25.1090 C.3    18  TRP18       0.0576
     10  CG       -49.2410   16.9750  -26.3500 C.ar   18  TRP18       0.0006
     11  CD1      -50.5220   17.4310  -26.4580 C.ar   18  TRP18       0.0946
     12  CD2      -48.8020   16.6850  -27.6720 C.ar   18  TRP18       0.0152
     13  NE1      -50.9140   17.4540  -27.7720 N.ar   18  TRP18      -0.2442
     14  CE2      -49.8720   17.0020  -28.5480 C.ar   18  TRP18       0.0810
     15  CE3      -47.6010   16.1830  -28.2180 C.ar   18  TRP18       0.0012
     16  CZ2      -49.7880   16.8480  -29.9380 C.ar   18  TRP18       0.0191
     17  CZ3      -47.5140   16.0260  -29.6040 C.ar   18  TRP18       0.0001
     18  CH2      -48.5970   16.3690  -30.4480 C.ar   18  TRP18       0.0015
     19  N        -43.2390   11.6130  -23.7910 N.3    56  CYS56      -0.1235
     20  CA       -43.0810   13.0350  -23.7320 C.3    56  CYS56       0.1677
     21  C        -41.9530   13.3700  -22.7300 C.2    56  CYS56       0.2270
     22  O        -41.9950   14.3990  -22.0140 O.2    56  CYS56      -0.2867
     23  CB       -44.4000   13.7440  -23.4230 C.3    56  CYS56       0.0956
     24  SG       -44.4270   15.4960  -23.8220 S.3    56  CYS56      -0.0801
     25  N        -43.0870   16.2520  -28.8990 N.3    82  CYS82      -0.1221
     26  CA       -43.0630   17.2360  -27.8050 C.3    82  CYS82       0.1808
     27  C        -42.0320   18.3450  -28.0340 C.2    82  CYS82       0.2602
     28  O        -41.0280   18.0910  -28.6890 O.2    82  CYS82      -0.2717
     29  CB       -42.8680   16.5450  -26.4430 C.3    82  CYS82       0.0970
     30  SG       -44.3330   15.6620  -25.8370 S.3    82  CYS82      -0.0800
     31  N        -42.2770   19.5380  -27.4670 N.am   83  SER83      -0.1938
     32  CA       -41.3460   20.6470  -27.5430 C.3    83  SER83       0.2055
     33  C        -40.0880   20.2490  -26.7780 C.2    83  SER83       0.2643
     34  O        -38.9820   20.4430  -27.2900 O.2    83  SER83      -0.2714
     35  CB       -41.9520   21.9250  -26.9750 C.3    83  SER83       0.2130
     36  OG       -42.7290   22.6120  -27.9410 O.3    83  SER83      -0.2179
     37  N        -40.2450   19.6100  -25.6060 N.am   84  SER84      -0.1949
     38  CA       -39.0990   19.1830  -24.7830 C.3    84  SER84       0.1924
     39  C        -38.2650   18.1090  -25.4690 C.2    84  SER84       0.2314
     40  O        -37.0390   18.1130  -25.3440 O.2    84  SER84      -0.2863
     41  CB       -39.5360   18.7280  -23.3910 C.3    84  SER84       0.2116
     42  OG       -40.3530   17.5700  -23.4370 O.3    84  SER84      -0.2180
     43  N        -45.8890   18.4890  -33.4550 N.3   104  GLY104     -0.1225
     44  CA       -46.5520   19.0000  -32.2540 C.3   104  GLY104      0.1811
     45  C        -45.8420   20.0220  -31.3680 C.2   104  GLY104      0.2280
     46  O        -46.3840   20.3590  -30.3150 O.2   104  GLY104     -0.2866
     47  N        -44.7210   23.5870  -30.0180 N.3   106  SER106     -0.1217
     48  CA       -45.1740   24.9750  -29.9870 C.3   106  SER106      0.1889
     49  C        -44.1760   25.9900  -29.3650 C.2   106  SER106      0.2288
     50  O        -44.4030   27.2050  -29.4400 O.2   106  SER106     -0.2866
     51  CB       -46.5230   25.0750  -29.2880 C.3   106  SER106      0.2089
     52  OG       -46.4010   24.6780  -27.9360 O.3   106  SER106     -0.2183
     53  N        -46.3490   22.2090  -36.6850 N.3   123  HIS123     -0.1241
     54  CA       -47.0290   22.8460  -35.5780 C.3   123  HIS123      0.1621
     55  C        -46.4370   24.2330  -35.4560 C.2   123  HIS123      0.2264
     56  O        -45.2110   24.3680  -35.3530 O.2   123  HIS123     -0.2867
     57  CB       -46.7580   22.0910  -34.2640 C.3   123  HIS123      0.0745
     58  CG       -47.6770   22.4930  -33.1510 C.ar  123  HIS123      0.0817
     59  ND1      -47.6490   23.7710  -32.6140 N.ar  123  HIS123     -0.2268
     60  CD2      -48.6030   21.7450  -32.4800 C.ar  123  HIS123      0.1154
     61  CE1      -48.5910   23.7690  -31.6630 C.ar  123  HIS123      0.1986
     62  NE2      -49.1760   22.5600  -31.5310 N.ar  123  HIS123     -0.2212
     63  N        -51.6050   28.8450  -17.7940 N.3   203  TYR203     -0.1241
     64  CA       -52.3060   27.6020  -18.0070 C.3   203  TYR203      0.1605
     65  C        -53.7230   27.7270  -17.4420 C.2   203  TYR203      0.2264
     66  O        -54.0660   28.7660  -16.8470 O.2   203  TYR203     -0.2867
     67  CB       -51.5040   26.4160  -17.4840 C.3   203  TYR203      0.0534
     68  CG       -50.2990   26.1830  -18.3610 C.ar  203  TYR203     -0.0201
     69  CD1      -50.4540   25.8660  -19.7270 C.ar  203  TYR203     -0.0009
     70  CD2      -48.9960   26.3680  -17.8600 C.ar  203  TYR203     -0.0009
     71  CE1      -49.3450   25.7130  -20.5640 C.ar  203  TYR203      0.0417
     72  CE2      -47.8770   26.2010  -18.6840 C.ar  203  TYR203      0.0417
     73  CZ       -48.0600   25.8780  -20.0320 C.ar  203  TYR203      0.1957
     74  OH       -46.9740   25.7320  -20.8590 O.3   203  TYR203     -0.2866
     75  N        -57.0080   27.7810  -26.1330 N.3   231  TRP231     -0.1241
     76  CA       -56.8970   26.3440  -25.9420 C.3   231  TRP231      0.1605
     77  C        -57.2990   25.7650  -24.5920 C.2   231  TRP231      0.2264
     78  O        -56.9110   24.6310  -24.2720 O.2   231  TRP231     -0.2867
     79  CB       -55.5870   25.7520  -26.4700 C.3   231  TRP231      0.0550
     80  CG       -54.3090   26.4490  -26.0840 C.ar  231  TRP231      0.0003
     81  CD1      -53.4000   26.9950  -26.9390 C.ar  231  TRP231      0.0946
     82  CD2      -53.7120   26.5030  -24.7750 C.ar  231  TRP231      0.0152
     83  NE1      -52.2880   27.4340  -26.2470 N.ar  231  TRP231     -0.2442
     84  CE2      -52.4500   27.1400  -24.9150 C.ar  231  TRP231      0.0810
     85  CE3      -54.1280   26.1070  -23.4890 C.ar  231  TRP231      0.0012
     86  CZ2      -51.6160   27.4270  -23.8290 C.ar  231  TRP231      0.0191
     87  CZ3      -53.2890   26.3670  -22.4110 C.ar  231  TRP231      0.0001
     88  CH2      -52.0530   27.0280  -22.5860 C.ar  231  TRP231      0.0015
     89  N        -56.0200   24.3650  -36.9800 N.3   265  MET265     -0.1245
     90  CA       -55.3200   23.1010  -37.2460 C.3   265  MET265      0.1570
     91  C        -56.0370   22.1790  -38.2250 C.2   265  MET265      0.2261
     92  O        -55.5010   21.1490  -38.6150 O.2   265  MET265     -0.2867
     93  CB       -55.0380   22.3680  -35.9450 C.3   265  MET265      0.0387
     94  CG       -53.8930   22.9480  -35.2050 C.3   265  MET265      0.0595
     95  SD       -53.7380   22.2020  -33.5770 S.3   265  MET265     -0.1393
     96  CE       -52.5170   23.2240  -32.8990 C.3   265  MET265      0.0692
     97  N        -56.5380   16.8590  -32.2560 N.3   301  GLN301     -0.1231
     98  CA       -56.5880   18.1020  -33.0150 C.3   301  GLN301      0.1698
     99  C        -55.2600   18.4710  -33.6800 C.2   301  GLN301      0.2592
    100  O        -55.2670   19.2670  -34.6320 O.2   301  GLN301     -0.2718
    101  CB       -57.1640   19.2330  -32.1710 C.3   301  GLN301      0.0381
    102  CG       -56.4180   19.4720  -30.8600 C.3   301  GLN301      0.0905
    103  CD       -56.2270   20.9560  -30.6420 C.2   301  GLN301      0.2608
    104  OE1      -56.8700   21.8310  -31.2740 O.2   301  GLN301     -0.2717
    105  NE2      -55.3170   21.3030  -29.7210 N.am  301  GLN301     -0.0878
    106  N        -54.1340   17.8940  -33.2140 N.am  302  GLU302     -0.1979
    107  CA       -52.8150   18.1240  -33.8250 C.3   302  GLU302      0.1602
    108  C        -52.5600   17.0690  -34.9080 C.2   302  GLU302      0.2287
    109  O        -51.5760   17.1850  -35.6580 O.2   302  GLU302     -0.2864
    110  CB       -51.6930   18.0520  -32.7910 C.3   302  GLU302      0.0415
    111  CG       -51.6750   19.2490  -31.8250 C.3   302  GLU302      0.1163
    112  CD       -52.5020   19.0450  -30.5440 C.2   302  GLU302      0.3649
    113  OE1      -52.8020   17.8670  -30.1950 O.co2 302  GLU302     -0.2457
    114  OE2      -52.8080   20.0940  -29.9020 O.co2 302  GLU302     -0.2457
@<TRIPOS>BOND
     1    92    91    2
     2    91    90    1
     3    90    89    1
     4    90    93    1
     5    53    54    1
     6    93    94    1
     7   109   108    2
     8    54    55    1
     9    54    57    1
    10    55    56    2
    11    94    95    1
    12   108   107    1
    13   100    99    2
    14    57    58    1
    15   107   106    1
    16   107   110    1
    17    99   106   am
    18    99    98    1
    19    95    96    1
    20    43    44    1
    21    58    59   ar
    22    58    60   ar
    23    98    97    1
    24    98   101    1
    25   110   111    1
    26    59    61   ar
    27    60    62   ar
    28    44    45    1
    29   101   102    1
    30   111   112    1
    31    61    62   ar
    32    45    46    2
    33   104   103    2
    34   102   103    1
    35   103   105   am
    36   112   113   ar
    37   112   114   ar
    38    18    16   ar
    39    18    17   ar
    40    47    48    1
    41    48    49    1
    42    48    51    1
    43    16    14   ar
    44    17    15   ar
    45    50    49    2
    46    51    52    1
    47    25    26    1
    48    28    27    2
    49    14    13   ar
    50    14    12   ar
    51    15    12   ar
    52    27    26    1
    53    27    31   am
    54    36    35    1
    55    26    29    1
    56    13    11   ar
    57    12    10   ar
    58    32    31    1
    59    32    35    1
    60    32    33    1
    61    34    33    2
    62    81    83   ar
    63    81    80   ar
    64    33    37   am
    65    79    80    1
    66    79    76    1
    67    11    10   ar
    68    29    30    1
    69    10     9    1
    70    83    84   ar
    71    75    76    1
    72    80    82   ar
    73    76    77    1
    74    30    24    1
    75    37    38    1
    76    39    40    2
    77    39    38    1
    78     8     7    2
    79     9     6    1
    80    84    82   ar
    81    84    86   ar
    82    38    41    1
    83    82    85   ar
    84     7     6    1
    85    77    78    2
    86     6     5    1
    87    86    88   ar
    88    24    23    1
    89    19    20    1
    90    20    23    1
    91    20    21    1
    92    85    87   ar
    93    42    41    1
    94     5     3   am
    95    21    22    2
    96    88    87   ar
    97     3     4    2
    98     3     2    1
    99    74    73    1
   100     2     1    1
   101    71    73   ar
   102    71    69   ar
   103    73    72   ar
   104    69    68   ar
   105    72    70   ar
   106    68    70   ar
   107    68    67    1
   108    64    63    1
   109    64    67    1
   110    64    65    1
   111    65    66    2
