@<TRIPOS>MOLECULE
tmp/4mrqA06.pdb
 93 86 0 0 0
SMALL
GASTEIGER

@<TRIPOS>ATOM
      1  N         47.0160   70.0740   12.8720 N.3   258  LEU258     -0.1245
      2  CA        47.7150   70.9650   11.9530 C.3   258  LEU258      0.1561
      3  C         47.3400   70.5760   10.5180 C.2   258  LEU258      0.2260
      4  O         47.0080   71.4490    9.6910 O.2   258  LEU258     -0.2867
      5  CB        49.2350   70.8460   12.1750 C.3   258  LEU258      0.0270
      6  CG        50.1030   71.7680   11.3060 C.3   258  LEU258      0.0019
      7  CD1       49.8880   73.2230   11.6710 C.3   258  LEU258      0.0001
      8  CD2       51.6000   71.4450   11.4260 C.3   258  LEU258      0.0001
      9  N         43.6490   71.5650    9.6660 N.3   261  LYS261     -0.1231
     10  CA        43.5220   72.9980    9.4190 C.3   261  LYS261      0.1693
     11  C         43.9030   73.2980    7.9760 C.2   261  LYS261      0.2592
     12  O         43.1840   74.0080    7.2650 O.2   261  LYS261     -0.2718
     13  CB        44.4270   73.7890   10.3730 C.3   261  LYS261      0.0285
     14  CG        44.4510   75.2840   10.1520 C.3   261  LYS261      0.0035
     15  CD        45.1330   75.9130   11.3640 C.3   261  LYS261      0.0206
     16  CE        45.0790   77.4250   11.3650 C.3   261  LYS261      0.1093
     17  NZ        45.8290   78.0200   10.2320 N.3   261  LYS261     -0.1314
     18  N         45.0250   72.7400    7.5390 N.am  262  ASP262     -0.1974
     19  CA        45.5630   73.0290    6.2060 C.3   262  ASP262      0.1709
     20  C         44.6880   72.4310    5.1070 C.2   262  ASP262      0.2293
     21  O         44.3090   73.1360    4.1570 O.2   262  ASP262     -0.2864
     22  CB        46.9980   72.4940    6.0680 C.3   262  ASP262      0.1436
     23  CG        47.6550   72.8960    4.7380 C.2   262  ASP262      0.3671
     24  OD1       47.9820   72.0150    3.9460 O.co2 262  ASP262     -0.2456
     25  OD2       47.8110   74.1000    4.4730 O.co2 262  ASP262     -0.2456
     26  N         41.2350   74.0090    4.8590 N.3   265  SER265     -0.1217
     27  CA        41.3210   75.3800    4.3520 C.3   265  SER265      0.1889
     28  C         41.1720   75.4460    2.8360 C.2   265  SER265      0.2288
     29  O         40.5770   76.3910    2.3180 O.2   265  SER265     -0.2866
     30  CB        42.6390   76.0600    4.7760 C.3   265  SER265      0.2089
     31  OG        43.6720   75.8050    3.8340 O.3   265  SER265     -0.2183
     32  N         36.4560   74.5710   11.4890 N.3   289  TYR289     -0.1241
     33  CA        36.9100   75.0040   10.1400 C.3   289  TYR289      0.1605
     34  C         35.9730   74.5610    9.0080 C.2   289  TYR289      0.2264
     35  O         36.2670   74.8120    7.8250 O.2   289  TYR289     -0.2867
     36  CB        38.3570   74.5180    9.8430 C.3   289  TYR289      0.0534
     37  CG        39.4150   75.1980   10.6920 C.ar  289  TYR289     -0.0201
     38  CD1       39.5770   76.5920   10.6720 C.ar  289  TYR289     -0.0009
     39  CD2       40.2810   74.4540   11.4820 C.ar  289  TYR289     -0.0009
     40  CE1       40.5420   77.2280   11.4550 C.ar  289  TYR289      0.0417
     41  CE2       41.2410   75.0820   12.2870 C.ar  289  TYR289      0.0417
     42  CZ        41.3690   76.4650   12.2500 C.ar  289  TYR289      0.1957
     43  OH        42.3300   77.0850   13.0160 O.3   289  TYR289     -0.2866
     44  N         54.1850   72.8550    5.6480 N.3   344  ILE344     -0.1245
     45  CA        53.3690   73.7370    6.5140 C.3   344  ILE344      0.1561
     46  C         54.2620   74.5360    7.4690 C.2   344  ILE344      0.2260
     47  O         54.1440   75.7760    7.5710 O.2   344  ILE344     -0.2867
     48  CB        52.3070   72.9290    7.3350 C.3   344  ILE344      0.0252
     49  CG1       51.2290   72.3700    6.3950 C.3   344  ILE344      0.0019
     50  CG2       51.6710   73.8180    8.4120 C.3   344  ILE344      0.0019
     51  CD1       50.4470   71.1670    6.9470 C.3   344  ILE344      0.0001
     52  N         55.5700   79.1500    8.2650 N.3   348  ASP348     -0.1239
     53  CA        55.2980   79.8460    9.5080 C.3   348  ASP348      0.1674
     54  C         56.5660   80.5000   10.0660 C.2   348  ASP348      0.2266
     55  O         57.6410   79.9030   10.0430 O.2   348  ASP348     -0.2867
     56  CB        54.7050   78.8700   10.5240 C.3   348  ASP348      0.1410
     57  CG        53.8730   79.5660   11.5880 C.2   348  ASP348      0.3668
     58  OD1       54.4250   80.3000   12.4460 O.co2 348  ASP348     -0.2456
     59  OD2       52.6520   79.3480   11.5770 O.co2 348  ASP348     -0.2456
     60  N         57.0310   81.1520   13.2330 N.3   350  ARG350     -0.1245
     61  CA        57.2700   80.5400   14.5370 C.3   350  ARG350      0.1563
     62  C         58.1060   79.2540   14.5070 C.2   350  ARG350      0.2260
     63  O         58.1010   78.5500   13.4970 O.2   350  ARG350     -0.2867
     64  CB        55.9200   80.2510   15.1800 C.3   350  ARG350      0.0307
     65  CG        55.2470   81.5350   15.7060 C.3   350  ARG350      0.0489
     66  CD        53.7930   81.2750   16.0340 C.3   350  ARG350      0.2205
     67  NE        53.0910   80.7610   14.8580 N.pl3 350  ARG350     -0.0865
     68  CZ        51.8200   80.3850   14.8500 C.cat 350  ARG350      0.5346
     69  NH1       51.1030   80.4460   15.9650 N.pl3 350  ARG350      0.1354
     70  NH2       51.2690   79.9300   13.7270 N.pl3 350  ARG350      0.1354
     71  N         54.2670   76.6320   16.9090 N.3   355  VAL355     -0.1245
     72  CA        53.2140   76.1930   15.9620 C.3   355  VAL355      0.1561
     73  C         52.2650   75.2050   16.6400 C.2   355  VAL355      0.2260
     74  O         51.0070   75.3810   16.6440 O.2   355  VAL355     -0.2867
     75  CB        53.8010   75.5860   14.6440 C.3   355  VAL355      0.0252
     76  CG1       52.6770   74.9340   13.8390 C.3   355  VAL355      0.0019
     77  CG2       54.4780   76.6900   13.8230 C.3   355  VAL355      0.0019
     78  N         50.3000   76.5510   19.9410 N.3   358  ALA358     -0.1231
     79  CA        49.1570   77.4480   19.6700 C.3   358  ALA358      0.1694
     80  C         47.7990   76.7420   19.6950 C.2   358  ALA358      0.2592
     81  O         46.7620   77.3910   19.8930 O.2   358  ALA358     -0.2718
     82  CB        49.3160   78.1510   18.3250 C.3   358  ALA358      0.0304
     83  N         47.8010   75.4390   19.4370 N.am  359  PHE359     -0.1976
     84  CA        46.5700   74.6660   19.3940 C.3   359  PHE359      0.1639
     85  C         46.0500   74.4040   20.8020 C.2   359  PHE359      0.2290
     86  O         46.8380   74.1610   21.6950 O.2   359  PHE359     -0.2864
     87  CB        46.7700   73.3130   18.6470 C.3   359  PHE359      0.0560
     88  CG        46.8880   73.4750   17.1550 C.ar  359  PHE359     -0.0200
     89  CD1       45.7880   73.8650   16.3920 C.ar  359  PHE359     -0.0042
     90  CD2       48.1120   73.2960   16.5150 C.ar  359  PHE359     -0.0042
     91  CE1       45.8960   74.0600   15.0140 C.ar  359  PHE359     -0.0003
     92  CE2       48.2310   73.4970   15.1330 C.ar  359  PHE359     -0.0003
     93  CZ        47.1210   73.8600   14.3770 C.ar  359  PHE359     -0.0000
@<TRIPOS>BOND
     1    29    28    2
     2    28    27    1
     3    31    30    1
     4    24    23   ar
     5    21    20    2
     6    27    30    1
     7    27    26    1
     8    25    23   ar
     9    23    22    1
    10    20    19    1
    11    44    45    1
    12    22    19    1
    13    19    18    1
    14    49    51    1
    15    49    48    1
    16    45    48    1
    17    45    46    1
    18    12    11    2
    19    48    50    1
    20    46    47    2
    21    18    11   am
    22    35    34    2
    23    11    10    1
    24    52    53    1
    25    34    33    1
    26    10     9    1
    27    10    13    1
    28    53    54    1
    29    53    56    1
    30     4     3    2
    31    36    33    1
    32    36    37    1
    33    55    54    2
    34    33    32    1
    35    14    13    1
    36    14    15    1
    37    17    16    1
    38     3     2    1
    39    56    57    1
    40    38    37   ar
    41    38    40   ar
    42    37    39   ar
    43     6     8    1
    44     6     7    1
    45     6     5    1
    46    15    16    1
    47    40    42   ar
    48    39    41   ar
    49    59    57   ar
    50    57    58   ar
    51     2     5    1
    52     2     1    1
    53    42    41   ar
    54    42    43    1
    55    60    61    1
    56    63    62    2
    57    70    68    1
    58    77    75    1
    59    76    75    1
    60    93    91   ar
    61    93    92   ar
    62    62    61    1
    63    61    64    1
    64    75    72    1
    65    68    67    2
    66    68    69    1
    67    67    66    1
    68    91    89   ar
    69    92    90   ar
    70    64    65    1
    71    65    66    1
    72    72    73    1
    73    72    71    1
    74    89    88   ar
    75    90    88   ar
    76    73    74    2
    77    88    87    1
    78    82    79    1
    79    87    84    1
    80    84    83    1
    81    84    85    1
    82    83    80   am
    83    79    80    1
    84    79    78    1
    85    80    81    2
    86    85    86    2
