@<TRIPOS>MOLECULE
tmp/4mrqA01.pdb
 80 78 0 0 0
SMALL
GASTEIGER

@<TRIPOS>ATOM
      1  N         56.4360   55.0600   18.1290 N.3   210  GLY210     -0.1210
      2  CA        55.2670   55.2280   18.9970 C.3   210  GLY210      0.1956
      3  C         55.6380   55.1240   20.4660 C.2   210  GLY210      0.2612
      4  O         54.8980   55.6120   21.3330 O.2   210  GLY210     -0.2717
      5  N         56.7740   54.4740   20.7400 N.am  211  LYS211     -0.1966
      6  CA        57.3090   54.3290   22.0950 C.3   211  LYS211      0.1713
      7  C         58.3200   55.4520   22.3950 C.2   211  LYS211      0.2458
      8  O         59.3980   55.4850   21.7920 O.2   211  LYS211     -0.2730
      9  CB        57.9610   52.9460   22.2580 C.3   211  LYS211      0.0311
     10  CG        57.0100   51.7810   22.0190 C.3   211  LYS211      0.0038
     11  CD        56.0420   51.5440   23.1250 C.3   211  LYS211      0.0206
     12  CE        55.2490   50.2270   23.1290 C.3   211  LYS211      0.1093
     13  NZ        54.1330   50.3350   22.1430 N.3   211  LYS211     -0.1314
     14  N         57.9840   56.3660   23.3370 N.am  212  PRO212     -0.2727
     15  CA        58.8310   57.5310   23.6400 C.3   212  PRO212      0.1402
     16  C         60.3020   57.1770   23.8950 C.2   212  PRO212      0.2269
     17  O         61.2170   57.9690   23.5740 O.2   212  PRO212     -0.2865
     18  CB        58.2080   58.1010   24.9170 C.3   212  PRO212      0.0296
     19  CG        56.8090   57.5840   24.9300 C.3   212  PRO212      0.0237
     20  CD        56.8860   56.2280   24.3090 C.3   212  PRO212      0.0939
     21  N         52.1740   64.0440   19.4030 N.3   251  TYR251     -0.1241
     22  CA        51.3860   62.8470   19.0860 C.3   251  TYR251      0.1605
     23  C         50.5270   63.0120   17.8410 C.2   251  TYR251      0.2264
     24  O         50.2040   64.1440   17.4560 O.2   251  TYR251     -0.2867
     25  CB        50.6290   62.3710   20.3330 C.3   251  TYR251      0.0534
     26  CG        51.5970   61.6450   21.2140 C.ar  251  TYR251     -0.0201
     27  CD1       52.0560   62.1940   22.4020 C.ar  251  TYR251     -0.0009
     28  CD2       52.1210   60.4080   20.8030 C.ar  251  TYR251     -0.0009
     29  CE1       52.9770   61.5180   23.1840 C.ar  251  TYR251      0.0417
     30  CE2       53.0450   59.7310   21.5750 C.ar  251  TYR251      0.0417
     31  CZ        53.4690   60.2840   22.7590 C.ar  251  TYR251      0.1957
     32  OH        54.3990   59.5830   23.5090 O.3   251  TYR251     -0.2866
     33  N         46.2690   57.2440   16.1450 N.3   318  MET318     -0.1245
     34  CA        47.2050   57.5570   17.2400 C.3   318  MET318      0.1570
     35  C         48.5560   56.8430   17.1530 C.2   318  MET318      0.2261
     36  O         49.5310   57.3400   17.6940 O.2   318  MET318     -0.2867
     37  CB        46.5600   57.2890   18.6160 C.3   318  MET318      0.0387
     38  CG        45.8020   58.4860   19.1420 C.3   318  MET318      0.0595
     39  SD        46.8630   59.9370   19.3240 S.3   318  MET318     -0.1393
     40  CE        47.6490   59.6440   20.8830 C.3   318  MET318      0.0692
     41  N         45.4840   65.6700   29.7130 N.3   364  SER364     -0.1202
     42  CA        45.3390   64.2390   29.4390 C.3   364  SER364      0.2020
     43  C         46.2520   63.3520   30.2600 C.2   364  SER364      0.2619
     44  O         47.3300   63.7630   30.6890 O.2   364  SER364     -0.2717
     45  CB        45.5240   63.9100   27.9460 C.3   364  SER364      0.2103
     46  OG        46.8810   63.7950   27.5840 O.3   364  SER364     -0.2182
     47  N         45.8020   62.1170   30.4600 N.am  365  THR365     -0.1939
     48  CA        46.6610   61.0720   30.9970 C.3   365  THR365      0.2013
     49  C         47.6190   60.6130   29.8860 C.2   365  THR365      0.2484
     50  O         47.3750   60.8680   28.6930 O.2   365  THR365     -0.2729
     51  CB        45.8210   59.8800   31.4900 C.3   365  THR365      0.1807
     52  OG1       45.1000   59.2970   30.3780 O.3   365  THR365     -0.2208
     53  CG2       44.8360   60.3420   32.5580 C.3   365  THR365      0.0379
     54  N         48.7180   59.9360   30.2580 N.am  366  PRO366     -0.2715
     55  CA        49.3550   59.1470   29.1990 C.3   366  PRO366      0.1536
     56  C         48.4250   57.9830   28.8040 C.2   366  PRO366      0.2598
     57  O         47.3540   57.7840   29.4280 O.2   366  PRO366     -0.2715
     58  CB        50.6300   58.6000   29.8780 C.3   366  PRO366      0.0310
     59  CG        50.3340   58.6270   31.3460 C.3   366  PRO366      0.0237
     60  CD        49.4030   59.7950   31.5620 C.3   366  PRO366      0.0939
     61  N         48.7950   57.2310   27.7740 N.am  367  GLU367     -0.1978
     62  CA        48.0460   56.0230   27.4890 C.3   367  GLU367      0.1602
     63  C         48.2900   55.1130   28.6800 C.2   367  GLU367      0.2287
     64  O         49.4230   55.0130   29.1550 O.2   367  GLU367     -0.2864
     65  CB        48.4970   55.3630   26.1860 C.3   367  GLU367      0.0415
     66  CG        47.9220   53.9650   25.9950 C.3   367  GLU367      0.1163
     67  CD        48.3480   53.3070   24.6860 C.2   367  GLU367      0.3649
     68  OE1       48.2430   53.9880   23.6520 O.co2 367  GLU367     -0.2457
     69  OE2       48.7090   52.0940   24.6750 O.co2 367  GLU367     -0.2457
     70  N         42.6970   55.9200   27.8520 N.3   424  ARG424     -0.1245
     71  CA        43.1550   57.2950   27.8480 C.3   424  ARG424      0.1563
     72  C         42.0270   58.1740   28.3910 C.2   424  ARG424      0.2260
     73  O         40.8580   57.8680   28.1620 O.2   424  ARG424     -0.2867
     74  CB        43.5460   57.7130   26.4240 C.3   424  ARG424      0.0307
     75  CG        44.0440   59.1350   26.3590 C.3   424  ARG424      0.0489
     76  CD        44.5180   59.5200   24.9630 C.3   424  ARG424      0.2205
     77  NE        45.0060   60.9050   24.9930 N.pl3 424  ARG424     -0.0865
     78  CZ        45.2000   61.6380   23.9060 C.cat 424  ARG424      0.5346
     79  NH1       44.9460   61.1330   22.6910 N.pl3 424  ARG424      0.1354
     80  NH2       45.6370   62.8790   24.0360 N.pl3 424  ARG424      0.1354
@<TRIPOS>BOND
     1    33    34    1
     2    35    34    1
     3    35    36    2
     4    34    37    1
     5    24    23    2
     6    23    22    1
     7     1     2    1
     8    37    38    1
     9     2     3    1
    10    22    21    1
    11    22    25    1
    12    38    39    1
    13    39    40    1
    14    25    26    1
    15     3     5   am
    16     3     4    2
    17     5     6    1
    18    28    26   ar
    19    28    30   ar
    20    26    27   ar
    21    30    31   ar
    22     8     7    2
    23    10     9    1
    24    10    11    1
    25     6     9    1
    26     6     7    1
    27    13    12    1
    28     7    14   am
    29    27    29   ar
    30    79    78    1
    31    31    29   ar
    32    31    32    1
    33    11    12    1
    34    14    15    1
    35    14    20    1
    36    17    16    2
    37    15    16    1
    38    15    18    1
    39    68    67   ar
    40    78    80    1
    41    78    77    2
    42    20    19    1
    43    69    67   ar
    44    67    66    1
    45    18    19    1
    46    76    77    1
    47    76    75    1
    48    66    65    1
    49    65    62    1
    50    75    74    1
    51    74    71    1
    52    62    61    1
    53    62    63    1
    54    46    45    1
    55    61    56   am
    56    71    70    1
    57    71    72    1
    58    45    42    1
    59    73    72    2
    60    63    64    2
    61    50    49    2
    62    56    55    1
    63    56    57    2
    64    55    58    1
    65    55    54    1
    66    42    41    1
    67    42    43    1
    68    58    59    1
    69    49    54   am
    70    49    48    1
    71    54    60    1
    72    43    47   am
    73    43    44    2
    74    52    51    1
    75    47    48    1
    76    48    51    1
    77    59    60    1
    78    51    53    1
