@<TRIPOS>MOLECULE
tmp/4mrsB04.pdb
 113 107 0 0 0
SMALL
GASTEIGER

@<TRIPOS>ATOM
      1  N         22.1600   22.3080   57.8980 N.3    91  ARG91      -0.1245
      2  CA        22.8570   23.4330   57.2720 C.3    91  ARG91       0.1563
      3  C         24.2700   23.4800   57.8420 C.2    91  ARG91       0.2260
      4  O         25.2340   23.6610   57.0850 O.2    91  ARG91      -0.2867
      5  CB        22.1720   24.8020   57.4650 C.3    91  ARG91       0.0307
      6  CG        22.5190   25.4570   58.7550 C.3    91  ARG91       0.0489
      7  CD        21.9840   26.8140   59.0310 C.3    91  ARG91       0.2205
      8  NE        22.3100   27.0500   60.4350 N.pl3  91  ARG91      -0.0865
      9  CZ        21.5130   27.6450   61.3120 C.cat  91  ARG91       0.5346
     10  NH1       20.3170   28.0960   60.9410 N.pl3  91  ARG91       0.1354
     11  NH2       21.9200   27.7820   62.5660 N.pl3  91  ARG91       0.1354
     12  N         31.1300   31.1650   62.8220 N.3   145  TYR145     -0.1227
     13  CA        29.9470   30.3940   63.1630 C.3   145  TYR145      0.1736
     14  C         28.7960   31.3030   63.6540 C.2   145  TYR145      0.2595
     15  O         27.6670   31.1980   63.1730 O.2   145  TYR145     -0.2718
     16  CB        30.2950   29.3190   64.2010 C.3   145  TYR145      0.0548
     17  CG        29.0790   28.5930   64.7290 C.ar  145  TYR145     -0.0200
     18  CD1       28.5440   27.5070   64.0460 C.ar  145  TYR145     -0.0009
     19  CD2       28.4540   29.0060   65.9040 C.ar  145  TYR145     -0.0009
     20  CE1       27.4280   26.8520   64.5140 C.ar  145  TYR145      0.0417
     21  CE2       27.3380   28.3570   66.3810 C.ar  145  TYR145      0.0417
     22  CZ        26.8270   27.2790   65.6840 C.ar  145  TYR145      0.1957
     23  OH        25.7110   26.6230   66.1610 O.3   145  TYR145     -0.2866
     24  N         29.0930   32.2130   64.5800 N.am  146  PHE146     -0.1976
     25  CA        28.0780   33.1290   65.0800 C.3   146  PHE146      0.1639
     26  C         27.5560   34.1050   64.0200 C.2   146  PHE146      0.2290
     27  O         26.3630   34.4140   64.0050 O.2   146  PHE146     -0.2864
     28  CB        28.5960   33.9060   66.2770 C.3   146  PHE146      0.0560
     29  CG        28.6030   33.1200   67.5460 C.ar  146  PHE146     -0.0200
     30  CD1       27.6520   32.1380   67.7730 C.ar  146  PHE146     -0.0042
     31  CD2       29.5580   33.3640   68.5220 C.ar  146  PHE146     -0.0042
     32  CE1       27.6530   31.4160   68.9580 C.ar  146  PHE146     -0.0003
     33  CE2       29.5640   32.6520   69.7100 C.ar  146  PHE146     -0.0003
     34  CZ        28.6200   31.6730   69.9280 C.ar  146  PHE146     -0.0000
     35  N         25.4350   31.6970   61.4130 N.3   149  PHE149     -0.1227
     36  CA        24.3850   30.8390   61.9230 C.3   149  PHE149      0.1736
     37  C         23.5710   31.4250   63.0710 C.2   149  PHE149      0.2595
     38  O         22.4680   30.9730   63.3330 O.2   149  PHE149     -0.2718
     39  CB        24.9690   29.4620   62.2680 C.3   149  PHE149      0.0547
     40  CG        25.6430   28.7950   61.0940 C.ar  149  PHE149     -0.0202
     41  CD1       25.1820   29.0080   59.8040 C.ar  149  PHE149     -0.0042
     42  CD2       26.7310   27.9620   61.2790 C.ar  149  PHE149     -0.0042
     43  CE1       25.7940   28.4080   58.7200 C.ar  149  PHE149     -0.0003
     44  CE2       27.3530   27.3550   60.1950 C.ar  149  PHE149     -0.0003
     45  CZ        26.8810   27.5830   58.9130 C.ar  149  PHE149     -0.0000
     46  N         24.1120   32.4190   63.7630 N.am  150  ASN150     -0.1974
     47  CA        23.3350   33.1000   64.7850 C.3   150  ASN150      0.1688
     48  C         22.8030   34.4710   64.3640 C.2   150  ASN150      0.2292
     49  O         21.6130   34.7240   64.4610 O.2   150  ASN150     -0.2864
     50  CB        24.1280   33.1980   66.0770 C.3   150  ASN150      0.1181
     51  CG        23.3720   33.9140   67.1700 C.2   150  ASN150      0.2629
     52  OD1       23.2420   35.1410   67.1540 O.2   150  ASN150     -0.2716
     53  ND2       22.9050   33.1540   68.1570 N.am  150  ASN150     -0.0877
     54  N         27.8880   39.2300   84.4700 N.3   253  LEU253     -0.1245
     55  CA        27.0380   38.4050   83.5950 C.3   253  LEU253      0.1561
     56  C         25.5530   38.3330   84.0960 C.2   253  LEU253      0.2260
     57  O         24.5920   38.3810   83.3050 O.2   253  LEU253     -0.2867
     58  CB        27.6040   36.9830   83.4520 C.3   253  LEU253      0.0270
     59  CG        26.7500   36.0320   82.5960 C.3   253  LEU253      0.0019
     60  CD1       26.4990   36.6710   81.2350 C.3   253  LEU253      0.0001
     61  CD2       27.3500   34.6320   82.4350 C.3   253  LEU253      0.0001
     62  N         23.8450   41.4190   83.1670 N.3   256  LEU256     -0.1231
     63  CA        23.4420   41.4130   81.7610 C.3   256  LEU256      0.1693
     64  C         22.1670   40.5900   81.5240 C.2   256  LEU256      0.2592
     65  O         21.2630   41.0210   80.7960 O.2   256  LEU256     -0.2718
     66  CB        24.5690   40.9130   80.8540 C.3   256  LEU256      0.0284
     67  CG        24.1720   40.6750   79.3950 C.3   256  LEU256      0.0019
     68  CD1       23.8290   41.9970   78.6950 C.3   256  LEU256      0.0001
     69  CD2       25.2760   39.9190   78.6370 C.3   256  LEU256      0.0001
     70  N         22.0960   39.4120   82.1420 N.am  257  ASN257     -0.1974
     71  CA        20.9410   38.5380   81.9610 C.3   257  ASN257      0.1688
     72  C         19.6560   39.1840   82.4590 C.2   257  ASN257      0.2292
     73  O         18.6370   39.1490   81.7690 O.2   257  ASN257     -0.2864
     74  CB        21.1450   37.2150   82.6870 C.3   257  ASN257      0.1181
     75  CG        22.1380   36.3160   81.9890 C.2   257  ASN257      0.2629
     76  OD1       22.4570   36.5050   80.8100 O.2   257  ASN257     -0.2716
     77  ND2       22.6420   35.3300   82.7200 N.am  257  ASN257     -0.0877
     78  N         18.5430   41.9700   80.1200 N.3   260  GLN260     -0.1245
     79  CA        17.9530   41.3480   78.9360 C.3   260  GLN260      0.1566
     80  C         16.5320   40.8210   79.1860 C.2   260  GLN260      0.2260
     81  O         15.6430   40.9670   78.3320 O.2   260  GLN260     -0.2867
     82  CB        18.8530   40.2220   78.4150 C.3   260  GLN260      0.0367
     83  CG        20.0270   40.7410   77.5950 C.3   260  GLN260      0.0905
     84  CD        21.0710   39.6730   77.2650 C.2   260  GLN260      0.2608
     85  OE1       21.1540   38.6310   77.9210 O.2   260  GLN260     -0.2717
     86  NE2       21.8570   39.9270   76.2210 N.am  260  GLN260     -0.0878
     87  N         19.5060   35.4110   73.1070 N.3   302  ASP302     -0.1239
     88  CA        19.8280   35.1000   74.4890 C.3   302  ASP302      0.1674
     89  C         21.3410   35.0120   74.6540 C.2   302  ASP302      0.2266
     90  O         21.8770   35.1190   75.7710 O.2   302  ASP302     -0.2867
     91  CB        19.2140   33.7660   74.8830 C.3   302  ASP302      0.1410
     92  CG        19.3440   33.4940   76.3540 C.2   302  ASP302      0.3668
     93  OD1       19.1140   34.4380   77.1470 O.co2 302  ASP302     -0.2456
     94  OD2       19.7190   32.3520   76.7090 O.co2 302  ASP302     -0.2456
     95  N         23.4420   37.0230   72.8000 N.3   303  LEU303     -0.1231
     96  CA        23.9750   38.1740   72.0650 C.3   303  LEU303      0.1693
     97  C         25.2570   38.8070   72.6430 C.2   303  LEU303      0.2592
     98  O         26.0900   39.3290   71.8920 O.2   303  LEU303     -0.2718
     99  CB        22.9010   39.2540   71.8630 C.3   303  LEU303      0.0284
    100  CG        23.3670   40.4260   70.9860 C.3   303  LEU303      0.0019
    101  CD1       23.7840   39.9310   69.5910 C.3   303  LEU303      0.0001
    102  CD2       22.3370   41.5240   70.8980 C.3   303  LEU303      0.0001
    103  N         25.4100   38.7640   73.9660 N.am  304  GLY304     -0.1957
    104  CA        26.5860   39.3070   74.6230 C.3   304  GLY304      0.1869
    105  C         27.8380   38.5810   74.1780 C.2   304  GLY304      0.2309
    106  O         28.7950   39.1900   73.6950 O.2   304  GLY304     -0.2863
    107  N         28.1130   36.4610   71.6250 N.3   305  VAL305     -0.1245
    108  CA        28.1790   36.6220   70.1830 C.3   305  VAL305      0.1561
    109  C         28.8490   37.9430   69.8230 C.2   305  VAL305      0.2260
    110  O         29.7420   37.9860   68.9850 O.2   305  VAL305     -0.2867
    111  CB        26.7510   36.5320   69.5730 C.3   305  VAL305      0.0252
    112  CG1       26.6780   37.1750   68.1850 C.3   305  VAL305      0.0019
    113  CG2       26.2790   35.0720   69.5520 C.3   305  VAL305      0.0019
@<TRIPOS>BOND
     1     4     3    2
     2     2     5    1
     3     2     3    1
     4     2     1    1
     5     5     6    1
     6    43    45   ar
     7    43    41   ar
     8     6     7    1
     9    45    44   ar
    10     7     8    1
    11    41    40   ar
    12    44    42   ar
    13     8     9    2
    14    10     9    1
    15    40    42   ar
    16    40    39    1
    17     9    11    1
    18    35    36    1
    19    36    39    1
    20    36    37    1
    21    12    13    1
    22    37    38    2
    23    37    46   am
    24    13    14    1
    25    13    16    1
    26    15    14    2
    27    14    24   am
    28    46    47    1
    29    27    26    2
    30    26    25    1
    31    18    20   ar
    32    18    17   ar
    33    16    17    1
    34    48    49    2
    35    48    47    1
    36    20    22   ar
    37    24    25    1
    38    17    19   ar
    39    47    50    1
    40    25    28    1
    41    22    23    1
    42    22    21   ar
    43    19    21   ar
    44    50    51    1
    45    28    29    1
    46    52    51    2
    47    51    53   am
    48    29    30   ar
    49    29    31   ar
    50    30    32   ar
    51   112   111    1
    52    31    33   ar
    53    32    34   ar
    54   110   109    2
    55   113   111    1
    56   111   108    1
    57   101   100    1
    58    33    34   ar
    59   109   108    1
    60   108   107    1
    61   102   100    1
    62   100    99    1
    63    99    96    1
    64    98    97    2
    65    96    97    1
    66    96    95    1
    67    97   103   am
    68    87    88    1
    69   106   105    2
    70   103   104    1
    71   105   104    1
    72    88    89    1
    73    88    91    1
    74    89    90    2
    75    91    92    1
    76    86    84   am
    77    92    94   ar
    78    92    93   ar
    79    84    83    1
    80    84    85    2
    81    83    82    1
    82    81    80    2
    83    82    79    1
    84    69    67    1
    85    68    67    1
    86    79    80    1
    87    79    78    1
    88    67    66    1
    89    65    64    2
    90    76    75    2
    91    66    63    1
    92    60    59    1
    93    64    63    1
    94    64    70   am
    95    63    62    1
    96    73    72    2
    97    71    70    1
    98    71    72    1
    99    71    74    1
   100    75    74    1
   101    75    77   am
   102    61    59    1
   103    59    58    1
   104    57    56    2
   105    58    55    1
   106    55    56    1
   107    55    54    1
