@<TRIPOS>MOLECULE
tmp/4mrsA02.pdb
 120 114 0 0 0
SMALL
GASTEIGER

@<TRIPOS>ATOM
      1  N          9.8980   27.6510   92.1640 N.3    43  ALA43      -0.1245
      2  CA         8.5120   27.9390   92.4990 C.3    43  ALA43       0.1562
      3  C          7.9450   28.8710   91.4350 C.2    43  ALA43       0.2260
      4  O          6.8480   28.6710   90.9330 O.2    43  ALA43      -0.2867
      5  CB         8.4240   28.5750   93.8650 C.3    43  ALA43       0.0290
      6  N          7.5720   27.1980   87.9090 N.3    46  LEU46      -0.1231
      7  CA         6.4690   26.2490   87.9740 C.3    46  LEU46       0.1693
      8  C          5.1000   26.9600   88.0340 C.2    46  LEU46       0.2591
      9  O          4.0960   26.4630   87.5110 O.2    46  LEU46      -0.2718
     10  CB         6.6490   25.2870   89.1550 C.3    46  LEU46       0.0284
     11  CG         7.8330   24.3220   89.0580 C.3    46  LEU46       0.0019
     12  CD1        8.0580   23.6320   90.3990 C.3    46  LEU46       0.0001
     13  CD2        7.6510   23.3110   87.9240 C.3    46  LEU46       0.0001
     14  N          5.0750   28.1000   88.7160 N.am   47  ALA47      -0.1980
     15  CA         3.8690   28.8880   88.8950 C.3    47  ALA47       0.1597
     16  C          3.4460   29.5920   87.6120 C.2    47  ALA47       0.2287
     17  O          2.2550   29.6900   87.3200 O.2    47  ALA47      -0.2864
     18  CB         4.0470   29.8900   90.0250 C.3    47  ALA47       0.0319
     19  N          0.8320   28.0930   85.0510 N.3    50  PHE50      -0.1241
     20  CA        -0.5190   28.0760   85.5720 C.3    50  PHE50       0.1605
     21  C         -1.1720   29.4300   85.2740 C.2    50  PHE50       0.2264
     22  O         -2.3660   29.4930   84.9770 O.2    50  PHE50      -0.2867
     23  CB        -0.5380   27.7410   87.0690 C.3    50  PHE50       0.0534
     24  CG        -1.8800   27.9430   87.7210 C.ar   50  PHE50      -0.0203
     25  CD1       -2.9430   27.0720   87.4590 C.ar   50  PHE50      -0.0042
     26  CD2       -2.0870   28.9940   88.6040 C.ar   50  PHE50      -0.0042
     27  CE1       -4.2070   27.2510   88.0630 C.ar   50  PHE50      -0.0003
     28  CE2       -3.3380   29.1810   89.2130 C.ar   50  PHE50      -0.0003
     29  CZ        -4.3950   28.3020   88.9400 C.ar   50  PHE50      -0.0000
     30  N         -2.0660   29.3690   81.6740 N.3    53  LYS53      -0.1245
     31  CA        -3.1900   28.4560   81.5330 C.3    53  LYS53       0.1561
     32  C         -4.5310   29.1060   81.9080 C.2    53  LYS53       0.2260
     33  O         -5.5040   28.9680   81.1810 O.2    53  LYS53      -0.2867
     34  CB        -2.9580   27.2010   82.3750 C.3    53  LYS53       0.0271
     35  CG        -4.2300   26.4670   82.7340 C.3    53  LYS53       0.0035
     36  CD        -4.0440   25.6740   84.0160 C.3    53  LYS53       0.0206
     37  CE        -5.3830   25.3560   84.6630 C.3    53  LYS53       0.1093
     38  NZ        -6.0950   24.3130   83.8920 N.3    53  LYS53      -0.1314
     39  N          3.3730   17.1330   89.8640 N.3   165  ILE165     -0.1245
     40  CA         2.3200   17.9740   89.3030 C.3   165  ILE165      0.1561
     41  C          1.5850   17.2700   88.1660 C.2   165  ILE165      0.2260
     42  O          0.3470   17.2960   88.1080 O.2   165  ILE165     -0.2867
     43  CB         2.8770   19.3350   88.8270 C.3   165  ILE165      0.0252
     44  CG1        3.2790   20.2010   90.0260 C.3   165  ILE165      0.0019
     45  CG2        1.8580   20.0810   87.9820 C.3   165  ILE165      0.0019
     46  CD1        3.9010   21.5320   89.6300 C.3   165  ILE165      0.0001
     47  N         -2.4470   15.8970   88.3800 N.3   169  ASN169     -0.1225
     48  CA        -3.3950   16.5530   87.4920 C.3   169  ASN169      0.1785
     49  C         -3.6900   15.9060   86.1370 C.2   169  ASN169      0.2597
     50  O         -4.6190   16.3300   85.4450 O.2   169  ASN169     -0.2718
     51  CB        -2.9670   17.9990   87.2990 C.3   169  ASN169      0.1169
     52  CG        -2.9500   18.7540   88.5940 C.2   169  ASN169      0.2627
     53  OD1       -3.6290   18.3810   89.5410 O.2   169  ASN169     -0.2716
     54  ND2       -2.1700   19.8110   88.6530 N.am  169  ASN169     -0.0877
     55  N         -2.9520   14.8600   85.7680 N.am  170  PHE170     -0.1976
     56  CA        -3.1540   14.2450   84.4580 C.3   170  PHE170      0.1639
     57  C         -2.8600   12.7490   84.4820 C.2   170  PHE170      0.2290
     58  O         -2.4990   12.1850   85.5170 O.2   170  PHE170     -0.2864
     59  CB        -2.2270   14.8930   83.4130 C.3   170  PHE170      0.0560
     60  CG        -2.3340   16.3930   83.3280 C.ar  170  PHE170     -0.0200
     61  CD1       -3.2770   16.9940   82.5090 C.ar  170  PHE170     -0.0042
     62  CD2       -1.4620   17.2000   84.0370 C.ar  170  PHE170     -0.0042
     63  CE1       -3.3680   18.3750   82.4250 C.ar  170  PHE170     -0.0003
     64  CE2       -1.5450   18.5810   83.9520 C.ar  170  PHE170     -0.0003
     65  CZ        -2.5000   19.1680   83.1450 C.ar  170  PHE170     -0.0000
     66  N        -12.7250   16.4760   80.2800 N.3   282  LYS282     -0.1231
     67  CA       -11.8070   16.3370   81.4070 C.3   282  LYS282      0.1693
     68  C        -10.8280   17.5040   81.5780 C.2   282  LYS282      0.2592
     69  O        -10.4410   17.8520   82.6950 O.2   282  LYS282     -0.2718
     70  CB       -11.0190   15.0350   81.2810 C.3   282  LYS282      0.0285
     71  CG       -11.8660   13.7840   81.1140 C.3   282  LYS282      0.0035
     72  CD       -10.9800   12.5550   81.1440 C.3   282  LYS282      0.0206
     73  CE       -11.7750   11.2750   81.2700 C.3   282  LYS282      0.1093
     74  NZ       -12.1720   10.7330   79.9470 N.3   282  LYS282     -0.1314
     75  N        -10.3840   18.0730   80.4650 N.am  283  LEU283     -0.1966
     76  CA        -9.3330   19.0910   80.5140 C.3   283  LEU283      0.1728
     77  C         -9.7070   20.3920   79.8170 C.2   283  LEU283      0.2616
     78  O        -10.5150   20.4000   78.8860 O.2   283  LEU283     -0.2715
     79  CB        -8.0200   18.5590   79.9290 C.3   283  LEU283      0.0311
     80  CG        -7.5000   17.1890   80.3690 C.3   283  LEU283      0.0022
     81  CD1       -6.3420   16.7890   79.4680 C.3   283  LEU283      0.0001
     82  CD2       -7.0620   17.2030   81.8280 C.3   283  LEU283      0.0001
     83  N         -9.1500   21.5010   80.2990 N.am  284  THR284     -0.1951
     84  CA        -9.3780   22.7900   79.6530 C.3   284  THR284      0.1897
     85  C         -8.4130   23.0210   78.4810 C.2   284  THR284      0.2313
     86  O         -7.4200   22.3050   78.3310 O.2   284  THR284     -0.2863
     87  CB        -9.3130   23.9460   80.6630 C.3   284  THR284      0.1794
     88  OG1       -7.9610   24.1910   81.0530 O.3   284  THR284     -0.2208
     89  CG2      -10.1320   23.6090   81.8860 C.3   284  THR284      0.0378
     90  N         -5.0290   23.9730   79.5500 N.3   287  ASP287     -0.1239
     91  CA        -4.2170   22.8240   79.9150 C.3   287  ASP287      0.1674
     92  C         -3.2350   22.4470   78.8150 C.2   287  ASP287      0.2266
     93  O         -2.1650   21.9220   79.0980 O.2   287  ASP287     -0.2867
     94  CB        -5.1230   21.6470   80.2720 C.3   287  ASP287      0.1410
     95  CG        -5.7890   21.8270   81.6210 C.2   287  ASP287      0.3668
     96  OD1       -5.2460   22.5990   82.4440 O.co2 287  ASP287     -0.2456
     97  OD2       -6.8710   21.2390   81.8440 O.co2 287  ASP287     -0.2456
     98  N         -0.4620   24.7980   79.1880 N.3   290  PHE290     -0.1241
     99  CA         0.2020   24.4250   80.4210 C.3   290  PHE290      0.1605
    100  C          1.1700   23.2590   80.1830 C.2   290  PHE290      0.2264
    101  O          2.3470   23.3260   80.5580 O.2   290  PHE290     -0.2867
    102  CB        -0.8260   24.0170   81.4550 C.3   290  PHE290      0.0534
    103  CG        -0.2520   23.7140   82.7950 C.ar  290  PHE290     -0.0203
    104  CD1       -0.0570   24.7280   83.7190 C.ar  290  PHE290     -0.0042
    105  CD2        0.0940   22.4140   83.1360 C.ar  290  PHE290     -0.0042
    106  CE1        0.4610   24.4490   84.9690 C.ar  290  PHE290     -0.0003
    107  CE2        0.6290   22.1260   84.3770 C.ar  290  PHE290     -0.0003
    108  CZ         0.8160   23.1420   85.2970 C.ar  290  PHE290     -0.0000
    109  N          5.2490   23.4300   80.3300 N.3   294  TYR294     -0.1241
    110  CA         5.9820   22.6370   81.3170 C.3   294  TYR294      0.1605
    111  C          7.0700   21.7950   80.6410 C.2   294  TYR294      0.2264
    112  O          8.2290   21.7460   81.1020 O.2   294  TYR294     -0.2867
    113  CB         5.0310   21.7560   82.1190 C.3   294  TYR294      0.0534
    114  CG         4.7520   22.3050   83.4980 C.ar  294  TYR294     -0.0201
    115  CD1        4.3130   23.6130   83.6590 C.ar  294  TYR294     -0.0009
    116  CD2        4.8800   21.5150   84.6310 C.ar  294  TYR294     -0.0009
    117  CE1        4.0460   24.1320   84.9120 C.ar  294  TYR294      0.0417
    118  CE2        4.6070   22.0250   85.8950 C.ar  294  TYR294      0.0417
    119  CZ         4.1920   23.3390   86.0240 C.ar  294  TYR294      0.1957
    120  OH         3.9200   23.8780   87.2620 O.3   294  TYR294     -0.2866
@<TRIPOS>BOND
     1    86    85    2
     2    85    84    1
     3    92    93    2
     4    92    91    1
     5    78    77    2
     6    98    99    1
     7    81    80    1
     8    90    91    1
     9    84    83    1
    10    84    87    1
    11    77    83   am
    12    77    76    1
    13    91    94    1
    14    79    80    1
    15    79    76    1
    16    74    73    1
    17   100    99    1
    18   100   101    2
    19    94    95    1
    20    66    67    1
    21   109   110    1
    22    80    82    1
    23    99   102    1
    24    75    76    1
    25    75    68   am
    26   111   112    2
    27   111   110    1
    28    87    88    1
    29    87    89    1
    30    71    72    1
    31    71    70    1
    32    72    73    1
    33    33    32    2
    34    70    67    1
    35   110   113    1
    36    67    68    1
    37   102   103    1
    38    31    30    1
    39    31    32    1
    40    31    34    1
    41    68    69    2
    42    95    97   ar
    43    95    96   ar
    44   113   114    1
    45    34    35    1
    46    63    61   ar
    47    63    65   ar
    48    61    60   ar
    49    35    36    1
    50   103   105   ar
    51   103   104   ar
    52   105   107   ar
    53    65    64   ar
    54    60    59    1
    55    60    62   ar
    56    59    56    1
    57   114   115   ar
    58   114   116   ar
    59   115   117   ar
    60   104   106   ar
    61    38    37    1
    62    64    62   ar
    63    36    37    1
    64   107   108   ar
    65    56    57    1
    66    56    55    1
    67    57    58    2
    68   116   118   ar
    69   117   119   ar
    70   106   108   ar
    71    22    21    2
    72    19    20    1
    73    21    20    1
    74    50    49    2
    75    20    23    1
    76    55    49   am
    77   118   119   ar
    78   119   120    1
    79    49    48    1
    80    23    24    1
    81    51    48    1
    82    51    52    1
    83    17    16    2
    84    25    24   ar
    85    25    27   ar
    86    48    47    1
    87     9     8    2
    88    16    15    1
    89    24    26   ar
    90     6     7    1
    91    13    11    1
    92     7     8    1
    93     7    10    1
    94    45    43    1
    95     8    14   am
    96    27    29   ar
    97    42    41    2
    98    41    40    1
    99    52    54   am
   100    52    53    2
   101    26    28   ar
   102    14    15    1
   103    43    40    1
   104    43    44    1
   105    15    18    1
   106    29    28   ar
   107    11    10    1
   108    11    12    1
   109    40    39    1
   110    46    44    1
   111     4     3    2
   112     3     2    1
   113     1     2    1
   114     2     5    1
