@<TRIPOS>MOLECULE
tmp/4mrsB06.pdb
 88 82 0 0 0
SMALL
GASTEIGER

@<TRIPOS>ATOM
      1  N         36.7840   52.0230   54.4480 N.3     5  ARG5       -0.1245
      2  CA        36.7470   52.4700   55.8460 C.3     5  ARG5        0.1563
      3  C         37.5000   51.5780   56.8590 C.2     5  ARG5        0.2260
      4  O         37.5730   51.9070   58.0400 O.2     5  ARG5       -0.2867
      5  CB        35.2770   52.6100   56.2780 C.3     5  ARG5        0.0307
      6  CG        35.0810   53.0640   57.7040 C.3     5  ARG5        0.0489
      7  CD        33.6610   53.0380   58.1770 C.3     5  ARG5        0.2205
      8  NE        33.6050   53.6330   59.5050 N.pl3   5  ARG5       -0.0865
      9  CZ        32.4880   53.8840   60.1730 C.cat   5  ARG5        0.5346
     10  NH1       31.3040   53.5780   59.6480 N.pl3   5  ARG5        0.1354
     11  NH2       32.5630   54.4360   61.3750 N.pl3   5  ARG5        0.1354
     12  N         36.8500   48.5000   58.3470 N.3     7  ASP7       -0.1225
     13  CA        35.9850   48.1460   59.4500 C.3     7  ASP7        0.1805
     14  C         35.6750   46.6680   59.3350 C.2     7  ASP7        0.2598
     15  O         36.2960   45.9690   58.5250 O.2     7  ASP7       -0.2718
     16  CB        34.7180   49.0190   59.4750 C.3     7  ASP7        0.1424
     17  CG        33.9930   49.0690   58.1300 C.2     7  ASP7        0.3668
     18  OD1       34.5470   48.5640   57.1310 O.co2   7  ASP7       -0.2456
     19  OD2       32.8750   49.6380   58.0700 O.co2   7  ASP7       -0.2456
     20  N         34.7660   46.1840   60.1710 N.am    8  GLY8       -0.1942
     21  CA        34.3670   44.7920   60.1030 C.3     8  GLY8        0.2014
     22  C         33.9240   44.4800   58.6890 C.2     8  GLY8        0.2638
     23  O         34.2530   43.4110   58.1580 O.2     8  GLY8       -0.2714
     24  N         33.2440   45.4440   58.0590 N.am    9  TRP9       -0.1973
     25  CA        32.7050   45.2430   56.7200 C.3     9  TRP9        0.1640
     26  C         33.7920   44.9510   55.7020 C.2     9  TRP9        0.2290
     27  O         33.6750   44.0150   54.9140 O.2     9  TRP9       -0.2864
     28  CB        31.8650   46.4380   56.2630 C.3     9  TRP9        0.0576
     29  CG        30.6500   46.6340   57.0810 C.ar    9  TRP9        0.0006
     30  CD1       30.3920   47.6590   57.9550 C.ar    9  TRP9        0.0946
     31  CD2       29.5180   45.7610   57.1400 C.ar    9  TRP9        0.0152
     32  NE1       29.1550   47.4830   58.5370 N.ar    9  TRP9       -0.2442
     33  CE2       28.6020   46.3220   58.0570 C.ar    9  TRP9        0.0810
     34  CE3       29.1820   44.5640   56.4970 C.ar    9  TRP9        0.0012
     35  CZ2       27.3780   45.7260   58.3450 C.ar    9  TRP9        0.0191
     36  CZ3       27.9680   43.9710   56.7890 C.ar    9  TRP9        0.0001
     37  CH2       27.0800   44.5530   57.7030 C.ar    9  TRP9        0.0015
     38  N         35.2670   41.3850   56.3120 N.3    12  LEU12      -0.1245
     39  CA        34.3100   40.3800   55.8700 C.3    12  LEU12       0.1561
     40  C         34.2510   40.2980   54.3480 C.2    12  LEU12       0.2260
     41  O         34.2310   39.1990   53.7630 O.2    12  LEU12      -0.2867
     42  CB        32.9280   40.6950   56.4370 C.3    12  LEU12       0.0270
     43  CG        32.7950   40.4430   57.9370 C.3    12  LEU12       0.0019
     44  CD1       31.3650   40.6290   58.3450 C.3    12  LEU12       0.0001
     45  CD2       33.2640   39.0380   58.2580 C.3    12  LEU12       0.0001
     46  N         28.4310   34.5950   63.1420 N.3   147  LEU147     -0.1245
     47  CA        27.9960   35.4980   62.0650 C.3   147  LEU147      0.1561
     48  C         27.0350   34.8050   61.1250 C.2   147  LEU147      0.2260
     49  O         25.9910   35.3590   60.7770 O.2   147  LEU147     -0.2867
     50  CB        29.1580   36.0330   61.2250 C.3   147  LEU147      0.0270
     51  CG        29.6960   37.4280   61.5040 C.3   147  LEU147      0.0019
     52  CD1       30.8510   37.7070   60.5690 C.3   147  LEU147      0.0001
     53  CD2       28.6050   38.4580   61.3260 C.3   147  LEU147      0.0001
     54  N         23.6780   35.3480   63.8870 N.3   151  ILE151     -0.1245
     55  CA        23.2640   36.6820   63.4590 C.3   151  ILE151      0.1561
     56  C         22.4360   36.7170   62.1760 C.2   151  ILE151      0.2260
     57  O         21.3680   37.3440   62.1360 O.2   151  ILE151     -0.2867
     58  CB        24.4710   37.6300   63.3130 C.3   151  ILE151      0.0252
     59  CG1       25.1300   37.8260   64.6750 C.3   151  ILE151      0.0019
     60  CG2       24.0350   38.9540   62.7480 C.3   151  ILE151      0.0019
     61  CD1       24.2050   38.4020   65.7310 C.3   151  ILE151      0.0001
     62  N         25.0480   45.4990   74.1340 N.3   189  ARG189     -0.1245
     63  CA        26.3150   46.0150   73.6410 C.3   189  ARG189      0.1563
     64  C         27.0610   46.8200   74.7200 C.2   189  ARG189      0.2260
     65  O         28.2560   46.5620   74.9790 O.2   189  ARG189     -0.2867
     66  CB        26.0820   46.8410   72.3780 C.3   189  ARG189      0.0307
     67  CG        27.2810   47.6440   71.9030 C.3   189  ARG189      0.0489
     68  CD        26.9080   48.4720   70.6870 C.3   189  ARG189      0.2205
     69  NE        27.7350   49.6720   70.5820 N.pl3 189  ARG189     -0.0865
     70  CZ        28.7990   49.8200   69.7950 C.cat 189  ARG189      0.5346
     71  NH1       29.2010   48.8310   69.0060 N.pl3 189  ARG189      0.1354
     72  NH2       29.4610   50.9740   69.7980 N.pl3 189  ARG189      0.1354
     73  N         32.3430   37.9700   67.9510 N.3   309  ILE309     -0.1245
     74  CA        32.3810   38.4060   66.5660 C.3   309  ILE309      0.1561
     75  C         33.3760   39.5590   66.4810 C.2   309  ILE309      0.2260
     76  O         34.1600   39.6520   65.5320 O.2   309  ILE309     -0.2867
     77  CB        30.9590   38.8060   66.0400 C.3   309  ILE309      0.0252
     78  CG1       30.0870   37.5570   65.8270 C.3   309  ILE309      0.0019
     79  CG2       31.0280   39.6000   64.7460 C.3   309  ILE309      0.0019
     80  CD1       28.6960   37.8590   65.3280 C.3   309  ILE309      0.0001
     81  N         36.8290   39.5320   64.2350 N.3   313  LEU313     -0.1245
     82  CA        37.0540   40.5060   63.1670 C.3   313  LEU313      0.1561
     83  C         38.3910   41.2190   63.3550 C.2   313  LEU313      0.2260
     84  O         39.0880   41.5330   62.3840 O.2   313  LEU313     -0.2867
     85  CB        35.9230   41.5340   63.1180 C.3   313  LEU313      0.0270
     86  CG        34.6120   40.9830   62.5800 C.3   313  LEU313      0.0019
     87  CD1       33.5030   41.9970   62.7720 C.3   313  LEU313      0.0001
     88  CD2       34.8040   40.6470   61.1140 C.3   313  LEU313      0.0001
@<TRIPOS>BOND
     1    41    40    2
     2    40    39    1
     3     1     2    1
     4    27    26    2
     5    26    25    1
     6     2     5    1
     7     2     3    1
     8    39    38    1
     9    39    42    1
    10    28    25    1
    11    28    29    1
    12     5     6    1
    13    42    43    1
    14    34    36   ar
    15    34    31   ar
    16    25    24    1
    17    36    37   ar
    18     3     4    2
    19    29    31   ar
    20    29    30   ar
    21    18    17   ar
    22    31    33   ar
    23    37    35   ar
    24     6     7    1
    25    43    45    1
    26    43    44    1
    27    30    32   ar
    28    33    35   ar
    29    33    32   ar
    30    24    22   am
    31    19    17   ar
    32    17    16    1
    33    23    22    2
    34     7     8    1
    35    12    13    1
    36    15    14    2
    37    22    21    1
    38    14    13    1
    39    14    20   am
    40    13    16    1
    41     8     9    2
    42    10     9    1
    43    21    20    1
    44     9    11    1
    45    52    51    1
    46    49    48    2
    47    88    86    1
    48    48    47    1
    49    50    51    1
    50    50    47    1
    51    53    51    1
    52    47    46    1
    53    57    56    2
    54    56    55    1
    55    84    83    2
    56    86    87    1
    57    86    85    1
    58    60    58    1
    59    85    82    1
    60    82    83    1
    61    82    81    1
    62    58    55    1
    63    58    59    1
    64    55    54    1
    65    59    61    1
    66    79    77    1
    67    80    78    1
    68    76    75    2
    69    78    77    1
    70    77    74    1
    71    75    74    1
    72    74    73    1
    73    71    70    1
    74    70    72    1
    75    70    69    2
    76    69    68    1
    77    68    67    1
    78    67    66    1
    79    66    63    1
    80    63    62    1
    81    63    64    1
    82    64    65    2
