@<TRIPOS>MOLECULE
tmp/4mrsB01.pdb
 93 86 0 0 0
SMALL
GASTEIGER

@<TRIPOS>ATOM
      1  N         40.6910   29.9990   67.3250 N.3   139  LYS139     -0.1245
      2  CA        39.4310   29.8070   68.0300 C.3   139  LYS139      0.1561
      3  C         38.5140   31.0240   67.8170 C.2   139  LYS139      0.2260
      4  O         37.3270   30.8930   67.5000 O.2   139  LYS139     -0.2867
      5  CB        39.6890   29.5550   69.5180 C.3   139  LYS139      0.0271
      6  CG        38.4270   29.3040   70.3170 C.3   139  LYS139      0.0035
      7  CD        37.9380   27.8730   70.1500 C.3   139  LYS139      0.0206
      8  CE        36.5580   27.6750   70.7800 C.3   139  LYS139      0.1093
      9  NZ        36.0810   26.2620   70.6940 N.3   139  LYS139     -0.1314
     10  N         34.8620   30.8340   65.9210 N.3   143  THR143     -0.1218
     11  CA        33.6740   31.1900   66.6580 C.3   143  THR143      0.1862
     12  C         32.9830   32.3820   66.0010 C.2   143  THR143      0.2287
     13  O         31.7620   32.3820   65.8190 O.2   143  THR143     -0.2866
     14  CB        33.9920   31.5210   68.0980 C.3   143  THR143      0.1770
     15  OG1       34.8710   30.5250   68.6390 O.3   143  THR143     -0.2211
     16  CG2       32.7170   31.5370   68.8960 C.3   143  THR143      0.0375
     17  N         31.1300   31.1650   62.8220 N.3   145  TYR145     -0.1227
     18  CA        29.9470   30.3940   63.1630 C.3   145  TYR145      0.1736
     19  C         28.7960   31.3030   63.6540 C.2   145  TYR145      0.2595
     20  O         27.6670   31.1980   63.1730 O.2   145  TYR145     -0.2718
     21  CB        30.2950   29.3190   64.2010 C.3   145  TYR145      0.0548
     22  CG        29.0790   28.5930   64.7290 C.ar  145  TYR145     -0.0200
     23  CD1       28.5440   27.5070   64.0460 C.ar  145  TYR145     -0.0009
     24  CD2       28.4540   29.0060   65.9040 C.ar  145  TYR145     -0.0009
     25  CE1       27.4280   26.8520   64.5140 C.ar  145  TYR145      0.0417
     26  CE2       27.3380   28.3570   66.3810 C.ar  145  TYR145      0.0417
     27  CZ        26.8270   27.2790   65.6840 C.ar  145  TYR145      0.1957
     28  OH        25.7110   26.6230   66.1610 O.3   145  TYR145     -0.2866
     29  N         29.0930   32.2130   64.5800 N.am  146  PHE146     -0.1976
     30  CA        28.0780   33.1290   65.0800 C.3   146  PHE146      0.1639
     31  C         27.5560   34.1050   64.0200 C.2   146  PHE146      0.2290
     32  O         26.3630   34.4140   64.0050 O.2   146  PHE146     -0.2864
     33  CB        28.5960   33.9060   66.2770 C.3   146  PHE146      0.0560
     34  CG        28.6030   33.1200   67.5460 C.ar  146  PHE146     -0.0200
     35  CD1       27.6520   32.1380   67.7730 C.ar  146  PHE146     -0.0042
     36  CD2       29.5580   33.3640   68.5220 C.ar  146  PHE146     -0.0042
     37  CE1       27.6530   31.4160   68.9580 C.ar  146  PHE146     -0.0003
     38  CE2       29.5640   32.6520   69.7100 C.ar  146  PHE146     -0.0003
     39  CZ        28.6200   31.6730   69.9280 C.ar  146  PHE146     -0.0000
     40  N         31.7320   44.3930   80.5050 N.3   195  ARG195     -0.1245
     41  CA        32.0980   43.0320   80.8930 C.3   195  ARG195      0.1563
     42  C         33.4240   42.5830   80.2810 C.2   195  ARG195      0.2260
     43  O         34.1800   41.8380   80.8980 O.2   195  ARG195     -0.2867
     44  CB        31.0000   42.0380   80.5230 C.3   195  ARG195      0.0307
     45  CG        29.7690   42.2140   81.3620 C.3   195  ARG195      0.0489
     46  CD        28.8630   41.0070   81.3530 C.3   195  ARG195      0.2205
     47  NE        29.3790   39.7920   80.7220 N.pl3 195  ARG195     -0.0865
     48  CZ        30.0300   38.8320   81.3660 C.cat 195  ARG195      0.5346
     49  NH1       30.3200   38.9600   82.6500 N.pl3 195  ARG195      0.1354
     50  NH2       30.4180   37.7480   80.7210 N.pl3 195  ARG195      0.1354
     51  N         36.6540   41.1700   82.2150 N.3   199  ARG199     -0.1245
     52  CA        37.1590   39.8590   81.8310 C.3   199  ARG199      0.1563
     53  C         38.6680   39.9320   81.5860 C.2   199  ARG199      0.2260
     54  O         39.4160   39.0170   81.9530 O.2   199  ARG199     -0.2867
     55  CB        36.4540   39.3610   80.5710 C.3   199  ARG199      0.0307
     56  CG        36.9270   37.9990   80.0740 C.3   199  ARG199      0.0489
     57  CD        36.3730   37.7290   78.6900 C.3   199  ARG199      0.2205
     58  NE        36.4630   36.3260   78.3040 N.pl3 199  ARG199     -0.0865
     59  CZ        35.5240   35.4200   78.5650 C.cat 199  ARG199      0.5346
     60  NH1       34.4220   35.7700   79.2260 N.pl3 199  ARG199      0.1354
     61  NH2       35.6860   34.1610   78.1700 N.pl3 199  ARG199      0.1354
     62  N         31.9470   37.5400   86.7270 N.3   250  GLU250     -0.1245
     63  CA        30.8200   36.6060   86.6780 C.3   250  GLU250      0.1567
     64  C         29.5180   37.2430   87.1490 C.2   250  GLU250      0.2260
     65  O         28.4560   36.9520   86.6090 O.2   250  GLU250     -0.2867
     66  CB        31.1130   35.3080   87.4310 C.3   250  GLU250      0.0388
     67  CG        32.4190   34.6480   87.0090 C.3   250  GLU250      0.1160
     68  CD        32.3340   33.9660   85.6580 C.2   250  GLU250      0.3649
     69  OE1       31.2520   33.4280   85.3160 O.co2 250  GLU250     -0.2457
     70  OE2       33.3550   33.9890   84.9290 O.co2 250  GLU250     -0.2457
     71  N         27.8880   39.2300   84.4700 N.3   253  LEU253     -0.1245
     72  CA        27.0380   38.4050   83.5950 C.3   253  LEU253      0.1561
     73  C         25.5530   38.3330   84.0960 C.2   253  LEU253      0.2260
     74  O         24.5920   38.3810   83.3050 O.2   253  LEU253     -0.2867
     75  CB        27.6040   36.9830   83.4520 C.3   253  LEU253      0.0270
     76  CG        26.7500   36.0320   82.5960 C.3   253  LEU253      0.0019
     77  CD1       26.4990   36.6710   81.2350 C.3   253  LEU253      0.0001
     78  CD2       27.3500   34.6320   82.4350 C.3   253  LEU253      0.0001
     79  N         25.4100   38.7640   73.9660 N.3   304  GLY304     -0.1225
     80  CA        26.5860   39.3070   74.6230 C.3   304  GLY304      0.1811
     81  C         27.8380   38.5810   74.1780 C.2   304  GLY304      0.2280
     82  O         28.7950   39.1900   73.6950 O.2   304  GLY304     -0.2866
     83  N         30.8420   39.8370   71.7490 N.3   307  ARG307     -0.1245
     84  CA        32.2060   39.8810   72.2140 C.3   307  ARG307      0.1563
     85  C         33.0800   39.1270   71.2340 C.2   307  ARG307      0.2260
     86  O         34.1670   39.5770   70.8750 O.2   307  ARG307     -0.2867
     87  CB        32.3470   39.2640   73.6060 C.3   307  ARG307      0.0307
     88  CG        33.8320   38.9980   73.9620 C.3   307  ARG307      0.0489
     89  CD        34.0350   38.5330   75.3950 C.3   307  ARG307      0.2205
     90  NE        33.2310   37.3570   75.6990 N.pl3 307  ARG307     -0.0865
     91  CZ        33.5770   36.1120   75.3960 C.cat 307  ARG307      0.5346
     92  NH1       34.7190   35.8730   74.7600 N.pl3 307  ARG307      0.1354
     93  NH2       32.7700   35.1090   75.7170 N.pl3 307  ARG307      0.1354
@<TRIPOS>BOND
     1    17    18    1
     2    18    19    1
     3    18    21    1
     4    20    19    2
     5    19    29   am
     6    32    31    2
     7    31    30    1
     8    23    25   ar
     9    23    22   ar
    10    21    22    1
    11    25    27   ar
    12    29    30    1
    13    22    24   ar
    14    30    33    1
    15    27    28    1
    16    27    26   ar
    17    13    12    2
    18    24    26   ar
    19    10    11    1
    20    12    11    1
    21    33    34    1
    22    11    14    1
    23     1     2    1
    24     4     3    2
    25    34    35   ar
    26    34    36   ar
    27    35    37   ar
    28     3     2    1
    29     2     5    1
    30    14    15    1
    31    14    16    1
    32    36    38   ar
    33    37    39   ar
    34     5     6    1
    35    38    39   ar
    36     7     6    1
    37     7     8    1
    38     9     8    1
    39    86    85    2
    40    85    84    1
    41    83    84    1
    42    84    87    1
    43    87    88    1
    44    82    81    2
    45    88    89    1
    46    79    80    1
    47    81    80    1
    48    92    91    1
    49    89    90    1
    50    91    90    2
    51    91    93    1
    52    61    59    1
    53    58    59    2
    54    58    57    1
    55    59    60    1
    56    57    56    1
    57    56    55    1
    58    42    41    1
    59    42    43    2
    60    40    41    1
    61    44    41    1
    62    44    45    1
    63    55    52    1
    64    50    48    1
    65    47    46    1
    66    47    48    2
    67    77    76    1
    68    46    45    1
    69    48    49    1
    70    53    52    1
    71    53    54    2
    72    52    51    1
    73    78    76    1
    74    76    75    1
    75    74    73    2
    76    75    72    1
    77    72    73    1
    78    72    71    1
    79    70    68   ar
    80    69    68   ar
    81    68    67    1
    82    65    64    2
    83    63    62    1
    84    63    64    1
    85    63    66    1
    86    67    66    1
