@<TRIPOS>MOLECULE
tmp/4mrvA02.pdb
 86 79 0 0 0
SMALL
GASTEIGER

@<TRIPOS>ATOM
      1  N         43.5660   24.6860   95.3100 N.3   108  ALA108     -0.1245
      2  CA        44.8150   25.0340   94.6330 C.3   108  ALA108      0.1562
      3  C         45.9650   25.2930   95.6200 C.2   108  ALA108      0.2260
      4  O         47.0870   24.7720   95.4510 O.2   108  ALA108     -0.2867
      5  CB        44.5930   26.2310   93.7580 C.3   108  ALA108      0.0290
      6  N         47.1750   21.9710   97.2080 N.3   111  VAL111     -0.1231
      7  CA        48.0310   21.2530   96.2820 C.3   111  VAL111      0.1692
      8  C         49.4220   21.9050   96.1700 C.2   111  VAL111      0.2592
      9  O         50.4390   21.2110   96.1320 O.2   111  VAL111     -0.2718
     10  CB        47.3900   21.1550   94.8810 C.3   111  VAL111      0.0266
     11  CG1       48.3890   20.5890   93.8810 C.3   111  VAL111      0.0020
     12  CG2       46.1510   20.2960   94.9200 C.3   111  VAL111      0.0020
     13  N         49.4540   23.2390   96.1290 N.am  112  PHE112     -0.1976
     14  CA        50.6970   23.9950   95.9950 C.3   112  PHE112      0.1639
     15  C         51.5900   23.7200   97.1970 C.2   112  PHE112      0.2290
     16  O         52.7990   23.3880   97.0510 O.2   112  PHE112     -0.2864
     17  CB        50.3940   25.5000   95.8970 C.3   112  PHE112      0.0560
     18  CG        51.6020   26.3570   95.6150 C.ar  112  PHE112     -0.0200
     19  CD1       52.2960   26.2570   94.4040 C.ar  112  PHE112     -0.0042
     20  CD2       52.0630   27.2570   96.5740 C.ar  112  PHE112     -0.0042
     21  CE1       53.4140   27.0550   94.1530 C.ar  112  PHE112     -0.0003
     22  CE2       53.1940   28.0520   96.3310 C.ar  112  PHE112     -0.0003
     23  CZ        53.8600   27.9520   95.1210 C.ar  112  PHE112     -0.0000
     24  N         53.0180   20.2930   96.9390 N.3   115  LEU115     -0.1245
     25  CA        54.0640   20.1080   95.9620 C.3   115  LEU115      0.1561
     26  C         55.3800   20.5550   96.5480 C.2   115  LEU115      0.2260
     27  O         56.4210   19.9430   96.3090 O.2   115  LEU115     -0.2867
     28  CB        53.7600   20.8770   94.6810 C.3   115  LEU115      0.0270
     29  CG        52.5330   20.3510   93.9530 C.3   115  LEU115      0.0019
     30  CD1       52.3190   21.1330   92.6810 C.3   115  LEU115      0.0001
     31  CD2       52.7260   18.8900   93.6550 C.3   115  LEU115      0.0001
     32  N         53.5420   23.2430   81.3330 N.3   131  VAL131     -0.1245
     33  CA        52.9390   23.2070   82.6580 C.3   131  VAL131      0.1561
     34  C         51.8230   24.2190   82.7310 C.2   131  VAL131      0.2260
     35  O         50.7220   23.9080   83.1750 O.2   131  VAL131     -0.2867
     36  CB        53.9750   23.5350   83.7540 C.3   131  VAL131      0.0252
     37  CG1       53.3580   23.4650   85.1170 C.3   131  VAL131      0.0019
     38  CG2       55.1460   22.5940   83.6690 C.3   131  VAL131      0.0019
     39  N         48.7650   23.2650   80.7030 N.3   134  VAL134     -0.1231
     40  CA        48.0750   22.1740   81.3850 C.3   134  VAL134      0.1692
     41  C         47.2530   22.6560   82.5680 C.2   134  VAL134      0.2592
     42  O         46.0930   22.2730   82.7190 O.2   134  VAL134     -0.2718
     43  CB        49.0440   21.1060   81.8970 C.3   134  VAL134      0.0266
     44  CG1       48.3210   20.1550   82.8360 C.3   134  VAL134      0.0020
     45  CG2       49.6350   20.3390   80.7410 C.3   134  VAL134      0.0020
     46  N         47.8610   23.4890   83.4050 N.am  135  ILE135     -0.1966
     47  CA        47.1940   24.0430   84.5770 C.3   135  ILE135      0.1727
     48  C         46.0470   24.9730   84.1860 C.2   135  ILE135      0.2616
     49  O         45.0020   24.9840   84.8370 O.2   135  ILE135     -0.2715
     50  CB        48.1910   24.7670   85.4910 C.3   135  ILE135      0.0290
     51  CG1       49.1330   23.7470   86.1230 C.3   135  ILE135      0.0022
     52  CG2       47.4750   25.5070   86.5890 C.3   135  ILE135      0.0023
     53  CD1       50.2830   24.3510   86.8890 C.3   135  ILE135      0.0001
     54  N         46.2280   25.7360   83.1140 N.am  136  GLU136     -0.1977
     55  CA        45.1670   26.6170   82.6200 C.3   136  GLU136      0.1602
     56  C         43.9790   25.7680   82.1710 C.2   136  GLU136      0.2287
     57  O         42.7980   26.0750   82.4420 O.2   136  GLU136     -0.2864
     58  CB        45.6880   27.4490   81.4530 C.3   136  GLU136      0.0415
     59  CG        45.9080   28.9100   81.7780 C.3   136  GLU136      0.1163
     60  CD        46.8470   29.5960   80.7920 C.2   136  GLU136      0.3649
     61  OE1       47.2110   28.9720   79.7680 O.co2 136  GLU136     -0.2457
     62  OE2       47.1930   30.7750   81.0280 O.co2 136  GLU136     -0.2457
     63  N         42.2310   24.2700   85.2180 N.3   139  THR139     -0.1218
     64  CA        41.4580   25.2720   85.9410 C.3   139  THR139      0.1862
     65  C         40.1270   25.5110   85.2500 C.2   139  THR139      0.2287
     66  O         39.0490   25.4780   85.8940 O.2   139  THR139     -0.2866
     67  CB        42.2270   26.5990   86.0520 C.3   139  THR139      0.1770
     68  OG1       43.4040   26.3890   86.8370 O.3   139  THR139     -0.2211
     69  CG2       41.3560   27.6690   86.7090 C.3   139  THR139      0.0375
     70  N         42.9840   14.0890   90.0700 N.3   318  GLU318     -0.1245
     71  CA        44.4190   14.2180   89.9510 C.3   318  GLU318      0.1567
     72  C         44.8960   15.1350   91.0720 C.2   318  GLU318      0.2260
     73  O         45.8770   14.8050   91.7670 O.2   318  GLU318     -0.2867
     74  CB        44.7870   14.7270   88.5690 C.3   318  GLU318      0.0388
     75  CG        46.2500   14.9250   88.3980 C.3   318  GLU318      0.1160
     76  CD        46.9930   13.6120   88.3080 C.2   318  GLU318      0.3649
     77  OE1       46.4190   12.6500   87.7430 O.co2 318  GLU318     -0.2457
     78  OE2       48.1450   13.5510   88.8020 O.co2 318  GLU318     -0.2457
     79  N         47.6740   14.1290   94.3310 N.3   321  LEU321     -0.1245
     80  CA        48.8610   14.8170   94.8010 C.3   321  LEU321      0.1561
     81  C         48.7730   15.0770   96.2900 C.2   321  LEU321      0.2260
     82  O         49.7300   14.8530   97.0380 O.2   321  LEU321     -0.2867
     83  CB        49.0210   16.1550   94.0860 C.3   321  LEU321      0.0270
     84  CG        49.1000   16.1030   92.5630 C.3   321  LEU321      0.0019
     85  CD1       49.2890   17.5070   92.0030 C.3   321  LEU321      0.0001
     86  CD2       50.2530   15.1880   92.1300 C.3   321  LEU321      0.0001
@<TRIPOS>BOND
     1    61    60   ar
     2    39    40    1
     3    45    43    1
     4    60    62   ar
     5    60    59    1
     6    32    33    1
     7    40    43    1
     8    40    41    1
     9    58    59    1
    10    58    55    1
    11    43    44    1
    12    56    57    2
    13    56    55    1
    14    41    42    2
    15    41    46   am
    16    55    54    1
    17    33    34    1
    18    33    36    1
    19    34    35    2
    20    54    48   am
    21    46    47    1
    22    38    36    1
    23    36    37    1
    24    48    47    1
    25    48    49    2
    26    47    50    1
    27    63    64    1
    28    65    66    2
    29    65    64    1
    30    50    51    1
    31    50    52    1
    32    64    67    1
    33    67    69    1
    34    67    68    1
    35    51    53    1
    36    77    76   ar
    37    76    75    1
    38    76    78   ar
    39    75    74    1
    40    74    71    1
    41    71    70    1
    42    71    72    1
    43    72    73    2
    44    85    84    1
    45    86    84    1
    46    84    83    1
    47    30    29    1
    48    31    29    1
    49     5     2    1
    50    11    10    1
    51    29    28    1
    52    83    80    1
    53    21    19   ar
    54    21    23   ar
    55    79    80    1
    56    19    18   ar
    57     2     1    1
    58     2     3    1
    59    28    25    1
    60    80    81    1
    61    10    12    1
    62    10     7    1
    63    23    22   ar
    64     4     3    2
    65    18    17    1
    66    18    20   ar
    67    17    14    1
    68    25    26    1
    69    25    24    1
    70    14    13    1
    71    14    15    1
    72    13     8   am
    73     9     8    2
    74     8     7    1
    75     7     6    1
    76    81    82    2
    77    27    26    2
    78    22    20   ar
    79    16    15    2
