@<TRIPOS>MOLECULE
tmp/4mrvA00.pdb
 107 99 0 0 0
SMALL
GASTEIGER

@<TRIPOS>ATOM
      1  N         37.7680   26.5830   95.0910 N.3   104  THR104     -0.1218
      2  CA        38.8240   26.1820   94.1610 C.3   104  THR104      0.1862
      3  C         40.1820   26.7990   94.5140 C.2   104  THR104      0.2287
      4  O         41.2190   26.1500   94.3540 O.2   104  THR104     -0.2866
      5  CB        38.4580   26.4890   92.7290 C.3   104  THR104      0.1770
      6  OG1       38.1090   27.8710   92.6280 O.3   104  THR104     -0.2211
      7  CG2       37.2670   25.6320   92.3100 C.3   104  THR104      0.0375
      8  N         41.6060   24.6470   97.2220 N.3   107  LEU107     -0.1231
      9  CA        42.0720   23.3840   96.7190 C.3   107  LEU107      0.1693
     10  C         43.4550   23.6090   96.0890 C.2   107  LEU107      0.2591
     11  O         44.4260   22.8750   96.3950 O.2   107  LEU107     -0.2718
     12  CB        41.0530   22.7840   95.7440 C.3   107  LEU107      0.0284
     13  CG        41.4360   21.4220   95.1720 C.3   107  LEU107      0.0019
     14  CD1       41.6170   20.4440   96.2970 C.3   107  LEU107      0.0001
     15  CD2       40.3590   20.9580   94.2250 C.3   107  LEU107      0.0001
     16  N         43.5660   24.6860   95.3100 N.am  108  ALA108     -0.1980
     17  CA        44.8150   25.0340   94.6330 C.3   108  ALA108      0.1597
     18  C         45.9650   25.2930   95.6200 C.2   108  ALA108      0.2287
     19  O         47.0870   24.7720   95.4510 O.2   108  ALA108     -0.2864
     20  CB        44.5930   26.2310   93.7580 C.3   108  ALA108      0.0319
     21  N         48.7650   23.2650   80.7030 N.3   134  VAL134     -0.1231
     22  CA        48.0750   22.1740   81.3850 C.3   134  VAL134      0.1692
     23  C         47.2530   22.6560   82.5680 C.2   134  VAL134      0.2591
     24  O         46.0930   22.2730   82.7190 O.2   134  VAL134     -0.2718
     25  CB        49.0440   21.1060   81.8970 C.3   134  VAL134      0.0266
     26  CG1       48.3210   20.1550   82.8360 C.3   134  VAL134      0.0020
     27  CG2       49.6350   20.3390   80.7410 C.3   134  VAL134      0.0020
     28  N         47.8610   23.4890   83.4050 N.am  135  ILE135     -0.1980
     29  CA        47.1940   24.0430   84.5770 C.3   135  ILE135      0.1595
     30  C         46.0470   24.9730   84.1860 C.2   135  ILE135      0.2287
     31  O         45.0020   24.9840   84.8370 O.2   135  ILE135     -0.2864
     32  CB        48.1910   24.7670   85.4910 C.3   135  ILE135      0.0276
     33  CG1       49.1330   23.7470   86.1230 C.3   135  ILE135      0.0022
     34  CG2       47.4750   25.5070   86.5890 C.3   135  ILE135      0.0022
     35  CD1       50.2830   24.3510   86.8890 C.3   135  ILE135      0.0001
     36  N         44.3270   24.6780   81.5010 N.3   137  ARG137     -0.1231
     37  CA        43.3770   23.7220   80.9670 C.3   137  ARG137      0.1694
     38  C         42.5990   23.0710   82.1150 C.2   137  ARG137      0.2593
     39  O         41.3670   22.9620   82.0620 O.2   137  ARG137     -0.2718
     40  CB        44.1550   22.7110   80.1260 C.3   137  ARG137      0.0321
     41  CG        43.3560   21.7450   79.2810 C.3   137  ARG137      0.0489
     42  CD        44.3300   20.6610   78.8130 C.3   137  ARG137      0.2205
     43  NE        44.8780   19.9490   79.9680 N.pl3 137  ARG137     -0.0865
     44  CZ        44.1790   19.1230   80.7420 C.cat 137  ARG137      0.5346
     45  NH1       42.9190   18.8450   80.4450 N.pl3 137  ARG137      0.1354
     46  NH2       44.7500   18.5390   81.7840 N.pl3 137  ARG137      0.1354
     47  N         43.3180   22.6850   83.1690 N.am  138  GLY138     -0.1942
     48  CA        42.7110   22.0690   84.3360 C.3   138  GLY138      0.2014
     49  C         41.8160   23.0130   85.1140 C.2   138  GLY138      0.2639
     50  O         40.7590   22.6160   85.6070 O.2   138  GLY138     -0.2714
     51  N         42.2310   24.2700   85.2180 N.am  139  THR139     -0.1950
     52  CA        41.4580   25.2720   85.9410 C.3   139  THR139      0.1897
     53  C         40.1270   25.5110   85.2500 C.2   139  THR139      0.2313
     54  O         39.0490   25.4780   85.8940 O.2   139  THR139     -0.2863
     55  CB        42.2270   26.5990   86.0520 C.3   139  THR139      0.1794
     56  OG1       43.4040   26.3890   86.8370 O.3   139  THR139     -0.2208
     57  CG2       41.3560   27.6690   86.7090 C.3   139  THR139      0.0378
     58  N         37.8940   22.3050   85.7620 N.3   142  ILE142     -0.1231
     59  CA        37.2510   22.1490   87.0570 C.3   142  ILE142      0.1692
     60  C         36.1450   23.1900   87.3040 C.2   142  ILE142      0.2592
     61  O         35.0460   22.8490   87.7830 O.2   142  ILE142     -0.2718
     62  CB        38.2990   22.1670   88.1750 C.3   142  ILE142      0.0266
     63  CG1       39.0890   20.8710   88.1280 C.3   142  ILE142      0.0019
     64  CG2       37.6350   22.3050   89.5210 C.3   142  ILE142      0.0020
     65  CD1       40.3660   20.9180   88.8430 C.3   142  ILE142      0.0001
     66  N         36.4140   24.4370   86.9180 N.am  143  ASP143     -0.1974
     67  CA        35.4270   25.4870   87.1010 C.3   143  ASP143      0.1709
     68  C         34.1690   25.1330   86.2940 C.2   143  ASP143      0.2293
     69  O         33.0270   25.2190   86.7930 O.2   143  ASP143     -0.2864
     70  CB        36.0040   26.8150   86.6130 C.3   143  ASP143      0.1436
     71  CG        36.7770   27.5660   87.6960 C.2   143  ASP143      0.3671
     72  OD1       36.6680   27.2100   88.8900 O.co2 143  ASP143     -0.2456
     73  OD2       37.5260   28.5060   87.3320 O.co2 143  ASP143     -0.2456
     74  N         35.5530   15.3640   82.5510 N.3   312  GLN312     -0.1245
     75  CA        36.9330   15.8370   82.5360 C.3   312  GLN312      0.1566
     76  C         37.2320   16.5480   83.8340 C.2   312  GLN312      0.2260
     77  O         38.3040   16.3300   84.4180 O.2   312  GLN312     -0.2867
     78  CB        37.1860   16.7610   81.3540 C.3   312  GLN312      0.0367
     79  CG        38.6710   17.0270   81.0610 C.3   312  GLN312      0.0905
     80  CD        39.4740   15.7440   80.9140 C.2   312  GLN312      0.2608
     81  OE1       39.1580   14.8860   80.0750 O.2   312  GLN312     -0.2717
     82  NE2       40.5350   15.6200   81.7040 N.am  312  GLN312     -0.0878
     83  N         37.9790   14.0810   86.5080 N.3   315  ILE315     -0.1231
     84  CA        39.2660   13.4470   86.3270 C.3   315  ILE315      0.1692
     85  C         40.3570   14.3890   86.8410 C.2   315  ILE315      0.2592
     86  O         41.1780   13.9900   87.6970 O.2   315  ILE315     -0.2718
     87  CB        39.4970   13.0920   84.8580 C.3   315  ILE315      0.0266
     88  CG1       38.5860   11.9310   84.4870 C.3   315  ILE315      0.0019
     89  CG2       40.9610   12.7140   84.6000 C.3   315  ILE315      0.0020
     90  CD1       38.4710   11.6960   83.0050 C.3   315  ILE315      0.0001
     91  N         40.2940   15.6530   86.4120 N.am  316  ASP316     -0.1974
     92  CA        41.3110   16.6050   86.8020 C.3   316  ASP316      0.1709
     93  C         41.3080   16.7820   88.3140 C.2   316  ASP316      0.2293
     94  O         42.3870   16.8850   88.9370 O.2   316  ASP316     -0.2864
     95  CB        41.1020   17.9330   86.0730 C.3   316  ASP316      0.1436
     96  CG        41.3160   17.8040   84.5730 C.2   316  ASP316      0.3671
     97  OD1       41.7760   16.7300   84.1330 O.co2 316  ASP316     -0.2456
     98  OD2       41.0280   18.7610   83.8380 O.co2 316  ASP316     -0.2456
     99  N         42.9840   14.0890   90.0700 N.3   318  GLU318     -0.1245
    100  CA        44.4190   14.2180   89.9510 C.3   318  GLU318      0.1567
    101  C         44.8960   15.1350   91.0720 C.2   318  GLU318      0.2260
    102  O         45.8770   14.8050   91.7670 O.2   318  GLU318     -0.2867
    103  CB        44.7870   14.7270   88.5690 C.3   318  GLU318      0.0388
    104  CG        46.2500   14.9250   88.3980 C.3   318  GLU318      0.1160
    105  CD        46.9930   13.6120   88.3080 C.2   318  GLU318      0.3649
    106  OE1       46.4190   12.6500   87.7430 O.co2 318  GLU318     -0.2457
    107  OE2       48.1450   13.5510   88.8020 O.co2 318  GLU318     -0.2457
@<TRIPOS>BOND
     1    42    41    1
     2    42    43    1
     3    41    40    1
     4    43    44    2
     5    81    80    2
     6    40    37    1
     7    45    44    1
     8    21    22    1
     9    27    25    1
    10    44    46    1
    11    80    79    1
    12    80    82   am
    13    37    36    1
    14    37    38    1
    15    79    78    1
    16    78    75    1
    17    22    25    1
    18    22    23    1
    19    25    26    1
    20    39    38    2
    21    38    47   am
    22    75    74    1
    23    75    76    1
    24    23    24    2
    25    23    28   am
    26    90    88    1
    27    47    48    1
    28    28    29    1
    29    76    77    2
    30    98    96   ar
    31    97    96   ar
    32    30    29    1
    33    30    31    2
    34    48    49    1
    35    88    87    1
    36    96    95    1
    37    29    32    1
    38    89    87    1
    39    87    84    1
    40    49    51   am
    41    49    50    2
    42    51    52    1
    43    53    54    2
    44    53    52    1
    45    32    33    1
    46    32    34    1
    47    58    59    1
    48    52    55    1
    49    55    57    1
    50    55    56    1
    51    95    92    1
    52    33    35    1
    53    68    69    2
    54    68    67    1
    55    84    83    1
    56    84    85    1
    57    91    92    1
    58    91    85   am
    59    70    67    1
    60    70    71    1
    61    92    93    1
    62    85    86    2
    63    66    67    1
    64    66    60   am
    65    59    60    1
    66    59    62    1
    67    60    61    2
    68    73    71   ar
    69    71    72   ar
    70   106   105   ar
    71    63    62    1
    72    63    65    1
    73    62    64    1
    74   105   104    1
    75   105   107   ar
    76    93    94    2
    77   104   103    1
    78   103   100    1
    79   100    99    1
    80   100   101    1
    81   101   102    2
    82     7     5    1
    83     6     5    1
    84     5     2    1
    85    20    17    1
    86     2     3    1
    87     2     1    1
    88    15    13    1
    89     4     3    2
    90    17    16    1
    91    17    18    1
    92    13    12    1
    93    13    14    1
    94    16    10   am
    95    19    18    2
    96    12     9    1
    97    10    11    2
    98    10     9    1
    99     9     8    1
