@<TRIPOS>MOLECULE
tmp/4mrwA00.pdb
 117 111 0 0 0
SMALL
GASTEIGER

@<TRIPOS>ATOM
      1  N         15.2520  -26.6150  -30.9150 N.3    79  TYR79      -0.1241
      2  CA        14.0160  -27.1700  -30.3000 C.3    79  TYR79       0.1605
      3  C         14.1160  -28.6080  -29.7900 C.2    79  TYR79       0.2264
      4  O         13.8230  -28.8600  -28.6260 O.2    79  TYR79      -0.2867
      5  CB        12.8250  -27.0190  -31.2320 C.3    79  TYR79       0.0534
      6  CG        11.5430  -27.6200  -30.6900 C.ar   79  TYR79      -0.0201
      7  CD1       10.8610  -27.0180  -29.6400 C.ar   79  TYR79      -0.0009
      8  CD2       11.0230  -28.8020  -31.2180 C.ar   79  TYR79      -0.0009
      9  CE1        9.6720  -27.5700  -29.1250 C.ar   79  TYR79       0.0417
     10  CE2        9.8240  -29.3690  -30.7050 C.ar   79  TYR79       0.0417
     11  CZ         9.1680  -28.7460  -29.6610 C.ar   79  TYR79       0.1957
     12  OH         7.9730  -29.2510  -29.1790 O.3    79  TYR79      -0.2866
     13  N          4.8590  -38.4750  -36.0430 N.3   190  LEU190     -0.1245
     14  CA         3.5220  -37.8940  -36.2660 C.3   190  LEU190      0.1561
     15  C          2.8320  -38.4710  -37.4930 C.2   190  LEU190      0.2260
     16  O          1.5990  -38.4370  -37.5950 O.2   190  LEU190     -0.2867
     17  CB         3.5760  -36.3700  -36.3420 C.3   190  LEU190      0.0270
     18  CG         3.6640  -35.5860  -35.0250 C.3   190  LEU190      0.0019
     19  CD1        3.9220  -34.1100  -35.3560 C.3   190  LEU190      0.0001
     20  CD2        2.3830  -35.7340  -34.1830 C.3   190  LEU190      0.0001
     21  N          4.5720  -35.2650  -26.4120 N.3   229  ASP229     -0.1225
     22  CA         5.4870  -34.6580  -27.4070 C.3   229  ASP229      0.1805
     23  C          5.0430  -33.2530  -27.8060 C.2   229  ASP229      0.2597
     24  O          5.8900  -32.3470  -27.9710 O.2   229  ASP229     -0.2718
     25  CB         5.5590  -35.5290  -28.6600 C.3   229  ASP229      0.1424
     26  CG         6.8070  -35.2700  -29.5050 C.2   229  ASP229      0.3668
     27  OD1        6.8340  -35.6900  -30.6780 O.co2 229  ASP229     -0.2456
     28  OD2        7.7710  -34.6780  -29.0060 O.co2 229  ASP229     -0.2456
     29  N          3.7270  -33.0710  -27.9510 N.am  230  LEU230     -0.1979
     30  CA         3.1720  -31.7820  -28.3580 C.3   230  LEU230      0.1596
     31  C          2.7650  -30.8580  -27.1990 C.2   230  LEU230      0.2287
     32  O          2.1230  -29.8390  -27.4390 O.2   230  LEU230     -0.2864
     33  CB         1.9240  -31.9850  -29.2420 C.3   230  LEU230      0.0297
     34  CG         2.0280  -32.8410  -30.4990 C.3   230  LEU230      0.0022
     35  CD1        0.6860  -32.8910  -31.2180 C.3   230  LEU230      0.0001
     36  CD2        3.1230  -32.3310  -31.4380 C.3   230  LEU230      0.0001
     37  N          3.9010  -28.5500  -25.3060 N.3   232  SER232     -0.1202
     38  CA         4.1510  -27.1140  -25.3700 C.3   232  SER232      0.2020
     39  C          2.9340  -26.3120  -25.8400 C.2   232  SER232      0.2618
     40  O          2.8190  -25.1350  -25.5070 O.2   232  SER232     -0.2717
     41  CB         5.3490  -26.7560  -26.2490 C.3   232  SER232      0.2103
     42  OG         4.9560  -26.7650  -27.6160 O.3   232  SER232     -0.2182
     43  N          2.0310  -26.9440  -26.5870 N.am  233  VAL233     -0.1979
     44  CA         0.7520  -26.3200  -26.9620 C.3   233  VAL233      0.1595
     45  C         -0.3090  -26.3550  -25.8450 C.2   233  VAL233      0.2287
     46  O         -1.4550  -25.8930  -26.0420 O.2   233  VAL233     -0.2864
     47  CB         0.1280  -26.9430  -28.2530 C.3   233  VAL233      0.0276
     48  CG1        1.1260  -26.9180  -29.4240 C.3   233  VAL233      0.0022
     49  CG2       -0.3690  -28.3710  -27.9760 C.3   233  VAL233      0.0022
     50  N          7.1010  -21.8860  -29.6580 N.3   244  ALA244     -0.1245
     51  CA         6.8900  -21.7700  -31.1050 C.3   244  ALA244      0.1562
     52  C          8.0780  -21.1230  -31.8400 C.2   244  ALA244      0.2260
     53  O          8.4300  -21.5620  -32.9260 O.2   244  ALA244     -0.2867
     54  CB         5.5760  -21.0560  -31.4330 C.3   244  ALA244      0.0290
     55  N         10.7880  -23.8220  -32.2770 N.3   247  ILE247     -0.1231
     56  CA        10.3380  -24.7650  -33.3160 C.3   247  ILE247      0.1692
     57  C         10.6110  -24.2160  -34.7240 C.2   247  ILE247      0.2592
     58  O         11.1320  -24.9340  -35.5890 O.2   247  ILE247     -0.2718
     59  CB         8.8040  -25.0660  -33.1680 C.3   247  ILE247      0.0266
     60  CG1        8.5040  -25.6730  -31.7840 C.3   247  ILE247      0.0019
     61  CG2        8.3110  -25.9370  -34.3040 C.3   247  ILE247      0.0020
     62  CD1        7.0210  -25.8040  -31.4340 C.3   247  ILE247      0.0001
     63  N         10.2370  -22.9540  -34.9570 N.am  248  TYR248     -0.1976
     64  CA        10.4370  -22.3150  -36.2590 C.3   248  TYR248      0.1639
     65  C         11.8920  -21.9790  -36.5350 C.2   248  TYR248      0.2290
     66  O         12.3020  -22.0620  -37.6780 O.2   248  TYR248     -0.2864
     67  CB         9.5360  -21.0980  -36.4590 C.3   248  TYR248      0.0560
     68  CG         8.1260  -21.5000  -36.8730 C.ar  248  TYR248     -0.0198
     69  CD1        7.1550  -21.7740  -35.9130 C.ar  248  TYR248     -0.0009
     70  CD2        7.7890  -21.6690  -38.2120 C.ar  248  TYR248     -0.0009
     71  CE1        5.8630  -22.1580  -36.2850 C.ar  248  TYR248      0.0417
     72  CE2        6.4860  -22.0560  -38.5970 C.ar  248  TYR248      0.0417
     73  CZ         5.5350  -22.2900  -37.6310 C.ar  248  TYR248      0.1957
     74  OH         4.2490  -22.6860  -38.0030 O.3   248  TYR248     -0.2866
     75  N         12.7950  -25.1810  -38.0740 N.3   251  PHE251     -0.1241
     76  CA        12.1900  -25.3390  -39.4060 C.3   251  PHE251      0.1605
     77  C         12.8470  -24.4810  -40.4730 C.2   251  PHE251      0.2264
     78  O         13.1200  -24.9640  -41.5700 O.2   251  PHE251     -0.2867
     79  CB        10.6920  -24.9920  -39.3870 C.3   251  PHE251      0.0534
     80  CG         9.8230  -26.0180  -38.7090 C.ar  251  PHE251     -0.0203
     81  CD1       10.2000  -27.3480  -38.6540 C.ar  251  PHE251     -0.0042
     82  CD2        8.5810  -25.6390  -38.1720 C.ar  251  PHE251     -0.0042
     83  CE1        9.3730  -28.3040  -38.0260 C.ar  251  PHE251     -0.0003
     84  CE2        7.7430  -26.5740  -37.5620 C.ar  251  PHE251     -0.0003
     85  CZ         8.1450  -27.9130  -37.4800 C.ar  251  PHE251     -0.0000
     86  N          5.9540  -23.5610  -44.2570 N.3   268  MET268     -0.1245
     87  CA         6.2800  -23.6980  -42.8360 C.3   268  MET268      0.1570
     88  C          7.7950  -23.6060  -42.5550 C.2   268  MET268      0.2261
     89  O          8.2090  -23.2120  -41.4700 O.2   268  MET268     -0.2867
     90  CB         5.7740  -25.0310  -42.2980 C.3   268  MET268      0.0387
     91  CG         5.4290  -25.0280  -40.8120 C.3   268  MET268      0.0595
     92  SD         5.0510  -26.6470  -40.1190 S.3   268  MET268     -0.1393
     93  CE         6.4650  -27.5760  -40.6860 C.3   268  MET268      0.0692
     94  N         -0.6480  -21.3270  -40.2010 N.3   280  GLY280     -0.1210
     95  CA        -0.0700  -22.6600  -40.1520 C.3   280  GLY280      0.1956
     96  C         -0.2110  -23.2860  -38.7690 C.2   280  GLY280      0.2611
     97  O         -0.4000  -24.4920  -38.6560 O.2   280  GLY280     -0.2717
     98  N         -0.1280  -22.4710  -37.7180 N.am  281  GLN281     -0.1979
     99  CA        -0.3720  -22.9550  -36.3630 C.3   281  GLN281      0.1601
    100  C         -1.8510  -23.3100  -36.2170 C.2   281  GLN281      0.2287
    101  O         -2.2050  -24.3620  -35.7040 O.2   281  GLN281     -0.2864
    102  CB         0.0210  -21.9070  -35.3270 C.3   281  GLN281      0.0394
    103  CG         1.5300  -21.8450  -35.0940 C.3   281  GLN281      0.0908
    104  CD         2.0740  -23.1790  -34.6750 C.2   281  GLN281      0.2608
    105  OE1        2.6740  -23.9010  -35.4800 O.2   281  GLN281     -0.2717
    106  NE2        1.8470  -23.5410  -33.4370 N.am  281  GLN281     -0.0878
    107  N         -2.1510  -26.6760  -37.8640 N.3   284  PHE284     -0.1241
    108  CA        -1.5810  -27.6880  -36.9860 C.3   284  PHE284      0.1605
    109  C         -2.4970  -28.0120  -35.7880 C.2   284  PHE284      0.2264
    110  O         -2.6920  -29.1700  -35.4810 O.2   284  PHE284     -0.2867
    111  CB        -0.1860  -27.2960  -36.4890 C.3   284  PHE284      0.0534
    112  CG         0.4860  -28.3720  -35.6970 C.ar  284  PHE284     -0.0203
    113  CD1        1.1580  -29.4220  -36.3450 C.ar  284  PHE284     -0.0042
    114  CD2        0.4390  -28.3610  -34.2910 C.ar  284  PHE284     -0.0042
    115  CE1        1.7790  -30.4390  -35.6200 C.ar  284  PHE284     -0.0003
    116  CE2        1.0540  -29.3700  -33.5550 C.ar  284  PHE284     -0.0003
    117  CZ         1.7380  -30.4170  -34.2200 C.ar  284  PHE284     -0.0000
@<TRIPOS>BOND
     1    86    87    1
     2    87    88    1
     3    87    90    1
     4    88    89    2
     5    90    91    1
     6    78    77    2
     7    91    92    1
     8    93    92    1
     9    77    76    1
    10    94    95    1
    11    95    96    1
    12    76    79    1
    13    76    75    1
    14    79    80    1
    15    96    97    2
    16    96    98   am
    17    80    81   ar
    18    80    82   ar
    19    81    83   ar
    20    72    70   ar
    21    72    73   ar
    22    70    68   ar
    23    82    84   ar
    24    83    85   ar
    25    74    73    1
    26   107   108    1
    27    98    99    1
    28    66    65    2
    29    73    71   ar
    30    16    15    2
    31    84    85   ar
    32    15    14    1
    33   108   111    1
    34   108   109    1
    35    68    67    1
    36    68    69   ar
    37    65    64    1
    38   111   112    1
    39    67    64    1
    40    99   100    1
    41    99   102    1
    42   113   112   ar
    43   113   115   ar
    44    17    14    1
    45    17    18    1
    46    71    69   ar
    47    14    13    1
    48    64    63    1
    49   100   101    2
    50   109   110    2
    51   112   114   ar
    52   115   117   ar
    53    58    57    2
    54   105   104    2
    55    19    18    1
    56   102   103    1
    57   103   104    1
    58    18    20    1
    59    63    57   am
    60    57    56    1
    61   104   106   am
    62    61    59    1
    63   114   116   ar
    64   117   116   ar
    65    56    59    1
    66    56    55    1
    67    59    60    1
    68    53    52    2
    69    52    51    1
    70    60    62    1
    71    36    34    1
    72    54    51    1
    73     5     6    1
    74     5     2    1
    75     8    10   ar
    76     8     6   ar
    77    35    34    1
    78    51    50    1
    79     1     2    1
    80    10    11   ar
    81     6     7   ar
    82    27    26   ar
    83    34    33    1
    84     2     3    1
    85     3     4    2
    86    11    12    1
    87    11     9   ar
    88     7     9   ar
    89    26    28   ar
    90    26    25    1
    91    48    47    1
    92    33    30    1
    93    25    22    1
    94    30    29    1
    95    30    31    1
    96    47    49    1
    97    47    44    1
    98    24    23    2
    99    29    23   am
   100    23    22    1
   101    42    41    1
   102    32    31    2
   103    22    21    1
   104    44    43    1
   105    44    45    1
   106    43    39   am
   107    41    38    1
   108    46    45    2
   109    39    40    2
   110    39    38    1
   111    38    37    1
