@<TRIPOS>MOLECULE
tmp/4mrzA00.pdb
 119 114 0 0 0
SMALL
GASTEIGER

@<TRIPOS>ATOM
      1  N         14.8660  -26.4860  -30.7230 N.3    79  TYR79      -0.1227
      2  CA        13.6440  -27.0700  -30.1570 C.3    79  TYR79       0.1736
      3  C         13.7630  -28.5100  -29.6620 C.2    79  TYR79       0.2595
      4  O         13.3890  -28.7730  -28.5240 O.2    79  TYR79      -0.2718
      5  CB        12.4660  -26.9040  -31.1070 C.3    79  TYR79       0.0548
      6  CG        11.2060  -27.5430  -30.5590 C.ar   79  TYR79      -0.0200
      7  CD1       10.5560  -26.9800  -29.4680 C.ar   79  TYR79      -0.0009
      8  CD2       10.7010  -28.7160  -31.1040 C.ar   79  TYR79      -0.0009
      9  CE1        9.4040  -27.5490  -28.9400 C.ar   79  TYR79       0.0417
     10  CE2        9.5270  -29.3050  -30.5720 C.ar   79  TYR79       0.0417
     11  CZ         8.9080  -28.7080  -29.4900 C.ar   79  TYR79       0.1957
     12  OH         7.7460  -29.2690  -28.9830 O.3    79  TYR79      -0.2866
     13  N         14.3070  -29.4200  -30.4820 N.am   80  HIS80      -0.1975
     14  CA        14.3530  -30.8630  -30.1130 C.3    80  HIS80       0.1656
     15  C         15.5790  -31.1440  -29.2530 C.2    80  HIS80       0.2291
     16  O         16.4930  -31.8480  -29.6580 O.2    80  HIS80      -0.2864
     17  CB        14.3140  -31.7570  -31.3450 C.3    80  HIS80       0.0771
     18  CG        13.0050  -31.7090  -32.0740 C.ar   80  HIS80       0.0820
     19  ND1       12.8120  -30.9380  -33.1970 N.ar   80  HIS80      -0.2267
     20  CD2       11.8220  -32.3200  -31.8280 C.ar   80  HIS80       0.1154
     21  CE1       11.5650  -31.0840  -33.6210 C.ar   80  HIS80       0.1986
     22  NE2       10.9410  -31.9060  -32.7990 N.ar   80  HIS80      -0.2212
     23  N          4.7090  -38.3960  -35.7670 N.3   190  LEU190     -0.1245
     24  CA         3.3560  -37.8500  -36.0660 C.3   190  LEU190      0.1561
     25  C          2.6790  -38.4940  -37.2730 C.2   190  LEU190      0.2260
     26  O          1.4260  -38.5240  -37.3430 O.2   190  LEU190     -0.2867
     27  CB         3.3800  -36.3200  -36.1960 C.3   190  LEU190      0.0270
     28  CG         3.4810  -35.5470  -34.8820 C.3   190  LEU190      0.0019
     29  CD1        3.6720  -34.0700  -35.1860 C.3   190  LEU190      0.0001
     30  CD2        2.1850  -35.7890  -34.0200 C.3   190  LEU190      0.0001
     31  N          3.4420  -32.9870  -27.7820 N.3   230  LEU230     -0.1245
     32  CA         2.9040  -31.7190  -28.2480 C.3   230  LEU230      0.1561
     33  C          2.5280  -30.7450  -27.1200 C.2   230  LEU230      0.2260
     34  O          1.9410  -29.6830  -27.4030 O.2   230  LEU230     -0.2867
     35  CB         1.6470  -31.9700  -29.1190 C.3   230  LEU230      0.0270
     36  CG         1.8110  -32.8610  -30.3550 C.3   230  LEU230      0.0019
     37  CD1        0.4850  -32.9020  -31.1050 C.3   230  LEU230      0.0001
     38  CD2        2.9440  -32.3140  -31.2230 C.3   230  LEU230      0.0001
     39  N          3.6090  -28.3980  -25.3600 N.3   232  SER232     -0.1202
     40  CA         3.8120  -26.9460  -25.4320 C.3   232  SER232      0.2020
     41  C          2.5080  -26.2170  -25.7420 C.2   232  SER232      0.2618
     42  O          2.3070  -25.0950  -25.2800 O.2   232  SER232     -0.2717
     43  CB         4.8690  -26.5580  -26.4760 C.3   232  SER232      0.2103
     44  OG         4.3440  -26.5960  -27.7960 O.3   232  SER232     -0.2182
     45  N          1.6470  -26.8560  -26.5250 N.am  233  VAL233     -0.1979
     46  CA         0.3590  -26.2510  -26.8780 C.3   233  VAL233      0.1595
     47  C         -0.6670  -26.2630  -25.7440 C.2   233  VAL233      0.2287
     48  O         -1.7920  -25.7520  -25.9210 O.2   233  VAL233     -0.2864
     49  CB        -0.2540  -26.8560  -28.1710 C.3   233  VAL233      0.0276
     50  CG1        0.7680  -26.8260  -29.3060 C.3   233  VAL233      0.0022
     51  CG2       -0.8010  -28.2590  -27.9190 C.3   233  VAL233      0.0022
     52  N          6.8360  -21.8830  -29.5200 N.3   244  ALA244     -0.1245
     53  CA         6.6040  -21.8570  -30.9580 C.3   244  ALA244      0.1562
     54  C          7.7430  -21.1230  -31.7020 C.2   244  ALA244      0.2260
     55  O          8.1540  -21.5580  -32.7780 O.2   244  ALA244     -0.2867
     56  CB         5.1950  -21.2490  -31.3040 C.3   244  ALA244      0.0290
     57  N         10.4430  -23.8180  -32.0840 N.3   247  ILE247     -0.1231
     58  CA         9.9940  -24.7680  -33.1030 C.3   247  ILE247      0.1692
     59  C         10.3030  -24.2130  -34.5000 C.2   247  ILE247      0.2592
     60  O         10.8970  -24.8920  -35.3410 O.2   247  ILE247     -0.2718
     61  CB         8.4440  -24.9960  -32.9470 C.3   247  ILE247      0.0266
     62  CG1        8.1600  -25.7760  -31.6420 C.3   247  ILE247      0.0019
     63  CG2        7.8310  -25.6390  -34.1710 C.3   247  ILE247      0.0020
     64  CD1        6.6410  -25.9210  -31.3000 C.3   247  ILE247      0.0001
     65  N          9.9280  -22.9600  -34.7370 N.am  248  TYR248     -0.1976
     66  CA        10.0930  -22.3610  -36.0430 C.3   248  TYR248      0.1639
     67  C         11.5440  -22.0440  -36.3360 C.2   248  TYR248      0.2290
     68  O         11.9280  -22.1150  -37.4800 O.2   248  TYR248     -0.2864
     69  CB         9.2240  -21.1240  -36.2100 C.3   248  TYR248      0.0560
     70  CG         7.8540  -21.4970  -36.6760 C.ar  248  TYR248     -0.0198
     71  CD1        6.8350  -21.7430  -35.7510 C.ar  248  TYR248     -0.0009
     72  CD2        7.5790  -21.6310  -38.0360 C.ar  248  TYR248     -0.0009
     73  CE1        5.5520  -22.0970  -36.1910 C.ar  248  TYR248      0.0417
     74  CE2        6.2950  -21.9870  -38.4820 C.ar  248  TYR248      0.0417
     75  CZ         5.3020  -22.2090  -37.5550 C.ar  248  TYR248      0.1957
     76  OH         4.0480  -22.5490  -37.9960 O.3   248  TYR248     -0.2866
     77  N         12.6740  -25.1400  -37.8300 N.3   251  PHE251     -0.1241
     78  CA        12.1030  -25.3020  -39.1430 C.3   251  PHE251      0.1605
     79  C         12.7730  -24.4010  -40.1900 C.2   251  PHE251      0.2264
     80  O         13.0480  -24.8580  -41.2880 O.2   251  PHE251     -0.2867
     81  CB        10.6170  -24.9370  -39.1340 C.3   251  PHE251      0.0534
     82  CG         9.7010  -25.9700  -38.4930 C.ar  251  PHE251     -0.0203
     83  CD1       10.0480  -27.3110  -38.4100 C.ar  251  PHE251     -0.0042
     84  CD2        8.4630  -25.5590  -38.0050 C.ar  251  PHE251     -0.0042
     85  CE1        9.1760  -28.2450  -37.8200 C.ar  251  PHE251     -0.0003
     86  CE2        7.5750  -26.4630  -37.4320 C.ar  251  PHE251     -0.0003
     87  CZ         7.9370  -27.8190  -37.3330 C.ar  251  PHE251     -0.0000
     88  N          5.8830  -23.5260  -44.0760 N.3   268  MET268     -0.1245
     89  CA         6.1330  -23.6480  -42.6570 C.3   268  MET268      0.1570
     90  C          7.6300  -23.5500  -42.3390 C.2   268  MET268      0.2261
     91  O          7.9960  -23.0760  -41.2830 O.2   268  MET268     -0.2867
     92  CB         5.5650  -24.9620  -42.1260 C.3   268  MET268      0.0387
     93  CG         5.5290  -25.0130  -40.6240 C.3   268  MET268      0.0595
     94  SD         4.9590  -26.5720  -39.9540 S.3   268  MET268     -0.1393
     95  CE         6.4120  -27.5650  -40.3050 C.3   268  MET268      0.0692
     96  N         -0.7780  -21.2850  -40.1160 N.3   280  GLY280     -0.1210
     97  CA        -0.1440  -22.5990  -40.0130 C.3   280  GLY280      0.1956
     98  C         -0.3790  -23.2290  -38.6480 C.2   280  GLY280      0.2611
     99  O         -0.5810  -24.4500  -38.5390 O.2   280  GLY280     -0.2717
    100  N         -0.3310  -22.4080  -37.6020 N.am  281  GLN281     -0.1979
    101  CA        -0.6280  -22.8910  -36.2540 C.3   281  GLN281      0.1601
    102  C         -2.1030  -23.2590  -36.1450 C.2   281  GLN281      0.2287
    103  O         -2.4410  -24.3000  -35.6000 O.2   281  GLN281     -0.2864
    104  CB        -0.2390  -21.8700  -35.2070 C.3   281  GLN281      0.0394
    105  CG         1.2870  -21.8060  -35.0430 C.3   281  GLN281      0.0908
    106  CD         1.8760  -23.1330  -34.6280 C.2   281  GLN281      0.2608
    107  OE1        1.7260  -23.5610  -33.4950 O.2   281  GLN281     -0.2717
    108  NE2        2.5800  -23.7890  -35.5520 N.am  281  GLN281     -0.0878
    109  N         -2.3460  -26.6480  -37.6810 N.3   284  PHE284     -0.1241
    110  CA        -1.7850  -27.6560  -36.8040 C.3   284  PHE284      0.1605
    111  C         -2.7080  -27.9850  -35.6180 C.2   284  PHE284      0.2264
    112  O         -2.8920  -29.1510  -35.2800 O.2   284  PHE284     -0.2867
    113  CB        -0.3670  -27.2680  -36.3230 C.3   284  PHE284      0.0534
    114  CG         0.2880  -28.3490  -35.5430 C.ar  284  PHE284     -0.0203
    115  CD1        0.9000  -29.4260  -36.1930 C.ar  284  PHE284     -0.0042
    116  CD2        0.2500  -28.3230  -34.1430 C.ar  284  PHE284     -0.0042
    117  CE1        1.4680  -30.4600  -35.4690 C.ar  284  PHE284     -0.0003
    118  CE2        0.8310  -29.3640  -33.3970 C.ar  284  PHE284     -0.0003
    119  CZ         1.4300  -30.4370  -34.0630 C.ar  284  PHE284     -0.0000
@<TRIPOS>BOND
     1    88    89    1
     2    89    90    1
     3    89    92    1
     4    90    91    2
     5    92    93    1
     6    80    79    2
     7    93    94    1
     8    95    94    1
     9    79    78    1
    10    96    97    1
    11    97    98    1
    12    78    81    1
    13    78    77    1
    14    81    82    1
    15    98    99    2
    16    98   100   am
    17    82    83   ar
    18    82    84   ar
    19    74    72   ar
    20    74    75   ar
    21    83    85   ar
    22    72    70   ar
    23    84    86   ar
    24    76    75    1
    25    85    87   ar
    26   109   110    1
    27   100   101    1
    28    75    73   ar
    29    68    67    2
    30    86    87   ar
    31    26    25    2
    32    25    24    1
    33   110   113    1
    34   110   111    1
    35    70    69    1
    36    70    71   ar
    37    67    66    1
    38   113   114    1
    39   101   102    1
    40   101   104    1
    41    69    66    1
    42    27    24    1
    43    27    28    1
    44   115   114   ar
    45   115   117   ar
    46    73    71   ar
    47   102   103    2
    48    24    23    1
    49    66    65    1
    50   111   112    2
    51   108   106   am
    52   114   116   ar
    53   117   119   ar
    54    60    59    2
    55   104   105    1
    56    29    28    1
    57   105   106    1
    58    28    30    1
    59    65    59   am
    60   106   107    2
    61    59    58    1
    62    63    61    1
    63   116   118   ar
    64   119   118   ar
    65    21    19   ar
    66    21    22   ar
    67    19    18   ar
    68    58    61    1
    69    58    57    1
    70    61    62    1
    71    22    20   ar
    72    55    54    2
    73    18    20   ar
    74    18    17    1
    75    54    53    1
    76    62    64    1
    77    17    14    1
    78    56    53    1
    79    38    36    1
    80     5     6    1
    81     5     2    1
    82    37    36    1
    83     8    10   ar
    84     8     6   ar
    85    53    52    1
    86     1     2    1
    87    10    11   ar
    88     6     7   ar
    89    13    14    1
    90    13     3   am
    91    36    35    1
    92     2     3    1
    93    14    15    1
    94     3     4    2
    95    16    15    2
    96    11    12    1
    97    11     9   ar
    98     7     9   ar
    99    50    49    1
   100    35    32    1
   101    32    31    1
   102    32    33    1
   103    49    51    1
   104    49    46    1
   105    44    43    1
   106    34    33    2
   107    46    45    1
   108    46    47    1
   109    45    41   am
   110    43    40    1
   111    48    47    2
   112    41    40    1
   113    41    42    2
   114    40    39    1
