@<TRIPOS>MOLECULE
tmp/4ms0A00.pdb
 123 118 0 0 0
SMALL
GASTEIGER

@<TRIPOS>ATOM
      1  N        -15.2250  -26.5500   30.8360 N.3    79  TYR79      -0.1227
      2  CA       -13.9580  -27.1530   30.3040 C.3    79  TYR79       0.1736
      3  C        -14.0450  -28.6010   29.8460 C.2    79  TYR79       0.2595
      4  O        -13.6750  -28.8830   28.7080 O.2    79  TYR79      -0.2718
      5  CB       -12.7920  -26.9710   31.2600 C.3    79  TYR79       0.0548
      6  CG       -11.4770  -27.5870   30.7510 C.ar   79  TYR79      -0.0200
      7  CD1      -10.7970  -27.0240   29.6740 C.ar   79  TYR79      -0.0009
      8  CD2      -10.9570  -28.7640   31.3230 C.ar   79  TYR79      -0.0009
      9  CE1       -9.5860  -27.5900   29.1830 C.ar   79  TYR79       0.0417
     10  CE2       -9.7340  -29.3580   30.8360 C.ar   79  TYR79       0.0417
     11  CZ        -9.0710  -28.7510   29.7620 C.ar   79  TYR79       0.1957
     12  OH        -7.8480  -29.2550   29.2890 O.3    79  TYR79      -0.2866
     13  N        -14.4760  -29.5190   30.7060 N.am   80  HIS80      -0.1975
     14  CA       -14.5540  -30.9420   30.3260 C.3    80  HIS80       0.1656
     15  C        -15.7770  -31.1990   29.4450 C.2    80  HIS80       0.2291
     16  O        -16.7620  -31.8390   29.8590 O.2    80  HIS80      -0.2864
     17  CB       -14.4660  -31.8670   31.5460 C.3    80  HIS80       0.0771
     18  CG       -13.1390  -31.8030   32.2730 C.ar   80  HIS80       0.0820
     19  ND1      -12.9760  -31.1340   33.4670 N.ar   80  HIS80      -0.2267
     20  CD2      -11.9130  -32.3090   31.9640 C.ar   80  HIS80       0.1154
     21  CE1      -11.7090  -31.2260   33.8610 C.ar   80  HIS80       0.1986
     22  NE2      -11.0480  -31.9320   32.9680 N.ar   80  HIS80      -0.2212
     23  N         -4.7290  -38.4210   36.1290 N.3   190  LEU190     -0.1245
     24  CA        -3.3860  -37.8880   36.4150 C.3   190  LEU190      0.1561
     25  C         -2.7500  -38.5060   37.6390 C.2   190  LEU190      0.2260
     26  O         -1.5010  -38.5390   37.7570 O.2   190  LEU190     -0.2867
     27  CB        -3.4300  -36.3640   36.5790 C.3   190  LEU190      0.0270
     28  CG        -3.5520  -35.5780   35.2820 C.3   190  LEU190      0.0019
     29  CD1       -3.8220  -34.0940   35.5960 C.3   190  LEU190      0.0001
     30  CD2       -2.2800  -35.7430   34.4740 C.3   190  LEU190      0.0001
     31  N         -4.5870  -35.2910   26.5140 N.3   229  ASP229     -0.1225
     32  CA        -5.4980  -34.6730   27.5320 C.3   229  ASP229      0.1805
     33  C         -4.9980  -33.2870   27.9450 C.2   229  ASP229      0.2597
     34  O         -5.7690  -32.3770   28.1240 O.2   229  ASP229     -0.2718
     35  CB        -5.5750  -35.5680   28.7680 C.3   229  ASP229      0.1424
     36  CG        -6.7720  -35.2860   29.6270 C.2   229  ASP229      0.3668
     37  OD1       -6.8030  -35.6970   30.7950 O.co2 229  ASP229     -0.2456
     38  OD2       -7.6530  -34.6340   29.0830 O.co2 229  ASP229     -0.2456
     39  N         -3.6700  -33.1110   28.0760 N.am  230  LEU230     -0.1979
     40  CA        -3.1250  -31.8320   28.5090 C.3   230  LEU230      0.1596
     41  C         -2.7040  -30.8700   27.3600 C.2   230  LEU230      0.2287
     42  O         -2.1470  -29.7980   27.6390 O.2   230  LEU230     -0.2864
     43  CB        -1.8910  -32.0590   29.4280 C.3   230  LEU230      0.0297
     44  CG        -1.9480  -32.9500   30.6810 C.3   230  LEU230      0.0022
     45  CD1       -0.5480  -33.0280   31.3890 C.3   230  LEU230      0.0001
     46  CD2       -3.0430  -32.5080   31.6710 C.3   230  LEU230      0.0001
     47  N         -3.8290  -28.4790   25.5240 N.3   232  SER232     -0.1202
     48  CA        -3.9970  -27.0190   25.6490 C.3   232  SER232      0.2020
     49  C         -2.7310  -26.2480   25.9390 C.2   232  SER232      0.2618
     50  O         -2.6430  -25.0760   25.5520 O.2   232  SER232     -0.2717
     51  CB        -4.9720  -26.6370   26.7470 C.3   232  SER232      0.2103
     52  OG        -4.3140  -26.6590   28.0060 O.3   232  SER232     -0.2182
     53  N         -1.8070  -26.8890   26.6570 N.am  233  VAL233     -0.1979
     54  CA        -0.4780  -26.3250   26.9830 C.3   233  VAL233      0.1595
     55  C          0.5570  -26.3730   25.8680 C.2   233  VAL233      0.2287
     56  O          1.7050  -25.9200   26.0720 O.2   233  VAL233     -0.2864
     57  CB         0.1750  -27.0400   28.1880 C.3   233  VAL233      0.0276
     58  CG1       -0.6990  -26.9220   29.4550 C.3   233  VAL233      0.0022
     59  CG2        0.4570  -28.5200   27.8570 C.3   233  VAL233      0.0022
     60  N         -7.0650  -21.9620   29.6260 N.3   244  ALA244     -0.1245
     61  CA        -6.8630  -21.8740   31.0720 C.3   244  ALA244      0.1562
     62  C         -7.9930  -21.1430   31.8310 C.2   244  ALA244      0.2260
     63  O         -8.3200  -21.5350   32.9460 O.2   244  ALA244     -0.2867
     64  CB        -5.4970  -21.2570   31.4070 C.3   244  ALA244      0.0290
     65  N        -10.5190  -23.8350   32.2690 N.3   247  ILE247     -0.1231
     66  CA       -10.0480  -24.7680   33.3220 C.3   247  ILE247      0.1692
     67  C        -10.3580  -24.2090   34.7220 C.2   247  ILE247      0.2592
     68  O        -10.9370  -24.9110   35.5830 O.2   247  ILE247     -0.2718
     69  CB        -8.5120  -25.0550   33.1700 C.3   247  ILE247      0.0266
     70  CG1       -8.2500  -25.7070   31.7880 C.3   247  ILE247      0.0019
     71  CG2       -8.0120  -25.8970   34.3300 C.3   247  ILE247      0.0020
     72  CD1       -6.8180  -26.0100   31.4360 C.3   247  ILE247      0.0001
     73  N         -9.9820  -22.9500   34.9440 N.am  248  TYR248     -0.1976
     74  CA       -10.1650  -22.3410   36.2450 C.3   248  TYR248      0.1639
     75  C        -11.6320  -22.0240   36.5210 C.2   248  TYR248      0.2290
     76  O        -12.0520  -22.1810   37.6380 O.2   248  TYR248     -0.2864
     77  CB        -9.2780  -21.1280   36.4590 C.3   248  TYR248      0.0560
     78  CG        -7.8720  -21.5610   36.8450 C.ar  248  TYR248     -0.0198
     79  CD1       -6.9280  -21.8400   35.8730 C.ar  248  TYR248     -0.0009
     80  CD2       -7.5400  -21.7850   38.1750 C.ar  248  TYR248     -0.0009
     81  CE1       -5.6180  -22.2630   36.2350 C.ar  248  TYR248      0.0417
     82  CE2       -6.2490  -22.2110   38.5510 C.ar  248  TYR248      0.0417
     83  CZ        -5.3010  -22.4430   37.5750 C.ar  248  TYR248      0.1957
     84  OH        -4.0390  -22.8980   37.9630 O.3   248  TYR248     -0.2866
     85  N        -12.8720  -25.1930   37.9400 N.3   251  PHE251     -0.1241
     86  CA       -12.3430  -25.3890   39.2920 C.3   251  PHE251      0.1605
     87  C        -13.0270  -24.5130   40.3430 C.2   251  PHE251      0.2264
     88  O        -13.3790  -24.9930   41.4280 O.2   251  PHE251     -0.2867
     89  CB       -10.8300  -25.1120   39.3410 C.3   251  PHE251      0.0534
     90  CG        -9.9750  -26.2040   38.7260 C.ar  251  PHE251     -0.0203
     91  CD1      -10.3240  -27.5390   38.8420 C.ar  251  PHE251     -0.0042
     92  CD2       -8.7960  -25.8810   38.0820 C.ar  251  PHE251     -0.0042
     93  CE1       -9.5290  -28.5420   38.2960 C.ar  251  PHE251     -0.0003
     94  CE2       -7.9780  -26.8770   37.5430 C.ar  251  PHE251     -0.0003
     95  CZ        -8.3510  -28.2030   37.6250 C.ar  251  PHE251     -0.0000
     96  N         -6.0930  -23.5020   44.2560 N.3   268  MET268     -0.1245
     97  CA        -6.3760  -23.6520   42.8370 C.3   268  MET268      0.1570
     98  C         -7.8930  -23.5840   42.5380 C.2   268  MET268      0.2261
     99  O         -8.3060  -23.1200   41.4770 O.2   268  MET268     -0.2867
    100  CB        -5.8140  -24.9820   42.3380 C.3   268  MET268      0.0387
    101  CG        -5.9120  -25.1750   40.8260 C.3   268  MET268      0.0595
    102  SD        -5.4510  -26.8180   40.2530 S.3   268  MET268     -0.1393
    103  CE        -3.6580  -26.5920   40.2900 C.3   268  MET268      0.0692
    104  N          0.1780  -22.4780   37.6980 N.3   281  GLN281     -0.1245
    105  CA         0.3660  -23.0520   36.3790 C.3   281  GLN281      0.1566
    106  C          1.8530  -23.3590   36.2360 C.2   281  GLN281      0.2260
    107  O          2.2080  -24.3990   35.7080 O.2   281  GLN281     -0.2867
    108  CB        -0.1360  -22.1600   35.2480 C.3   281  GLN281      0.0367
    109  CG        -1.6660  -22.2000   35.0890 C.3   281  GLN281      0.0905
    110  CD        -2.1720  -23.5360   34.5820 C.2   281  GLN281      0.2608
    111  OE1       -1.9730  -23.8770   33.4240 O.2   281  GLN281     -0.2717
    112  NE2       -2.8400  -24.3030   35.4560 N.am  281  GLN281     -0.0878
    113  N          2.1590  -26.6810   37.9780 N.3   284  PHE284     -0.1241
    114  CA         1.6030  -27.7060   37.1090 C.3   284  PHE284      0.1605
    115  C          2.5120  -28.0320   35.9040 C.2   284  PHE284      0.2264
    116  O          2.6730  -29.1800   35.5690 O.2   284  PHE284     -0.2867
    117  CB         0.2180  -27.3100   36.6030 C.3   284  PHE284      0.0534
    118  CG        -0.4670  -28.3990   35.8300 C.ar  284  PHE284     -0.0203
    119  CD1       -1.2610  -29.3610   36.4950 C.ar  284  PHE284     -0.0042
    120  CD2       -0.3290  -28.4770   34.4460 C.ar  284  PHE284     -0.0042
    121  CE1       -1.9170  -30.3760   35.7920 C.ar  284  PHE284     -0.0003
    122  CE2       -0.9750  -29.4940   33.7290 C.ar  284  PHE284     -0.0003
    123  CZ        -1.7820  -30.4480   34.4200 C.ar  284  PHE284     -0.0000
@<TRIPOS>BOND
     1    47    48    1
     2    50    49    2
     3    48    49    1
     4    48    51    1
     5    55    56    2
     6    55    54    1
     7    49    53   am
     8    31    32    1
     9    53    54    1
    10    51    52    1
    11    54    57    1
    12    41    42    2
    13    41    40    1
    14    32    33    1
    15    32    35    1
    16    59    57    1
    17    33    39   am
    18    33    34    2
    19    39    40    1
    20    57    58    1
    21    40    43    1
    22     4     3    2
    23    35    36    1
    24    38    36   ar
    25     9     7   ar
    26     9    11   ar
    27    12    11    1
    28    43    44    1
    29    15    16    2
    30    15    14    1
    31    60    61    1
    32    36    37   ar
    33     7     6   ar
    34    11    10   ar
    35     3     2    1
    36     3    13   am
    37     2     1    1
    38     2     5    1
    39    14    13    1
    40    14    17    1
    41    44    45    1
    42    44    46    1
    43     6     5    1
    44     6     8   ar
    45    10     8   ar
    46    61    64    1
    47    61    62    1
    48    72    70    1
    49    17    18    1
    50    70    69    1
    51    62    63    2
    52    20    18   ar
    53    20    22   ar
    54    65    66    1
    55    18    19   ar
    56    22    21   ar
    57    69    66    1
    58    69    71    1
    59    66    67    1
    60   111   110    2
    61    19    21   ar
    62   122   123   ar
    63   122   120   ar
    64   123   121   ar
    65   120   118   ar
    66    30    28    1
    67   110   109    1
    68   110   112   am
    69    67    73   am
    70    67    68    2
    71    73    74    1
    72   109   108    1
    73   108   105    1
    74    28    29    1
    75    28    27    1
    76   116   115    2
    77   107   106    2
    78   121   119   ar
    79   118   119   ar
    80   118   117    1
    81    79    81   ar
    82    79    78   ar
    83   115   114    1
    84    23    24    1
    85    81    83   ar
    86   106   105    1
    87    74    77    1
    88    74    75    1
    89   105   104    1
    90    24    27    1
    91    24    25    1
    92    77    78    1
    93    75    76    2
    94   117   114    1
    95    78    80   ar
    96   114   113    1
    97    94    95   ar
    98    94    92   ar
    99    83    84    1
   100    83    82   ar
   101    95    93   ar
   102    25    26    2
   103    85    86    1
   104    92    90   ar
   105    80    82   ar
   106    93    91   ar
   107    90    91   ar
   108    90    89    1
   109    86    89    1
   110    86    87    1
   111   102   103    1
   112   102   101    1
   113    87    88    2
   114   101   100    1
   115    99    98    2
   116   100    97    1
   117    98    97    1
   118    97    96    1
