@<TRIPOS>MOLECULE
tmp/4ms1A00.pdb
 112 108 0 0 0
SMALL
GASTEIGER

@<TRIPOS>ATOM
      1  N        -47.8420   14.9020  -20.0600 N.3    17  GLY17      -0.1210
      2  CA       -48.5190   16.2050  -20.1010 C.3    17  GLY17       0.1956
      3  C        -49.4010   16.4320  -21.3230 C.2    17  GLY17       0.2611
      4  O        -50.4650   17.0500  -21.2220 O.2    17  GLY17      -0.2717
      5  N        -48.9480   15.9730  -22.4970 N.am   18  TRP18      -0.1976
      6  CA       -49.7170   16.0410  -23.7420 C.3    18  TRP18       0.1640
      7  C        -49.6720   14.6460  -24.3700 C.2    18  TRP18       0.2290
      8  O        -48.7050   14.3130  -25.0500 O.2    18  TRP18      -0.2864
      9  CB       -49.2310   17.1400  -24.7050 C.3    18  TRP18       0.0576
     10  CG       -50.0140   17.1800  -25.9870 C.ar   18  TRP18       0.0006
     11  CD1      -51.3320   17.5150  -26.1300 C.ar   18  TRP18       0.0946
     12  CD2      -49.5560   16.7760  -27.2960 C.ar   18  TRP18       0.0152
     13  NE1      -51.7130   17.3820  -27.4460 N.ar   18  TRP18      -0.2442
     14  CE2      -50.6300   16.9670  -28.1900 C.ar   18  TRP18       0.0810
     15  CE3      -48.3230   16.3230  -27.8060 C.ar   18  TRP18       0.0012
     16  CZ2      -50.5090   16.7260  -29.5710 C.ar   18  TRP18       0.0191
     17  CZ3      -48.2140   16.0370  -29.1590 C.ar   18  TRP18       0.0001
     18  CH2      -49.2950   16.2440  -30.0300 C.ar   18  TRP18       0.0015
     19  N        -44.0820   11.8080  -23.4060 N.3    56  CYS56      -0.1235
     20  CA       -43.9750   13.2720  -23.3730 C.3    56  CYS56       0.1677
     21  C        -42.8390   13.6790  -22.3990 C.2    56  CYS56       0.2270
     22  O        -42.9110   14.7130  -21.7210 O.2    56  CYS56      -0.2867
     23  CB       -45.3300   13.8800  -22.9980 C.3    56  CYS56       0.0956
     24  SG       -45.5420   15.6210  -23.4410 S.3    56  CYS56      -0.0801
     25  N        -44.2130   16.2700  -28.5110 N.3    82  CYS82      -0.1221
     26  CA       -44.1120   17.2710  -27.4120 C.3    82  CYS82       0.1808
     27  C        -42.9580   18.2440  -27.6580 C.2    82  CYS82       0.2602
     28  O        -41.9650   17.8690  -28.2690 O.2    82  CYS82      -0.2717
     29  CB       -43.9890   16.5870  -26.0380 C.3    82  CYS82       0.0970
     30  SG       -45.5360   15.7800  -25.4980 S.3    82  CYS82      -0.0800
     31  N        -43.0900   19.4750  -27.1520 N.am   83  SER83      -0.1938
     32  CA       -42.0790   20.5400  -27.2470 C.3    83  SER83       0.2055
     33  C        -40.7930   20.1500  -26.5180 C.2    83  SER83       0.2643
     34  O        -39.7160   20.4140  -27.0270 O.2    83  SER83      -0.2714
     35  CB       -42.5990   21.8380  -26.6440 C.3    83  SER83       0.2130
     36  OG       -43.3820   22.5520  -27.5740 O.3    83  SER83      -0.2179
     37  N        -40.9120   19.5060  -25.3560 N.am   84  SER84      -0.1949
     38  CA       -39.7610   19.0940  -24.5650 C.3    84  SER84       0.1924
     39  C        -38.9440   18.0150  -25.2950 C.2    84  SER84       0.2314
     40  O        -37.7090   18.0590  -25.2980 O.2    84  SER84      -0.2863
     41  CB       -40.1960   18.6320  -23.1700 C.3    84  SER84       0.2116
     42  OG       -40.8120   17.3530  -23.1940 O.3    84  SER84      -0.2180
     43  N        -46.6410   18.2660  -33.0770 N.3   104  GLY104     -0.1225
     44  CA       -47.3300   18.8070  -31.9020 C.3   104  GLY104      0.1811
     45  C        -46.6580   19.8910  -31.0610 C.2   104  GLY104      0.2280
     46  O        -47.1990   20.2530  -30.0260 O.2   104  GLY104     -0.2866
     47  N        -45.5680   23.4500  -29.7050 N.3   106  SER106     -0.1217
     48  CA       -46.0960   24.8270  -29.6420 C.3   106  SER106      0.1889
     49  C        -45.0980   25.8550  -29.1050 C.2   106  SER106      0.2288
     50  O        -45.3170   27.0560  -29.2860 O.2   106  SER106     -0.2866
     51  CB       -47.3400   24.8560  -28.7580 C.3   106  SER106      0.2089
     52  OG       -46.9930   24.6360  -27.3970 O.3   106  SER106     -0.2183
     53  N        -47.3700   22.0800  -36.4700 N.3   123  HIS123     -0.1241
     54  CA       -48.0330   22.7040  -35.3390 C.3   123  HIS123      0.1621
     55  C        -47.4520   24.1350  -35.2590 C.2   123  HIS123      0.2264
     56  O        -46.2420   24.2760  -35.1550 O.2   123  HIS123     -0.2867
     57  CB       -47.7480   21.9700  -34.0190 C.3   123  HIS123      0.0745
     58  CG       -48.6130   22.4320  -32.8640 C.ar  123  HIS123      0.0817
     59  ND1      -48.6220   23.7520  -32.4380 N.ar  123  HIS123     -0.2268
     60  CD2      -49.4500   21.7200  -32.0670 C.ar  123  HIS123      0.1154
     61  CE1      -49.4820   23.8040  -31.4340 C.ar  123  HIS123      0.1986
     62  NE2      -49.9870   22.6030  -31.1610 N.ar  123  HIS123     -0.2212
     63  N        -43.3130   28.8730  -21.8340 N.3   154  VAL154     -0.1245
     64  CA       -44.1870   29.1300  -22.9730 C.3   154  VAL154      0.1561
     65  C        -44.8700   30.5090  -22.9100 C.2   154  VAL154      0.2260
     66  O        -44.8950   31.2060  -23.9190 O.2   154  VAL154     -0.2867
     67  CB       -45.1730   27.9560  -23.2560 C.3   154  VAL154      0.0252
     68  CG1      -46.1070   27.6740  -22.0670 C.3   154  VAL154      0.0019
     69  CG2      -45.9680   28.1900  -24.5360 C.3   154  VAL154      0.0019
     70  N        -52.9300   28.5070  -17.7470 N.3   203  TYR203     -0.1241
     71  CA       -53.6460   27.2480  -17.9250 C.3   203  TYR203      0.1605
     72  C        -55.0240   27.3370  -17.2220 C.2   203  TYR203      0.2264
     73  O        -55.2910   28.3070  -16.5060 O.2   203  TYR203     -0.2867
     74  CB       -52.8170   26.0540  -17.4030 C.3   203  TYR203      0.0534
     75  CG       -51.6200   25.7560  -18.2860 C.ar  203  TYR203     -0.0201
     76  CD1      -51.7870   25.3040  -19.5940 C.ar  203  TYR203     -0.0009
     77  CD2      -50.3200   25.9290  -17.8150 C.ar  203  TYR203     -0.0009
     78  CE1      -50.6930   25.0690  -20.4210 C.ar  203  TYR203      0.0417
     79  CE2      -49.2180   25.6670  -18.6250 C.ar  203  TYR203      0.0417
     80  CZ       -49.4080   25.2500  -19.9320 C.ar  203  TYR203      0.1957
     81  OH       -48.3260   25.0300  -20.7440 O.3   203  TYR203     -0.2866
     82  N        -58.2410   27.7080  -25.5340 N.3   231  TRP231     -0.1241
     83  CA       -57.9200   26.2810  -25.4050 C.3   231  TRP231      0.1605
     84  C        -58.6090   25.6260  -24.1940 C.2   231  TRP231      0.2264
     85  O        -58.3990   24.4450  -23.9470 O.2   231  TRP231     -0.2867
     86  CB       -56.3720   26.0850  -25.3440 C.3   231  TRP231      0.0550
     87  CG       -55.6480   26.7660  -24.2050 C.ar  231  TRP231      0.0003
     88  CD1      -56.1980   27.4480  -23.1540 C.ar  231  TRP231      0.0946
     89  CD2      -54.2300   26.7890  -23.9970 C.ar  231  TRP231      0.0152
     90  NE1      -55.2140   27.8940  -22.3080 N.ar  231  TRP231     -0.2442
     91  CE2      -53.9940   27.4890  -22.7920 C.ar  231  TRP231      0.0810
     92  CE3      -53.1330   26.2740  -24.7100 C.ar  231  TRP231      0.0012
     93  CZ2      -52.7020   27.6970  -22.2880 C.ar  231  TRP231      0.0191
     94  CZ3      -51.8560   26.4900  -24.2160 C.ar  231  TRP231      0.0001
     95  CH2      -51.6480   27.2080  -23.0310 C.ar  231  TRP231      0.0015
     96  N        -56.7360   24.2550  -36.4180 N.3   265  MET265     -0.1245
     97  CA       -56.1010   22.9600  -36.6520 C.3   265  MET265      0.1570
     98  C        -56.8670   22.0530  -37.6420 C.2   265  MET265      0.2261
     99  O        -56.3550   21.0040  -38.0290 O.2   265  MET265     -0.2867
    100  CB       -55.8410   22.2400  -35.3310 C.3   265  MET265      0.0387
    101  CG       -54.7490   22.9050  -34.5070 C.3   265  MET265      0.0595
    102  SD       -54.5660   22.0240  -32.9810 S.3   265  MET265     -0.1393
    103  CE       -53.5450   23.1530  -32.0640 C.3   265  MET265      0.0692
    104  N        -55.1110   17.9050  -32.6240 N.3   302  GLU302     -0.1245
    105  CA       -53.8270   18.0850  -33.2990 C.3   302  GLU302      0.1567
    106  C        -53.6250   17.0510  -34.3970 C.2   302  GLU302      0.2260
    107  O        -52.7460   17.2450  -35.2430 O.2   302  GLU302     -0.2867
    108  CB       -52.6500   18.0310  -32.3010 C.3   302  GLU302      0.0388
    109  CG       -52.5530   19.2490  -31.4040 C.3   302  GLU302      0.1160
    110  CD       -53.3810   19.2120  -30.1380 C.2   302  GLU302      0.3649
    111  OE1      -53.9010   18.1290  -29.7750 O.co2 302  GLU302     -0.2457
    112  OE2      -53.4910   20.2770  -29.4930 O.co2 302  GLU302     -0.2457
@<TRIPOS>BOND
     1    99    98    2
     2    98    97    1
     3    97    96    1
     4    97   100    1
     5    53    54    1
     6    54    55    1
     7    54    57    1
     8   100   101    1
     9    55    56    2
    10   107   106    2
    11   101   102    1
    12   106   105    1
    13    57    58    1
    14   105   104    1
    15   105   108    1
    16    43    44    1
    17   102   103    1
    18    58    59   ar
    19    58    60   ar
    20    59    61   ar
    21   108   109    1
    22    60    62   ar
    23    44    45    1
    24    61    62   ar
    25   109   110    1
    26    45    46    2
    27   110   111   ar
    28   110   112   ar
    29    18    16   ar
    30    18    17   ar
    31    47    48    1
    32    48    49    1
    33    48    51    1
    34    16    14   ar
    35    50    49    2
    36    17    15   ar
    37    51    52    1
    38    25    26    1
    39    28    27    2
    40    14    13   ar
    41    14    12   ar
    42    15    12   ar
    43    27    26    1
    44    27    31   am
    45    36    35    1
    46    13    11   ar
    47    26    29    1
    48    12    10   ar
    49    32    31    1
    50    32    35    1
    51    32    33    1
    52    34    33    2
    53    33    37   am
    54    11    10   ar
    55    29    30    1
    56    10     9    1
    57    82    83    1
    58    30    24    1
    59    83    86    1
    60    83    84    1
    61    37    38    1
    62    86    87    1
    63    40    39    2
    64    39    38    1
    65     8     7    2
    66    92    94   ar
    67    92    89   ar
    68     9     6    1
    69    38    41    1
    70    69    67    1
    71     7     6    1
    72    94    95   ar
    73    87    89   ar
    74    87    88   ar
    75    84    85    2
    76    89    91   ar
    77    66    65    2
    78     6     5    1
    79    24    23    1
    80    19    20    1
    81    20    23    1
    82    20    21    1
    83    67    64    1
    84    67    68    1
    85    42    41    1
    86    88    90   ar
    87    95    93   ar
    88    64    65    1
    89    64    63    1
    90    91    90   ar
    91    91    93   ar
    92     5     3   am
    93    21    22    2
    94     3     4    2
    95     3     2    1
    96    81    80    1
    97    78    80   ar
    98    78    76   ar
    99     2     1    1
   100    80    79   ar
   101    76    75   ar
   102    79    77   ar
   103    75    77   ar
   104    75    74    1
   105    71    70    1
   106    71    74    1
   107    71    72    1
   108    72    73    2
