@<TRIPOS>MOLECULE
tmp/4ms2A06.pdb
 144 137 0 0 0
SMALL
GASTEIGER

@<TRIPOS>ATOM
      1  N        169.7650   57.9200   37.4040 N.3   130  MET130     -0.1245
      2  CA       170.5240   57.7740   36.1540 C.3   130  MET130      0.1570
      3  C        170.5230   59.0790   35.3800 C.2   130  MET130      0.2261
      4  O        171.3380   59.2750   34.4830 O.2   130  MET130     -0.2867
      5  CB       169.9450   56.6650   35.2680 C.3   130  MET130      0.0387
      6  CG       170.4290   55.2850   35.6160 C.3   130  MET130      0.0595
      7  SD       169.3900   54.0050   34.8890 S.3   130  MET130     -0.1393
      8  CE       169.6300   54.2590   33.1380 C.3   130  MET130      0.0692
      9  N        172.6860   60.1410   32.1040 N.3   134  ILE134     -0.1245
     10  CA       171.9390   60.4380   30.8940 C.3   134  ILE134      0.1561
     11  C        172.1260   61.8560   30.3900 C.2   134  ILE134      0.2260
     12  O        172.3090   62.0790   29.2030 O.2   134  ILE134     -0.2867
     13  CB       170.4600   60.2530   31.0870 C.3   134  ILE134      0.0252
     14  CG1      170.1640   58.8000   31.3900 C.3   134  ILE134      0.0019
     15  CG2      169.6980   60.7210   29.8420 C.3   134  ILE134      0.0019
     16  CD1      168.7410   58.5850   31.7950 C.3   134  ILE134      0.0001
     17  N        175.9200   62.2700   28.8990 N.3   137  MET137     -0.1230
     18  CA       175.8660   61.6340   27.5960 C.3   137  MET137      0.1702
     19  C        175.1160   62.4050   26.5160 C.2   137  MET137      0.2593
     20  O        175.6500   62.6260   25.4250 O.2   137  MET137     -0.2718
     21  CB       175.2340   60.2670   27.7750 C.3   137  MET137      0.0401
     22  CG       176.1500   59.3290   28.5430 C.3   137  MET137      0.0596
     23  SD       177.4720   58.7290   27.4720 S.3   137  MET137     -0.1393
     24  CE       176.4930   58.0200   26.1580 C.3   137  MET137      0.0692
     25  N        173.8630   62.7430   26.7860 N.am  138  THR138     -0.1953
     26  CA       173.0870   63.5660   25.8710 C.3   138  THR138      0.1897
     27  C        173.8020   64.8660   25.5120 C.2   138  THR138      0.2313
     28  O        173.6020   65.4270   24.4390 O.2   138  THR138     -0.2863
     29  CB       171.7500   63.8970   26.4560 C.3   138  THR138      0.1794
     30  OG1      171.1280   62.6760   26.8630 O.3   138  THR138     -0.2208
     31  CG2      170.8830   64.6150   25.4260 C.3   138  THR138      0.0378
     32  N        176.9660   63.5130   23.2170 N.3   141  PHE141     -0.1241
     33  CA       176.4380   63.2600   21.9070 C.3   141  PHE141      0.1605
     34  C        176.3130   64.5540   21.1320 C.2   141  PHE141      0.2264
     35  O        176.8850   64.6800   20.0360 O.2   141  PHE141     -0.2867
     36  CB       175.0830   62.5670   21.9690 C.3   141  PHE141      0.0534
     37  CG       175.1570   61.0780   21.8000 C.ar  141  PHE141     -0.0203
     38  CD1      175.7630   60.2860   22.7520 C.ar  141  PHE141     -0.0042
     39  CD2      174.7050   60.4770   20.6270 C.ar  141  PHE141     -0.0042
     40  CE1      175.8500   58.9050   22.6060 C.ar  141  PHE141     -0.0003
     41  CE2      174.8050   59.0850   20.4470 C.ar  141  PHE141     -0.0003
     42  CZ       175.3840   58.3010   21.4430 C.ar  141  PHE141     -0.0000
     43  N        174.9940   61.1790    3.7970 N.3   158  GLU158     -0.1245
     44  CA       174.0180   60.1780    4.2930 C.3   158  GLU158      0.1567
     45  C        174.1510   59.9410    5.7980 C.2   158  GLU158      0.2260
     46  O        173.1470   59.7810    6.4790 O.2   158  GLU158     -0.2867
     47  CB       174.1450   58.8540    3.5570 C.3   158  GLU158      0.0388
     48  CG       172.9690   57.8890    3.7560 C.3   158  GLU158      0.1160
     49  CD       173.2900   56.4080    3.3610 C.2   158  GLU158      0.3649
     50  OE1      174.1300   56.1860    2.4320 O.co2 158  GLU158     -0.2457
     51  OE2      172.6520   55.4540    3.8980 O.co2 158  GLU158     -0.2457
     52  N        173.6880   66.2350    8.4590 N.3   162  THR162     -0.1203
     53  CA       172.6500   66.9660    9.1560 C.3   162  THR162      0.1994
     54  C        172.8250   66.5970   10.6080 C.2   162  THR162      0.2618
     55  O        173.2710   65.4780   10.8690 O.2   162  THR162     -0.2717
     56  CB       171.2880   66.5130    8.6140 C.3   162  THR162      0.1784
     57  OG1      170.6740   67.5680    7.8810 O.3   162  THR162     -0.2211
     58  CG2      170.3650   65.9970    9.6820 C.3   162  THR162      0.0376
     59  N        172.5960   67.5140   11.5520 N.am  163  LEU163     -0.1965
     60  CA       172.7510   67.1710   12.9840 C.3   163  LEU163      0.1728
     61  C        172.0710   65.8770   13.3660 C.2   163  LEU163      0.2617
     62  O        172.6510   65.0490   14.0540 O.2   163  LEU163     -0.2715
     63  CB       172.1740   68.2470   13.9060 C.3   163  LEU163      0.0311
     64  CG       173.0130   68.7720   15.0770 C.3   163  LEU163      0.0022
     65  CD1      172.1040   69.4340   16.0900 C.3   163  LEU163      0.0001
     66  CD2      173.7730   67.6740   15.7520 C.3   163  LEU163      0.0001
     67  N        170.8520   65.6850   12.8910 N.am  164  GLY164     -0.1940
     68  CA       170.1060   64.4810   13.2120 C.3   164  GLY164      0.2014
     69  C        170.7900   63.2380   12.6850 C.2   164  GLY164      0.2638
     70  O        170.8850   62.2430   13.3890 O.2   164  GLY164     -0.2714
     71  N        171.2390   63.2660   11.4300 N.am  165  GLU165     -0.1977
     72  CA       171.9310   62.1140   10.8840 C.3   165  GLU165      0.1602
     73  C        173.1850   61.7580   11.6680 C.2   165  GLU165      0.2287
     74  O        173.4650   60.5670   11.9000 O.2   165  GLU165     -0.2864
     75  CB       172.2740   62.3390    9.4320 C.3   165  GLU165      0.0415
     76  CG       171.1250   62.0120    8.5430 C.3   165  GLU165      0.1163
     77  CD       171.0950   62.9560    7.3970 C.2   165  GLU165      0.3649
     78  OE1      170.1770   62.8430    6.5410 O.co2 165  GLU165     -0.2457
     79  OE2      172.0270   63.8090    7.3600 O.co2 165  GLU165     -0.2457
     80  N        173.4460   62.3430   14.7800 N.3   167  PHE167     -0.1227
     81  CA       172.9910   61.7720   16.0380 C.3   167  PHE167      0.1736
     82  C        172.7770   60.3060   15.7940 C.2   167  PHE167      0.2595
     83  O        173.2950   59.4590   16.5040 O.2   167  PHE167     -0.2718
     84  CB       171.7070   62.4370   16.5490 C.3   167  PHE167      0.0547
     85  CG       171.9300   63.4080   17.6690 C.ar  167  PHE167     -0.0202
     86  CD1      172.1500   64.7570   17.4160 C.ar  167  PHE167     -0.0042
     87  CD2      171.9700   62.9540   19.0000 C.ar  167  PHE167     -0.0042
     88  CE1      172.3730   65.6600   18.4800 C.ar  167  PHE167     -0.0003
     89  CE2      172.2000   63.8390   20.0540 C.ar  167  PHE167     -0.0003
     90  CZ       172.4090   65.1980   19.7820 C.ar  167  PHE167     -0.0000
     91  N        172.0590   60.0200   14.7160 N.am  168  TYR168     -0.1976
     92  CA       171.7260   58.6500   14.3610 C.3   168  TYR168      0.1639
     93  C        172.9610   57.7890   14.1270 C.2   168  TYR168      0.2290
     94  O        173.0540   56.6650   14.6530 O.2   168  TYR168     -0.2864
     95  CB       170.8010   58.6430   13.1660 C.3   168  TYR168      0.0560
     96  CG       170.3880   57.2550   12.7980 C.ar  168  TYR168     -0.0198
     97  CD1      171.1900   56.4510   11.9700 C.ar  168  TYR168     -0.0009
     98  CD2      169.2660   56.6990   13.3610 C.ar  168  TYR168     -0.0009
     99  CE1      170.8230   55.1750   11.6720 C.ar  168  TYR168      0.0417
    100  CE2      168.8890   55.4280   13.0730 C.ar  168  TYR168      0.0417
    101  CZ       169.6750   54.6590   12.2570 C.ar  168  TYR168      0.1957
    102  OH       169.2670   53.3810   12.0050 O.3   168  TYR168     -0.2866
    103  N        174.7370   57.1910   17.3740 N.3   171  PHE171     -0.1241
    104  CA       174.0650   56.2150   18.2050 C.3   171  PHE171      0.1605
    105  C        174.5360   54.8580   17.7490 C.2   171  PHE171      0.2264
    106  O        174.8540   53.9990   18.6120 O.2   171  PHE171     -0.2867
    107  CB       172.5420   56.3250   18.1360 C.3   171  PHE171      0.0534
    108  CG       171.8270   55.2930   18.9760 C.ar  171  PHE171     -0.0203
    109  CD1      171.9490   55.2830   20.3420 C.ar  171  PHE171     -0.0042
    110  CD2      171.0390   54.3210   18.3960 C.ar  171  PHE171     -0.0042
    111  CE1      171.3170   54.3180   21.1170 C.ar  171  PHE171     -0.0003
    112  CE2      170.3950   53.3460   19.1720 C.ar  171  PHE171     -0.0003
    113  CZ       170.5440   53.3460   20.5130 C.ar  171  PHE171     -0.0000
    114  N        177.6810   53.9000   18.8000 N.3   174  MET174     -0.1245
    115  CA       177.6120   53.5790   20.2230 C.3   174  MET174      0.1570
    116  C        177.1280   52.1350   20.4760 C.2   174  MET174      0.2261
    117  O        177.7080   51.4270   21.3230 O.2   174  MET174     -0.2867
    118  CB       176.7240   54.5550   21.0020 C.3   174  MET174      0.0387
    119  CG       176.4200   54.0020   22.3770 C.3   174  MET174      0.0595
    120  SD       175.6060   55.0910   23.5440 S.3   174  MET174     -0.1393
    121  CE       174.1590   55.4080   22.5860 C.3   174  MET174      0.0692
    122  N        181.4490   55.1760   30.1900 N.3   208  VAL208     -0.1231
    123  CA       180.2540   55.7210   30.8030 C.3   208  VAL208      0.1692
    124  C        179.1670   54.6840   30.9870 C.2   208  VAL208      0.2591
    125  O        178.5820   54.5440   32.0480 O.2   208  VAL208     -0.2718
    126  CB       179.6840   56.8090   29.9770 C.3   208  VAL208      0.0266
    127  CG1      178.2110   56.9420   30.2780 C.3   208  VAL208      0.0020
    128  CG2      180.3840   58.0670   30.3030 C.3   208  VAL208      0.0020
    129  N        178.9370   53.9020   29.9590 N.am  209  MET209     -0.1979
    130  CA       177.8740   52.9380   30.0410 C.3   209  MET209      0.1605
    131  C        178.1710   51.8060   30.9920 C.2   209  MET209      0.2287
    132  O        177.2510   51.1900   31.5000 O.2   209  MET209     -0.2864
    133  CB       177.5840   52.3710   28.6560 C.3   209  MET209      0.0413
    134  CG       176.4680   53.0650   27.9840 C.3   209  MET209      0.0598
    135  SD       175.0240   52.0490   28.3020 S.3   209  MET209     -0.1393
    136  CE       173.7900   53.3140   28.0610 C.3   209  MET209      0.0692
    137  N        177.1800   53.5470   34.4440 N.3   212  LEU212     -0.1245
    138  CA       175.7130   53.4950   34.4960 C.3   212  LEU212      0.1561
    139  C        175.1480   52.1120   34.8570 C.2   212  LEU212      0.2260
    140  O        174.0980   52.0110   35.4710 O.2   212  LEU212     -0.2867
    141  CB       175.1250   53.9530   33.1530 C.3   212  LEU212      0.0270
    142  CG       173.6040   53.9870   33.0220 C.3   212  LEU212      0.0019
    143  CD1      173.2140   55.1330   32.1420 C.3   212  LEU212      0.0001
    144  CD2      173.0380   52.6970   32.4500 C.3   212  LEU212      0.0001
@<TRIPOS>BOND
     1    50    49   ar
     2    49    48    1
     3    49    51   ar
     4    47    48    1
     5    47    44    1
     6    43    44    1
     7    44    45    1
     8    45    46    2
     9    78    77   ar
    10    79    77   ar
    11    77    76    1
    12    57    56    1
    13    52    53    1
    14    76    75    1
    15    56    53    1
    16    56    58    1
    17    53    54    1
    18    75    72    1
    19    54    55    2
    20    54    59   am
    21    72    71    1
    22    72    73    1
    23    71    69   am
    24    59    60    1
    25    73    74    2
    26    99    97   ar
    27    99   101   ar
    28    97    96   ar
    29   102   101    1
    30   101   100   ar
    31    69    68    1
    32    69    70    2
    33    96    95    1
    34    96    98   ar
    35    67    68    1
    36    67    61   am
    37    60    61    1
    38    60    63    1
    39   100    98   ar
    40    95    92    1
    41    61    62    2
    42    63    64    1
    43    93    92    1
    44    93    94    2
    45    92    91    1
    46    91    82   am
    47    80    81    1
    48    64    66    1
    49    64    65    1
    50    82    81    1
    51    82    83    2
    52    81    84    1
    53    84    85    1
    54   103   104    1
    55    86    85   ar
    56    86    88   ar
    57    85    87   ar
    58   105   104    1
    59   105   106    2
    60   107   104    1
    61   107   108    1
    62   110   108   ar
    63   110   112   ar
    64    88    90   ar
    65   114   115    1
    66   108   109   ar
    67    87    89   ar
    68   112   113   ar
    69    90    89   ar
    70    35    34    2
    71   115   116    1
    72   115   118    1
    73   109   111   ar
    74    41    39   ar
    75    41    42   ar
    76   116   117    2
    77   113   111   ar
    78    39    37   ar
    79   118   119    1
    80    34    33    1
    81    42    40   ar
    82    37    36    1
    83    37    38   ar
    84    33    36    1
    85    33    32    1
    86   119   120    1
    87   121   120    1
    88    40    38   ar
    89    28    27    2
    90    20    19    2
    91    31    29    1
    92    27    26    1
    93    26    29    1
    94    26    25    1
    95    24    23    1
    96    29    30    1
    97    19    25   am
    98    19    18    1
    99    23    22    1
   100    18    21    1
   101    18    17    1
   102    21    22    1
   103   134   135    1
   104   134   133    1
   105   136   135    1
   106   133   130    1
   107    12    11    2
   108    15    13    1
   109   129   130    1
   110   129   124   am
   111   126   127    1
   112   126   128    1
   113   126   123    1
   114   130   131    1
   115   122   123    1
   116    11    10    1
   117   123   124    1
   118    10    13    1
   119    10     9    1
   120   124   125    2
   121   131   132    2
   122    13    14    1
   123    14    16    1
   124   143   142    1
   125   144   142    1
   126   142   141    1
   127     8     7    1
   128   141   138    1
   129   137   138    1
   130     4     3    2
   131   138   139    1
   132   139   140    2
   133     7     6    1
   134     5     6    1
   135     5     2    1
   136     3     2    1
   137     2     1    1
