@<TRIPOS>MOLECULE
tmp/4ms2A00.pdb
 112 110 0 0 0
SMALL
GASTEIGER

@<TRIPOS>ATOM
      1  N        147.0140   59.2840   39.4840 N.3    74  ASP74      -0.1225
      2  CA       147.5380   57.9220   39.4360 C.3    74  ASP74       0.1790
      3  C        148.2480   57.6620   38.0980 C.2    74  ASP74       0.2440
      4  O        147.6230   57.7570   37.0250 O.2    74  ASP74      -0.2733
      5  CB       146.4280   56.8920   39.6280 C.3    74  ASP74       0.1423
      6  CG       146.9720   55.5010   39.8900 C.2    74  ASP74       0.3668
      7  OD1      148.0120   55.4110   40.5910 O.co2  74  ASP74      -0.2456
      8  OD2      146.3870   54.5100   39.3850 O.co2  74  ASP74      -0.2456
      9  N        149.5640   57.3750   38.1510 N.am   75  PRO75      -0.2718
     10  CA       150.3100   57.0390   36.9390 C.3    75  PRO75       0.1535
     11  C        149.5820   55.9810   36.1180 C.2    75  PRO75       0.2598
     12  O        149.2610   56.2160   34.9390 O.2    75  PRO75      -0.2715
     13  CB       151.6270   56.4810   37.4920 C.3    75  PRO75       0.0310
     14  CG       151.8060   57.1670   38.7700 C.3    75  PRO75       0.0237
     15  CD       150.4220   57.3280   39.3450 C.3    75  PRO75       0.0939
     16  N        149.2570   54.8680   36.7720 N.am   76  TRP76      -0.1974
     17  CA       148.6520   53.7270   36.1040 C.3    76  TRP76       0.1640
     18  C        147.3000   54.0700   35.5170 C.2    76  TRP76       0.2290
     19  O        146.8490   53.4650   34.5630 O.2    76  TRP76      -0.2864
     20  CB       148.5350   52.5610   37.0720 C.3    76  TRP76       0.0576
     21  CG       149.7760   52.3550   37.8340 C.ar   76  TRP76       0.0006
     22  CD1      150.1050   52.9180   39.0210 C.ar   76  TRP76       0.0946
     23  CD2      150.8700   51.5140   37.4700 C.ar   76  TRP76       0.0152
     24  NE1      151.3460   52.4900   39.4280 N.ar   76  TRP76      -0.2442
     25  CE2      151.8360   51.6210   38.4950 C.ar   76  TRP76       0.0810
     26  CE3      151.1400   50.6940   36.3640 C.ar   76  TRP76       0.0012
     27  CZ2      153.0450   50.9350   38.4580 C.ar   76  TRP76       0.0191
     28  CZ3      152.3460   50.0140   36.3250 C.ar   76  TRP76       0.0001
     29  CH2      153.2830   50.1350   37.3720 C.ar   76  TRP76       0.0015
     30  N        147.7120   56.6120   32.4320 N.3    79  PHE79      -0.1241
     31  CA       148.0810   55.7700   31.3160 C.3    79  PHE79       0.1605
     32  C        146.8570   55.2200   30.5980 C.2    79  PHE79       0.2264
     33  O        146.6320   55.5320   29.4320 O.2    79  PHE79      -0.2867
     34  CB       148.9880   54.6270   31.7640 C.3    79  PHE79       0.0534
     35  CG       149.4460   53.7800   30.6250 C.ar   79  PHE79      -0.0203
     36  CD1      150.4650   54.2210   29.7870 C.ar   79  PHE79      -0.0042
     37  CD2      148.8460   52.5620   30.3560 C.ar   79  PHE79      -0.0042
     38  CE1      150.8830   53.4590   28.7040 C.ar   79  PHE79      -0.0003
     39  CE2      149.2600   51.7850   29.2720 C.ar   79  PHE79      -0.0003
     40  CZ       150.2820   52.2390   28.4450 C.ar   79  PHE79      -0.0000
     41  N        148.9880   47.1030   26.7270 N.3   107  PHE107     -0.1241
     42  CA       149.8250   47.4000   27.8720 C.3   107  PHE107      0.1605
     43  C        148.9660   47.4840   29.1540 C.2   107  PHE107      0.2264
     44  O        149.4850   47.6210   30.2710 O.2   107  PHE107     -0.2867
     45  CB       150.5900   48.7030   27.6490 C.3   107  PHE107      0.0534
     46  CG       151.9090   48.5230   26.9610 C.ar  107  PHE107     -0.0203
     47  CD1      152.9400   47.8340   27.5860 C.ar  107  PHE107     -0.0042
     48  CD2      152.1240   49.0290   25.6780 C.ar  107  PHE107     -0.0042
     49  CE1      154.1720   47.6620   26.9420 C.ar  107  PHE107     -0.0003
     50  CE2      153.3450   48.8510   25.0320 C.ar  107  PHE107     -0.0003
     51  CZ       154.3710   48.1690   25.6620 C.ar  107  PHE107     -0.0000
     52  N        149.5050   45.1910   31.8490 N.3   110  VAL110     -0.1231
     53  CA       150.5720   45.5650   32.7640 C.3   110  VAL110      0.1692
     54  C        149.9770   46.4180   33.8670 C.2   110  VAL110      0.2592
     55  O        150.3080   46.2870   35.0460 O.2   110  VAL110     -0.2718
     56  CB       151.7110   46.3600   32.0180 C.3   110  VAL110      0.0266
     57  CG1      152.6200   47.0820   32.9920 C.3   110  VAL110      0.0020
     58  CG2      152.5230   45.4450   31.1240 C.3   110  VAL110      0.0020
     59  N        149.0700   47.2860   33.4510 N.am  111  THR111     -0.1953
     60  CA       148.4850   48.2890   34.3070 C.3   111  THR111      0.1897
     61  C        147.4410   47.6330   35.2220 C.2   111  THR111      0.2313
     62  O        147.2300   48.0510   36.3480 O.2   111  THR111     -0.2863
     63  CB       147.8490   49.4090   33.4390 C.3   111  THR111      0.1794
     64  OG1      147.9930   50.6770   34.0830 O.3   111  THR111     -0.2208
     65  CG2      146.3800   49.1150   33.1060 C.3   111  THR111      0.0378
     66  N        152.9050   45.4600   37.3240 N.3   117  ARG117     -0.1231
     67  CA       153.0210   46.7610   37.9980 C.3   117  ARG117      0.1694
     68  C        154.2450   46.8380   38.9000 C.2   117  ARG117      0.2591
     69  O        154.9300   47.8560   38.9470 O.2   117  ARG117     -0.2718
     70  CB       151.7850   47.0410   38.8570 C.3   117  ARG117      0.0321
     71  CG       150.6240   47.7240   38.1750 C.3   117  ARG117      0.0489
     72  CD       149.3880   47.6570   39.0520 C.3   117  ARG117      0.2205
     73  NE       148.4470   48.7370   38.7870 N.pl3 117  ARG117     -0.0865
     74  CZ       148.1320   49.6930   39.6560 C.cat 117  ARG117      0.5346
     75  NH1      148.7020   49.7240   40.8640 N.pl3 117  ARG117      0.1354
     76  NH2      147.2460   50.6270   39.3140 N.pl3 117  ARG117      0.1354
     77  N        154.5120   45.7480   39.6160 N.am  118  LYS118     -0.1980
     78  CA       155.6140   45.7290   40.5530 C.3   118  LYS118      0.1596
     79  C        156.9050   45.7930   39.7770 C.2   118  LYS118      0.2287
     80  O        157.7310   46.6920   39.9760 O.2   118  LYS118     -0.2864
     81  CB       155.5840   44.4490   41.4090 C.3   118  LYS118      0.0298
     82  CG       156.1150   44.5880   42.8460 C.3   118  LYS118      0.0038
     83  CD       155.5690   45.8520   43.5580 C.3   118  LYS118      0.0206
     84  CE       154.0260   45.8550   43.6670 C.3   118  LYS118      0.1093
     85  NZ       153.4080   47.0730   43.0070 N.3   118  LYS118     -0.1314
     86  N        157.3900   46.6530   36.5770 N.3   120  VAL120     -0.1231
     87  CA       157.5430   47.8890   35.8260 C.3   120  VAL120      0.1692
     88  C        158.0430   49.0100   36.7250 C.2   120  VAL120      0.2592
     89  O        158.9490   49.7670   36.3390 O.2   120  VAL120     -0.2718
     90  CB       156.2280   48.2920   35.1450 C.3   120  VAL120      0.0266
     91  CG1      156.3160   49.6860   34.6050 C.3   120  VAL120      0.0020
     92  CG2      155.8870   47.3000   34.0450 C.3   120  VAL120      0.0020
     93  N        157.5040   49.0480   37.9450 N.am  121  SER121     -0.1952
     94  CA       157.8620   50.0460   38.9630 C.3   121  SER121      0.1924
     95  C        159.2870   49.8660   39.4310 C.2   121  SER121      0.2314
     96  O        159.9920   50.8410   39.6830 O.2   121  SER121     -0.2863
     97  CB       156.9160   49.9870   40.1630 C.3   121  SER121      0.2116
     98  OG       155.5800   50.1490   39.7420 O.3   121  SER121     -0.2180
     99  N        161.4470   51.3280   36.4720 N.3   124  ILE124     -0.1231
    100  CA       161.3260   52.7730   36.3670 C.3   124  ILE124      0.1692
    101  C        162.0080   53.4970   37.5200 C.2   124  ILE124      0.2592
    102  O        162.5510   54.5920   37.3750 O.2   124  ILE124     -0.2718
    103  CB       159.8610   53.1690   36.3180 C.3   124  ILE124      0.0266
    104  CG1      159.2190   52.5950   35.0650 C.3   124  ILE124      0.0019
    105  CG2      159.6980   54.6620   36.3240 C.3   124  ILE124      0.0020
    106  CD1      157.7470   52.8670   34.9900 C.3   124  ILE124      0.0001
    107  N        161.9880   52.8710   38.6830 N.am  125  SER125     -0.1952
    108  CA       162.4990   53.5280   39.8720 C.3   125  SER125      0.1924
    109  C        164.0080   53.6800   39.8220 C.2   125  SER125      0.2314
    110  O        164.5860   54.4510   40.5970 O.2   125  SER125     -0.2863
    111  CB       162.1020   52.7350   41.1080 C.3   125  SER125      0.2116
    112  OG       162.2230   51.3480   40.8390 O.3   125  SER125     -0.2180
@<TRIPOS>BOND
     1    50    51   ar
     2    50    48   ar
     3    51    49   ar
     4    48    46   ar
     5    41    42    1
     6    49    47   ar
     7    46    47   ar
     8    46    45    1
     9    45    42    1
    10    42    43    1
    11    40    38   ar
    12    40    39   ar
    13    38    36   ar
    14    43    44    2
    15    39    37   ar
    16    33    32    2
    17    36    35   ar
    18    37    35   ar
    19    32    31    1
    20    35    34    1
    21    58    56    1
    22    31    34    1
    23    31    30    1
    24    52    53    1
    25    56    53    1
    26    56    57    1
    27    53    54    1
    28    65    63    1
    29    63    64    1
    30    63    60    1
    31    59    54   am
    32    59    60    1
    33    54    55    2
    34    92    90    1
    35    60    61    1
    36    19    18    2
    37    91    90    1
    38    12    11    2
    39   106   104    1
    40   104   103    1
    41    90    87    1
    42    61    62    2
    43    18    17    1
    44    87    86    1
    45    87    88    1
    46    17    16    1
    47    17    20    1
    48    11    16   am
    49    11    10    1
    50   103   105    1
    51   103   100    1
    52    28    26   ar
    53    28    29   ar
    54    89    88    2
    55    26    23   ar
    56   100    99    1
    57   100   101    1
    58    88    93   am
    59    10    13    1
    60    10     9    1
    61     4     3    2
    62    20    21    1
    63    66    67    1
    64    29    27   ar
    65   102   101    2
    66    23    21   ar
    67    23    25   ar
    68    13    14    1
    69   101   107   am
    70    21    22   ar
    71    93    94    1
    72    67    70    1
    73    67    68    1
    74     3     9   am
    75     3     2    1
    76     9    15    1
    77    71    70    1
    78    71    72    1
    79    27    25   ar
    80    25    24   ar
    81   107   108    1
    82    14    15    1
    83    73    72    1
    84    73    74    2
    85    68    69    2
    86    68    77   am
    87    94    95    1
    88    94    97    1
    89    22    24   ar
    90    76    74    1
    91     8     6   ar
    92    95    96    2
    93     2     1    1
    94     2     5    1
    95    77    78    1
    96     5     6    1
    97    74    75    1
    98    98    97    1
    99    79    80    2
   100    79    78    1
   101   109   108    1
   102   109   110    2
   103   108   111    1
   104     6     7   ar
   105    78    81    1
   106   112   111    1
   107    81    82    1
   108    82    83    1
   109    85    84    1
   110    83    84    1
