@<TRIPOS>MOLECULE
tmp/4ms2A08.pdb
 81 74 0 0 0
SMALL
GASTEIGER

@<TRIPOS>ATOM
      1  N        165.5380   54.7680   37.1590 N.3   127  ILE127     -0.1245
      2  CA       165.8040   55.8570   36.2320 C.3   127  ILE127      0.1561
      3  C        166.2520   57.1610   36.9130 C.2   127  ILE127      0.2260
      4  O        167.2640   57.7290   36.5050 O.2   127  ILE127     -0.2867
      5  CB       164.6010   56.1100   35.3060 C.3   127  ILE127      0.0252
      6  CG1      164.3260   54.8450   34.4740 C.3   127  ILE127      0.0019
      7  CG2      164.8780   57.3010   34.4060 C.3   127  ILE127      0.0019
      8  CD1      163.1690   54.9810   33.4940 C.3   127  ILE127      0.0001
      9  N        169.7650   57.9200   37.4040 N.3   130  MET130     -0.1245
     10  CA       170.5240   57.7740   36.1540 C.3   130  MET130      0.1570
     11  C        170.5230   59.0790   35.3800 C.2   130  MET130      0.2261
     12  O        171.3380   59.2750   34.4830 O.2   130  MET130     -0.2867
     13  CB       169.9450   56.6650   35.2680 C.3   130  MET130      0.0387
     14  CG       170.4290   55.2850   35.6160 C.3   130  MET130      0.0595
     15  SD       169.3900   54.0050   34.8890 S.3   130  MET130     -0.1393
     16  CE       169.6300   54.2590   33.1380 C.3   130  MET130      0.0692
     17  N        172.6860   60.1410   32.1040 N.3   134  ILE134     -0.1245
     18  CA       171.9390   60.4380   30.8940 C.3   134  ILE134      0.1561
     19  C        172.1260   61.8560   30.3900 C.2   134  ILE134      0.2260
     20  O        172.3090   62.0790   29.2030 O.2   134  ILE134     -0.2867
     21  CB       170.4600   60.2530   31.0870 C.3   134  ILE134      0.0252
     22  CG1      170.1640   58.8000   31.3900 C.3   134  ILE134      0.0019
     23  CG2      169.6980   60.7210   29.8420 C.3   134  ILE134      0.0019
     24  CD1      168.7410   58.5850   31.7950 C.3   134  ILE134      0.0001
     25  N        174.7370   57.1910   17.3740 N.3   171  PHE171     -0.1241
     26  CA       174.0650   56.2150   18.2050 C.3   171  PHE171      0.1605
     27  C        174.5360   54.8580   17.7490 C.2   171  PHE171      0.2264
     28  O        174.8540   53.9990   18.6120 O.2   171  PHE171     -0.2867
     29  CB       172.5420   56.3250   18.1360 C.3   171  PHE171      0.0534
     30  CG       171.8270   55.2930   18.9760 C.ar  171  PHE171     -0.0203
     31  CD1      171.9490   55.2830   20.3420 C.ar  171  PHE171     -0.0042
     32  CD2      171.0390   54.3210   18.3960 C.ar  171  PHE171     -0.0042
     33  CE1      171.3170   54.3180   21.1170 C.ar  171  PHE171     -0.0003
     34  CE2      170.3950   53.3460   19.1720 C.ar  171  PHE171     -0.0003
     35  CZ       170.5440   53.3460   20.5130 C.ar  171  PHE171     -0.0000
     36  N        177.6810   53.9000   18.8000 N.3   174  MET174     -0.1230
     37  CA       177.6120   53.5790   20.2230 C.3   174  MET174      0.1702
     38  C        177.1280   52.1350   20.4760 C.2   174  MET174      0.2593
     39  O        177.7080   51.4270   21.3230 O.2   174  MET174     -0.2718
     40  CB       176.7240   54.5550   21.0020 C.3   174  MET174      0.0401
     41  CG       176.4200   54.0020   22.3770 C.3   174  MET174      0.0596
     42  SD       175.6060   55.0910   23.5440 S.3   174  MET174     -0.1393
     43  CE       174.1590   55.4080   22.5860 C.3   174  MET174      0.0692
     44  N        176.1030   51.6750   19.7450 N.am  175  THR175     -0.1939
     45  CA       175.7680   50.2650   19.8650 C.3   175  THR175      0.2028
     46  C        176.7830   49.3050   19.2380 C.2   175  THR175      0.2642
     47  O        176.5620   48.1000   19.2160 O.2   175  THR175     -0.2714
     48  CB       174.4150   49.9610   19.2480 C.3   175  THR175      0.1808
     49  OG1      174.4710   50.1170   17.8130 O.3   175  THR175     -0.2208
     50  CG2      173.3440   50.8520   19.8770 C.3   175  THR175      0.0379
     51  N        177.8980   49.8470   18.7530 N.am  176  LEU176     -0.1977
     52  CA       178.9770   49.0860   18.1060 C.3   176  LEU176      0.1596
     53  C        178.5230   48.2990   16.8740 C.2   176  LEU176      0.2287
     54  O        179.1950   47.3560   16.4780 O.2   176  LEU176     -0.2864
     55  CB       179.6320   48.1340   19.1120 C.3   176  LEU176      0.0297
     56  CG       180.4540   48.8440   20.2010 C.3   176  LEU176      0.0022
     57  CD1      181.2730   47.8790   21.0530 C.3   176  LEU176      0.0001
     58  CD2      181.3560   49.9020   19.5850 C.3   176  LEU176      0.0001
     59  N        181.5410   53.9160   25.9990 N.3   206  THR206     -0.1218
     60  CA       181.5130   52.5700   26.5470 C.3   206  THR206      0.1862
     61  C        181.7660   52.6320   28.0440 C.2   206  THR206      0.2287
     62  O        181.0520   52.0020   28.8350 O.2   206  THR206     -0.2866
     63  CB       182.6230   51.6760   25.9740 C.3   206  THR206      0.1770
     64  OG1      182.7780   51.8930   24.5840 O.3   206  THR206     -0.2211
     65  CG2      182.4040   50.2130   26.3040 C.3   206  THR206      0.0375
     66  N        178.9370   53.9020   29.9590 N.3   209  MET209     -0.1245
     67  CA       177.8740   52.9380   30.0410 C.3   209  MET209      0.1570
     68  C        178.1710   51.8060   30.9920 C.2   209  MET209      0.2261
     69  O        177.2510   51.1900   31.5000 O.2   209  MET209     -0.2867
     70  CB       177.5840   52.3710   28.6560 C.3   209  MET209      0.0387
     71  CG       176.4680   53.0650   27.9840 C.3   209  MET209      0.0595
     72  SD       175.0240   52.0490   28.3020 S.3   209  MET209     -0.1393
     73  CE       173.7900   53.3140   28.0610 C.3   209  MET209      0.0692
     74  N        177.1800   53.5470   34.4440 N.3   212  LEU212     -0.1245
     75  CA       175.7130   53.4950   34.4960 C.3   212  LEU212      0.1561
     76  C        175.1480   52.1120   34.8570 C.2   212  LEU212      0.2260
     77  O        174.0980   52.0110   35.4710 O.2   212  LEU212     -0.2867
     78  CB       175.1250   53.9530   33.1530 C.3   212  LEU212      0.0270
     79  CG       173.6040   53.9870   33.0220 C.3   212  LEU212      0.0019
     80  CD1      173.2140   55.1330   32.1420 C.3   212  LEU212      0.0001
     81  CD2      173.0380   52.6970   32.4500 C.3   212  LEU212      0.0001
@<TRIPOS>BOND
     1    54    53    2
     2    53    52    1
     3    25    26    1
     4    27    26    1
     5    27    28    2
     6    49    48    1
     7    52    51    1
     8    52    55    1
     9    29    26    1
    10    29    30    1
    11    32    30   ar
    12    32    34   ar
    13    51    46   am
    14    36    37    1
    15    30    31   ar
    16    55    56    1
    17    34    35   ar
    18    47    46    2
    19    46    45    1
    20    48    45    1
    21    48    50    1
    22    58    56    1
    23    44    45    1
    24    44    38   am
    25    56    57    1
    26    37    38    1
    27    37    40    1
    28    31    33   ar
    29    38    39    2
    30    35    33   ar
    31    40    41    1
    32    41    42    1
    33    43    42    1
    34    64    63    1
    35    63    65    1
    36    63    60    1
    37    59    60    1
    38    60    61    1
    39    71    72    1
    40    71    70    1
    41    61    62    2
    42    73    72    1
    43    70    67    1
    44    20    19    2
    45    23    21    1
    46    66    67    1
    47    67    68    1
    48    19    18    1
    49    18    21    1
    50    18    17    1
    51    68    69    2
    52    21    22    1
    53    22    24    1
    54    80    79    1
    55    81    79    1
    56    79    78    1
    57    16    15    1
    58    78    75    1
    59     8     6    1
    60     7     5    1
    61    74    75    1
    62     6     5    1
    63    12    11    2
    64    75    76    1
    65    76    77    2
    66    15    14    1
    67    13    14    1
    68    13    10    1
    69     5     2    1
    70    11    10    1
    71    10     9    1
    72     2     3    1
    73     2     1    1
    74     4     3    2
