@<TRIPOS>MOLECULE
tmp/4ms2A01.pdb
 92 85 0 0 0
SMALL
GASTEIGER

@<TRIPOS>ATOM
      1  N        141.2620   42.3110   27.8340 N.3    22  ILE22      -0.1231
      2  CA       142.6300   42.5130   27.3860 C.3    22  ILE22       0.1692
      3  C        143.2650   41.2830   26.7300 C.2    22  ILE22       0.2591
      4  O        143.6520   41.3170   25.5590 O.2    22  ILE22      -0.2718
      5  CB       143.4950   42.9360   28.5770 C.3    22  ILE22       0.0266
      6  CG1      142.9500   44.2320   29.1750 C.3    22  ILE22       0.0019
      7  CG2      144.9340   43.1200   28.1640 C.3    22  ILE22       0.0020
      8  CD1      143.7160   44.6940   30.3800 C.3    22  ILE22       0.0001
      9  N        143.3160   40.1810   27.4630 N.am   23  VAL23      -0.1980
     10  CA       143.9240   38.9640   26.9480 C.3    23  VAL23       0.1595
     11  C        143.1290   38.4820   25.7450 C.2    23  VAL23       0.2287
     12  O        143.6530   37.8190   24.8720 O.2    23  VAL23      -0.2864
     13  CB       144.0360   37.8680   28.0390 C.3    23  VAL23       0.0276
     14  CG1      144.6550   36.6180   27.4760 C.3    23  VAL23       0.0022
     15  CG2      144.9090   38.3540   29.1560 C.3    23  VAL23       0.0022
     16  N        143.8280   41.1730   22.9690 N.3    26  GLY26      -0.1210
     17  CA       145.2200   40.9690   22.6320 C.3    26  GLY26       0.1956
     18  C        145.3810   39.8200   21.6750 C.2    26  GLY26       0.2611
     19  O        146.1120   39.9270   20.6940 O.2    26  GLY26      -0.2717
     20  N        144.6320   38.7510   21.9010 N.am   27  ILE27      -0.1979
     21  CA       144.6520   37.6320   20.9740 C.3    27  ILE27       0.1595
     22  C        144.0160   38.0670   19.6600 C.2    27  ILE27       0.2287
     23  O        144.4450   37.6630   18.5710 O.2    27  ILE27      -0.2864
     24  CB       143.9320   36.4150   21.5400 C.3    27  ILE27       0.0276
     25  CG1      144.7080   35.8720   22.7400 C.3    27  ILE27       0.0022
     26  CG2      143.7600   35.3640   20.4670 C.3    27  ILE27       0.0022
     27  CD1      144.1960   34.5420   23.2760 C.3    27  ILE27       0.0001
     28  N        146.5170   39.9160   17.3500 N.3    30  GLY30      -0.1210
     29  CA       147.4530   39.0570   16.6600 C.3    30  GLY30       0.1956
     30  C        146.8080   38.3550   15.4790 C.2    30  GLY30       0.2611
     31  O        147.4800   37.9610   14.5360 O.2    30  GLY30      -0.2717
     32  N        145.4960   38.1900   15.5190 N.am   31  LEU31      -0.1979
     33  CA       144.8030   37.5160   14.4270 C.3    31  LEU31       0.1596
     34  C        144.5210   38.4770   13.2830 C.2    31  LEU31       0.2287
     35  O        144.4700   38.0730   12.1290 O.2    31  LEU31      -0.2864
     36  CB       143.5060   36.8740   14.9300 C.3    31  LEU31       0.0297
     37  CG       143.7190   35.5210   15.6120 C.3    31  LEU31       0.0022
     38  CD1      142.4160   34.8420   15.9330 C.3    31  LEU31       0.0001
     39  CD2      144.5240   34.6430   14.6970 C.3    31  LEU31       0.0001
     40  N        146.4740   40.3350   12.1140 N.3    33  THR33      -0.1203
     41  CA       147.7780   40.3770   11.4870 C.3    33  THR33       0.1994
     42  C        147.7070   39.5340   10.2330 C.2    33  THR33       0.2619
     43  O        148.3270   39.8530    9.2170 O.2    33  THR33      -0.2717
     44  CB       148.8550   39.8380   12.4740 C.3    33  THR33       0.1784
     45  OG1      149.4740   40.9360   13.1550 O.3    33  THR33      -0.2211
     46  CG2      149.9090   38.9740   11.7870 C.3    33  THR33       0.0376
     47  N        146.9540   38.4410   10.3100 N.am   34  SER34      -0.1937
     48  CA       146.7920   37.5590    9.1710 C.3    34  SER34       0.2055
     49  C        145.7960   38.1260    8.1720 C.2    34  SER34       0.2643
     50  O        144.6010   38.2430    8.4530 O.2    34  SER34      -0.2714
     51  CB       146.3340   36.1770    9.6080 C.3    34  SER34       0.2130
     52  OG       145.9440   35.4170    8.4730 O.3    34  SER34      -0.2179
     53  N        146.3170   38.4830    7.0070 N.am   35  LYS35      -0.1963
     54  CA       145.5370   38.9790    5.8860 C.3    35  LYS35       0.1728
     55  C        144.4960   37.9430    5.4680 C.2    35  LYS35       0.2616
     56  O        143.3960   38.2910    5.0280 O.2    35  LYS35      -0.2715
     57  CB       146.4900   39.3710    4.7470 C.3    35  LYS35       0.0311
     58  CG       147.8260   38.6070    4.7790 C.3    35  LYS35       0.0038
     59  CD       148.9500   39.3530    4.0350 C.3    35  LYS35       0.0206
     60  CE       148.7070   39.4130    2.5380 C.3    35  LYS35       0.1093
     61  NZ       148.7240   38.0520    1.9310 N.3    35  LYS35      -0.1314
     62  N        144.8650   36.6710    5.6070 N.am   36  THR36      -0.1951
     63  CA       143.9480   35.5610    5.3880 C.3    36  THR36       0.1897
     64  C        142.7500   35.6200    6.3380 C.2    36  THR36       0.2313
     65  O        141.5950   35.7090    5.9090 O.2    36  THR36      -0.2863
     66  CB       144.6720   34.2190    5.5990 C.3    36  THR36       0.1794
     67  OG1      145.5740   33.9860    4.5200 O.3    36  THR36      -0.2208
     68  CG2      143.6960   33.0860    5.6740 C.3    36  THR36       0.0378
     69  N        147.1070   46.9300   24.7960 N.3   106  LEU106     -0.1245
     70  CA       147.5460   45.6640   25.3860 C.3   106  LEU106      0.1561
     71  C        148.5480   45.8690   26.5260 C.2   106  LEU106      0.2260
     72  O        148.9370   44.9210   27.2010 O.2   106  LEU106     -0.2867
     73  CB       148.1500   44.7490   24.3230 C.3   106  LEU106      0.0270
     74  CG       147.3060   44.6710   23.0490 C.3   106  LEU106      0.0019
     75  CD1      147.8870   43.6780   22.0630 C.3   106  LEU106      0.0001
     76  CD2      145.8430   44.3580   23.3470 C.3   106  LEU106      0.0001
     77  N        147.3550   45.0700   30.2810 N.3   109  LEU109     -0.1245
     78  CA       147.7020   43.8350   30.9750 C.3   109  LEU109      0.1561
     79  C        148.8140   44.0730   31.9950 C.2   109  LEU109      0.2260
     80  O        149.0190   43.2940   32.9160 O.2   109  LEU109     -0.2867
     81  CB       148.1480   42.7790   29.9800 C.3   109  LEU109      0.0270
     82  CG       148.2640   41.3720   30.5460 C.3   109  LEU109      0.0019
     83  CD1      146.8670   40.8630   30.8390 C.3   109  LEU109      0.0001
     84  CD2      149.0060   40.4400   29.6100 C.3   109  LEU109      0.0001
     85  N        153.3820   42.5440   37.5020 N.3   116  MET116     -0.1245
     86  CA       153.6740   43.3880   36.3490 C.3   116  MET116      0.1570
     87  C        153.9510   44.7980   36.8260 C.2   116  MET116      0.2261
     88  O        155.0930   45.2660   36.7520 O.2   116  MET116     -0.2867
     89  CB       152.5050   43.4110   35.3750 C.3   116  MET116      0.0387
     90  CG       152.2870   42.1130   34.6200 C.3   116  MET116      0.0595
     91  SD       153.8430   41.4050   34.0620 S.3   116  MET116     -0.1393
     92  CE       153.2660   39.9010   33.2700 C.3   116  MET116      0.0692
@<TRIPOS>BOND
     1    61    60    1
     2    60    59    1
     3    59    58    1
     4    67    66    1
     5    57    58    1
     6    57    54    1
     7    56    55    2
     8    63    66    1
     9    63    62    1
    10    63    64    1
    11    55    62   am
    12    55    54    1
    13    66    68    1
    14    54    53    1
    15    65    64    2
    16    53    49   am
    17    49    50    2
    18    49    48    1
    19    52    51    1
    20    48    51    1
    21    48    47    1
    22    43    42    2
    23    42    47   am
    24    42    41    1
    25    41    40    1
    26    41    44    1
    27    46    44    1
    28    35    34    2
    29    44    45    1
    30    34    33    1
    31    33    36    1
    32    33    32    1
    33    31    30    2
    34    39    37    1
    35    36    37    1
    36    30    32   am
    37    30    29    1
    38    37    38    1
    39    29    28    1
    40    23    22    2
    41    22    21    1
    42    26    24    1
    43    19    18    2
    44    21    24    1
    45    21    20    1
    46    24    25    1
    47    18    20   am
    48    18    17    1
    49    75    74    1
    50    17    16    1
    51    25    27    1
    52    74    76    1
    53    74    73    1
    54    73    70    1
    55    69    70    1
    56    12    11    2
    57    70    71    1
    58     4     3    2
    59    11    10    1
    60    71    72    2
    61     3     2    1
    62     3     9   am
    63    10     9    1
    64    10    13    1
    65     2     1    1
    66     2     5    1
    67    14    13    1
    68    13    15    1
    69     7     5    1
    70     5     6    1
    71     6     8    1
    72    84    82    1
    73    81    82    1
    74    81    78    1
    75    77    78    1
    76    82    83    1
    77    78    79    1
    78    79    80    2
    79    92    91    1
    80    91    90    1
    81    90    89    1
    82    89    86    1
    83    86    87    1
    84    86    85    1
    85    88    87    2
