@<TRIPOS>MOLECULE
tmp/4ms2A03.pdb
 128 128 0 0 0
SMALL
GASTEIGER

@<TRIPOS>ATOM
      1  N        177.2160   65.0570   25.6160 N.3   140  PHE140     -0.1241
      2  CA       178.3570   64.4910   24.9050 C.3   140  PHE140      0.1605
      3  C        178.0530   64.2490   23.4320 C.2   140  PHE140      0.2264
      4  O        178.7680   64.7050   22.5360 O.2   140  PHE140     -0.2867
      5  CB       178.7430   63.1590   25.5300 C.3   140  PHE140      0.0534
      6  CG       180.1130   62.6870   25.1590 C.ar  140  PHE140     -0.0203
      7  CD1      181.2440   63.3260   25.6440 C.ar  140  PHE140     -0.0042
      8  CD2      180.2720   61.6240   24.2710 C.ar  140  PHE140     -0.0042
      9  CE1      182.5190   62.8650   25.2880 C.ar  140  PHE140     -0.0003
     10  CE2      181.5340   61.1630   23.9110 C.ar  140  PHE140     -0.0003
     11  CZ       182.6580   61.7880   24.4040 C.ar  140  PHE140     -0.0000
     12  N        179.6320   66.0540   19.9110 N.3   144  PHE144     -0.1241
     13  CA       180.2000   65.2210   18.8450 C.3   144  PHE144      0.1605
     14  C        179.3240   65.2040   17.5810 C.2   144  PHE144      0.2264
     15  O        179.8400   65.3570   16.4670 O.2   144  PHE144     -0.2867
     16  CB       180.4620   63.8090   19.3560 C.3   144  PHE144      0.0534
     17  CG       181.7740   63.6770   20.0970 C.ar  144  PHE144     -0.0203
     18  CD1      181.9320   64.2380   21.3760 C.ar  144  PHE144     -0.0042
     19  CD2      182.8590   63.0260   19.5140 C.ar  144  PHE144     -0.0042
     20  CE1      183.1390   64.1290   22.0700 C.ar  144  PHE144     -0.0003
     21  CE2      184.0710   62.9210   20.1770 C.ar  144  PHE144     -0.0003
     22  CZ       184.2130   63.4770   21.4760 C.ar  144  PHE144     -0.0000
     23  N        180.3320   68.2720   15.9620 N.3   147  MET147     -0.1245
     24  CA       181.6930   68.1680   15.4590 C.3   147  MET147      0.1570
     25  C        181.7430   67.2990   14.2080 C.2   147  MET147      0.2261
     26  O        182.3350   67.6680   13.1910 O.2   147  MET147     -0.2867
     27  CB       182.5790   67.5780   16.5660 C.3   147  MET147      0.0387
     28  CG       183.6570   68.4890   17.0550 C.3   147  MET147      0.0595
     29  SD       184.1280   68.1240   18.7380 S.3   147  MET147     -0.1393
     30  CE       185.6220   67.1460   18.6610 C.3   147  MET147      0.0692
     31  N        182.7420   67.9770   10.3110 N.3   151  LEU151     -0.1231
     32  CA       183.9570   67.3400    9.8320 C.3   151  LEU151      0.1693
     33  C        183.6900   66.3760    8.6730 C.2   151  LEU151      0.2592
     34  O        184.5610   66.2040    7.8080 O.2   151  LEU151     -0.2718
     35  CB       184.6270   66.5520   10.9320 C.3   151  LEU151      0.0284
     36  CG       185.4210   67.1870   12.0540 C.3   151  LEU151      0.0019
     37  CD1      185.7350   66.1180   13.0900 C.3   151  LEU151      0.0001
     38  CD2      186.6680   67.8400   11.5280 C.3   151  LEU151      0.0001
     39  N        182.4900   65.7940    8.5950 N.am  152  PHE152     -0.1976
     40  CA       182.2520   64.7080    7.6260 C.3   152  PHE152      0.1639
     41  C        180.9940   64.8110    6.7540 C.2   152  PHE152      0.2290
     42  O        180.7290   63.9200    5.9480 O.2   152  PHE152     -0.2864
     43  CB       182.1920   63.3450    8.3640 C.3   152  PHE152      0.0560
     44  CG       183.3550   63.0740    9.2830 C.ar  152  PHE152     -0.0200
     45  CD1      184.6350   63.0080    8.7890 C.ar  152  PHE152     -0.0042
     46  CD2      183.1490   62.8410   10.6280 C.ar  152  PHE152     -0.0042
     47  CE1      185.6950   62.7600    9.6270 C.ar  152  PHE152     -0.0003
     48  CE2      184.1930   62.5460   11.4860 C.ar  152  PHE152     -0.0003
     49  CZ       185.4680   62.5210   11.0020 C.ar  152  PHE152     -0.0000
     50  N        181.3480   65.3720    2.6910 N.3   155  ARG155     -0.1245
     51  CA       181.6940   64.1650    1.9160 C.3   155  ARG155      0.1563
     52  C        180.7990   63.0030    2.2550 C.2   155  ARG155      0.2260
     53  O        180.7460   62.0340    1.5210 O.2   155  ARG155     -0.2867
     54  CB       183.1340   63.7050    2.0960 C.3   155  ARG155      0.0307
     55  CG       184.2120   64.6680    1.6530 C.3   155  ARG155      0.0489
     56  CD       184.3260   64.8150    0.1250 C.3   155  ARG155      0.2205
     57  NE       185.7110   65.1330   -0.2880 N.pl3 155  ARG155     -0.0865
     58  CZ       186.5760   64.2510   -0.8060 C.cat 155  ARG155      0.5346
     59  NH1      186.2160   63.0010   -1.0700 N.pl3 155  ARG155      0.1354
     60  NH2      187.8090   64.6200   -1.1000 N.pl3 155  ARG155      0.1354
     61  N        188.9110   58.9840    2.9580 N.3   190  VAL190     -0.1231
     62  CA       189.0510   60.4140    2.7080 C.3   190  VAL190      0.1692
     63  C        189.6880   61.1620    3.8490 C.2   190  VAL190      0.2592
     64  O        190.4430   62.1140    3.6520 O.2   190  VAL190     -0.2718
     65  CB       187.7000   61.0430    2.5030 C.3   190  VAL190      0.0266
     66  CG1      187.8110   62.5420    2.3710 C.3   190  VAL190      0.0020
     67  CG2      187.0130   60.4290    1.3340 C.3   190  VAL190      0.0020
     68  N        189.3070   60.7760    5.0680 N.am  191  TYR191     -0.1963
     69  CA       189.8330   61.3850    6.2790 C.3   191  TYR191      0.1756
     70  C        190.6080   60.3360    7.0550 C.2   191  TYR191      0.2461
     71  O        190.0380   59.6260    7.8680 O.2   191  TYR191     -0.2730
     72  CB       188.7020   61.9710    7.0920 C.3   191  TYR191      0.0574
     73  CG       187.8640   62.9740    6.3170 C.ar  191  TYR191     -0.0198
     74  CD1      188.3780   64.2200    5.9670 C.ar  191  TYR191     -0.0009
     75  CD2      186.5490   62.7000    5.9730 C.ar  191  TYR191     -0.0009
     76  CE1      187.6270   65.1430    5.2780 C.ar  191  TYR191      0.0417
     77  CE2      185.7760   63.6240    5.3070 C.ar  191  TYR191      0.0417
     78  CZ       186.3170   64.8510    4.9450 C.ar  191  TYR191      0.1957
     79  OH       185.5490   65.7770    4.2340 O.3   191  TYR191     -0.2866
     80  N        191.9040   60.1940    6.7610 N.am  192  PRO192     -0.2716
     81  CA       192.7530   59.1970    7.4300 C.3   192  PRO192      0.1536
     82  C        192.7580   59.3100    8.9530 C.2   192  PRO192      0.2599
     83  O        192.9580   58.2920    9.6250 O.2   192  PRO192     -0.2715
     84  CB       194.1390   59.4420    6.8480 C.3   192  PRO192      0.0310
     85  CG       194.0130   60.5870    5.9040 C.3   192  PRO192      0.0237
     86  CD       192.5640   60.8240    5.6090 C.3   192  PRO192      0.0939
     87  N        192.6030   60.5060    9.5130 N.am  193  TYR193     -0.1960
     88  CA       192.6460   60.6500   10.9810 C.3   193  TYR193      0.1771
     89  C        191.3010   60.5090   11.6690 C.2   193  TYR193      0.2619
     90  O        191.2050   60.7080   12.8590 O.2   193  TYR193     -0.2715
     91  CB       193.2730   61.9900   11.3800 C.3   193  TYR193      0.0574
     92  CG       194.7460   62.0810   11.0470 C.ar  193  TYR193     -0.0198
     93  CD1      195.7020   61.4540   11.8510 C.ar  193  TYR193     -0.0009
     94  CD2      195.1750   62.7290    9.8980 C.ar  193  TYR193     -0.0009
     95  CE1      197.0440   61.4990   11.5230 C.ar  193  TYR193      0.0417
     96  CE2      196.5010   62.7960    9.5760 C.ar  193  TYR193      0.0417
     97  CZ       197.4310   62.1770   10.3780 C.ar  193  TYR193      0.1957
     98  OH       198.7590   62.2920   10.0380 O.3   193  TYR193     -0.2866
     99  N        190.2710   60.1390   10.9350 N.am  194  ALA194     -0.1977
    100  CA       188.9600   60.0030   11.5090 C.3   194  ALA194      0.1597
    101  C        188.9750   59.0320   12.6890 C.2   194  ALA194      0.2287
    102  O        188.0750   59.0800   13.5350 O.2   194  ALA194     -0.2864
    103  CB       187.9580   59.5420   10.4360 C.3   194  ALA194      0.0319
    104  N        190.7680   59.1930   15.1420 N.3   196  VAL196     -0.1231
    105  CA       191.0780   60.0580   16.2790 C.3   196  VAL196      0.1692
    106  C        189.7810   60.5810   16.8500 C.2   196  VAL196      0.2592
    107  O        189.7290   60.9600   18.0240 O.2   196  VAL196     -0.2718
    108  CB       192.0500   61.1920   15.8550 C.3   196  VAL196      0.0266
    109  CG1      192.2620   62.1870   16.8940 C.3   196  VAL196      0.0020
    110  CG2      193.3570   60.5680   15.4140 C.3   196  VAL196      0.0020
    111  N        188.7310   60.5620   16.0300 N.am  197  PHE197     -0.1976
    112  CA       187.4130   60.9880   16.4760 C.3   197  PHE197      0.1639
    113  C        186.6110   59.7900   16.9830 C.2   197  PHE197      0.2290
    114  O        186.0240   59.8520   18.0540 O.2   197  PHE197     -0.2864
    115  CB       186.6730   61.6940   15.3510 C.3   197  PHE197      0.0560
    116  CG       185.2800   62.1610   15.7030 C.ar  197  PHE197     -0.0200
    117  CD1      184.2300   61.2610   15.8060 C.ar  197  PHE197     -0.0042
    118  CD2      185.0040   63.5220   15.8380 C.ar  197  PHE197     -0.0042
    119  CE1      182.9320   61.7000   16.0930 C.ar  197  PHE197     -0.0003
    120  CE2      183.7020   63.9780   16.1200 C.ar  197  PHE197     -0.0003
    121  CZ       182.6650   63.0710   16.2360 C.ar  197  PHE197     -0.0000
    122  N        188.3100   57.5410   20.5430 N.3   200  PRO200     -0.2116
    123  CA       187.9680   58.2160   21.8050 C.3   200  PRO200      0.1372
    124  C        186.4780   58.2240   22.0880 C.2   200  PRO200      0.2244
    125  O        186.1120   57.7890   23.1670 O.2   200  PRO200     -0.2868
    126  CB       188.5080   59.6230   21.5990 C.3   200  PRO200      0.0268
    127  CG       189.7440   59.3970   20.7720 C.3   200  PRO200      0.0207
    128  CD       189.3110   58.3280   19.7860 C.3   200  PRO200      0.0892
@<TRIPOS>BOND
     1    60    58    1
     2    59    58    1
     3    58    57    2
     4    57    56    1
     5    56    55    1
     6    67    65    1
     7    53    52    2
     8    55    54    1
     9    51    54    1
    10    51    52    1
    11    51    50    1
    12    66    65    1
    13    65    62    1
    14    62    61    1
    15    62    63    1
    16    64    63    2
    17    63    68   am
    18    79    78    1
    19    78    76   ar
    20    78    77   ar
    21    68    69    1
    22    76    74   ar
    23    77    75   ar
    24    86    85    1
    25    86    80    1
    26    85    84    1
    27    42    41    2
    28    74    73   ar
    29    75    73   ar
    30    69    70    1
    31    69    72    1
    32    73    72    1
    33    41    40    1
    34    80    70   am
    35    80    81    1
    36    84    81    1
    37    70    71    2
    38    81    82    1
    39    40    43    1
    40    40    39    1
    41    34    33    2
    42    43    44    1
    43    39    33   am
    44    33    32    1
    45    45    44   ar
    46    45    47   ar
    47    82    87   am
    48    82    83    2
    49    44    46   ar
    50    87    88    1
    51    96    94   ar
    52    96    97   ar
    53    47    49   ar
    54    32    31    1
    55    32    35    1
    56    94    92   ar
    57    98    97    1
    58    97    95   ar
    59   103   100    1
    60    46    48   ar
    61    35    36    1
    62    99   100    1
    63    99    89   am
    64    88    91    1
    65    88    89    1
    66    49    48   ar
    67    92    91    1
    68    92    93   ar
    69   100   101    1
    70    95    93   ar
    71    38    36    1
    72    89    90    2
    73    36    37    1
    74   101   102    2
    75    26    25    2
    76    25    24    1
    77   104   105    1
    78   115   116    1
    79   115   112    1
    80   110   108    1
    81    24    23    1
    82    24    27    1
    83   116   117   ar
    84   116   118   ar
    85   117   119   ar
    86   118   120   ar
    87   108   105    1
    88   108   109    1
    89   111   112    1
    90   111   106   am
    91   119   121   ar
    92   120   121   ar
    93   105   106    1
    94    15    14    2
    95   112   113    1
    96    27    28    1
    97   106   107    2
    98   113   114    2
    99    28    29    1
   100    14    13    1
   101    30    29    1
   102    13    16    1
   103    13    12    1
   104    16    17    1
   105    19    17   ar
   106    19    21   ar
   107   128   122    1
   108   128   127    1
   109    17    18   ar
   110    21    22   ar
   111   122   123    1
   112   127   126    1
   113    18    20   ar
   114    22    20   ar
   115   126   123    1
   116   123   124    1
   117   124   125    2
   118     4     3    2
   119     3     2    1
   120    10     8   ar
   121    10    11   ar
   122     8     6   ar
   123    11     9   ar
   124     2     5    1
   125     2     1    1
   126     6     5    1
   127     6     7   ar
   128     9     7   ar
