@<TRIPOS>MOLECULE
tmp/4ms3A00.pdb
 96 92 0 0 0
SMALL
GASTEIGER

@<TRIPOS>ATOM
      1  N        -24.4370   22.4020  -32.6400 N.3    16  TRP16      -0.1241
      2  CA       -24.8970   21.2140  -33.3390 C.3    16  TRP16       0.1605
      3  C        -26.3540   21.4450  -33.7250 C.2    16  TRP16       0.2264
      4  O        -27.2210   21.3730  -32.8570 O.2    16  TRP16      -0.2867
      5  CB       -24.7340   19.9590  -32.4680 C.3    16  TRP16       0.0550
      6  CG       -25.3150   18.7060  -33.0610 C.ar   16  TRP16       0.0003
      7  CD1      -24.9030   18.0660  -34.1900 C.ar   16  TRP16       0.0946
      8  CD2      -26.4170   17.9460  -32.5440 C.ar   16  TRP16       0.0152
      9  NE1      -25.6660   16.9400  -34.4020 N.ar   16  TRP16      -0.2442
     10  CE2      -26.6020   16.8420  -33.4060 C.ar   16  TRP16       0.0810
     11  CE3      -27.2710   18.0940  -31.4320 C.ar   16  TRP16       0.0012
     12  CZ2      -27.6140   15.8990  -33.2050 C.ar   16  TRP16       0.0191
     13  CZ3      -28.2590   17.1460  -31.2180 C.ar   16  TRP16       0.0001
     14  CH2      -28.4270   16.0640  -32.0980 C.ar   16  TRP16       0.0015
     15  N        -28.6200   19.1460  -27.4500 N.3    73  CYS73      -0.1221
     16  CA       -27.2210   19.5280  -27.1790 C.3    73  CYS73       0.1808
     17  C        -26.7510   19.0810  -25.8130 C.2    73  CYS73       0.2601
     18  O        -27.5290   19.1080  -24.8640 O.2    73  CYS73      -0.2717
     19  CB       -27.0360   21.0600  -27.2340 C.3    73  CYS73       0.0970
     20  SG       -27.5290   21.8670  -28.7500 S.3    73  CYS73      -0.0800
     21  N        -25.4460   18.8250  -25.6790 N.am   74  SER74      -0.1952
     22  CA       -24.8260   18.5040  -24.4030 C.3    74  SER74       0.1924
     23  C        -24.9770   19.6720  -23.4030 C.2    74  SER74       0.2314
     24  O        -25.3180   19.4080  -22.2580 O.2    74  SER74      -0.2863
     25  CB       -23.3490   18.1620  -24.5930 C.3    74  SER74       0.2116
     26  OG       -23.1940   16.8400  -25.0740 O.3    74  SER74      -0.2180
     27  N        -29.4840   13.5240  -28.2480 N.3    95  GLY95      -0.1225
     28  CA       -28.2700   14.0120  -28.8910 C.3    95  GLY95       0.1811
     29  C        -27.0580   14.3320  -28.0400 C.2    95  GLY95       0.2280
     30  O        -26.0070   14.6540  -28.5900 O.2    95  GLY95      -0.2866
     31  N        -23.7600   13.8800  -26.1630 N.3    97  SER97      -0.1217
     32  CA       -22.6180   12.9550  -26.0910 C.3    97  SER97       0.1889
     33  C        -21.7130   13.1780  -24.8850 C.2    97  SER97       0.2288
     34  O        -20.7970   12.3740  -24.6680 O.2    97  SER97      -0.2866
     35  CB       -21.7680   13.0890  -27.3480 C.3    97  SER97       0.2089
     36  OG       -21.1550   14.3670  -27.3670 O.3    97  SER97      -0.2183
     37  N        -28.1980    8.6320  -27.0430 N.3   114  HIS114     -0.1241
     38  CA       -26.9350    8.9530  -27.6810 C.3   114  HIS114      0.1621
     39  C        -25.8160    8.2940  -26.8410 C.2   114  HIS114      0.2264
     40  O        -25.8150    8.4390  -25.6210 O.2   114  HIS114     -0.2867
     41  CB       -26.7180   10.4850  -27.7840 C.3   114  HIS114      0.0745
     42  CG       -25.6210   10.8780  -28.7310 C.ar  114  HIS114      0.0817
     43  ND1      -24.3040   10.5810  -28.4680 N.ar  114  HIS114     -0.2268
     44  CD2      -25.6930   11.5390  -29.9110 C.ar  114  HIS114      0.1154
     45  CE1      -23.6180   11.0460  -29.4980 C.ar  114  HIS114      0.1986
     46  NE2      -24.4130   11.6320  -30.3890 N.ar  114  HIS114     -0.2212
     47  N        -18.6100   18.9590  -22.7680 N.3   145  VAL145     -0.1245
     48  CA       -18.6380   17.7990  -23.6620 C.3   145  VAL145      0.1561
     49  C        -17.2140   17.4410  -24.1340 C.2   145  VAL145      0.2260
     50  O        -16.8170   16.2740  -24.0730 O.2   145  VAL145     -0.2867
     51  CB       -19.6600   17.9420  -24.8420 C.3   145  VAL145      0.0252
     52  CG1      -19.5540   19.2970  -25.5400 C.3   145  VAL145      0.0019
     53  CG2      -19.5430   16.7920  -25.8470 C.3   145  VAL145      0.0019
     54  N        -17.1420   22.1930  -31.7310 N.3   194  TYR194     -0.1241
     55  CA       -18.2500   22.1400  -32.6650 C.3   194  TYR194      0.1605
     56  C        -17.7960   22.6540  -34.0190 C.2   194  TYR194      0.2264
     57  O        -16.7690   23.3140  -34.1150 O.2   194  TYR194     -0.2867
     58  CB       -19.4470   22.9390  -32.1410 C.3   194  TYR194      0.0534
     59  CG       -20.1770   22.2460  -31.0190 C.ar  194  TYR194     -0.0201
     60  CD1      -20.8240   21.0340  -31.2300 C.ar  194  TYR194     -0.0009
     61  CD2      -20.2220   22.7970  -29.7430 C.ar  194  TYR194     -0.0009
     62  CE1      -21.4920   20.3820  -30.1990 C.ar  194  TYR194      0.0417
     63  CE2      -20.8740   22.1490  -28.7030 C.ar  194  TYR194      0.0417
     64  CZ       -21.5100   20.9450  -28.9350 C.ar  194  TYR194      0.1957
     65  OH       -22.1380   20.2930  -27.9010 O.3   194  TYR194     -0.2866
     66  N        -19.0190   14.1740  -36.9120 N.3   222  TRP222     -0.1241
     67  CA       -20.4350   14.4460  -37.1100 C.3   222  TRP222      0.1605
     68  C        -20.7810   15.8470  -37.6340 C.2   222  TRP222      0.2264
     69  O        -21.9550   16.1980  -37.6920 O.2   222  TRP222     -0.2867
     70  CB       -21.3580   13.8690  -36.0070 C.3   222  TRP222      0.0550
     71  CG       -20.8780   14.0750  -34.6010 C.ar  222  TRP222      0.0003
     72  CD1      -20.4760   13.1120  -33.7220 C.ar  222  TRP222      0.0946
     73  CD2      -20.8330   15.3150  -33.8940 C.ar  222  TRP222      0.0152
     74  NE1      -20.1240   13.6940  -32.5240 N.ar  222  TRP222     -0.2442
     75  CE2      -20.3390   15.0440  -32.6040 C.ar  222  TRP222      0.0810
     76  CE3      -21.1500   16.6380  -34.2360 C.ar  222  TRP222      0.0012
     77  CZ2      -20.1510   16.0580  -31.6530 C.ar  222  TRP222      0.0191
     78  CZ3      -20.9580   17.6340  -33.3030 C.ar  222  TRP222      0.0001
     79  CH2      -20.4700   17.3460  -32.0280 C.ar  222  TRP222      0.0015
     80  N        -24.6250    4.8690  -35.6620 N.3   256  MET256     -0.1245
     81  CA       -25.9070    5.0140  -34.9620 C.3   256  MET256      0.1570
     82  C        -27.0740    4.3090  -35.6550 C.2   256  MET256      0.2261
     83  O        -28.1500    4.2420  -35.0930 O.2   256  MET256     -0.2867
     84  CB       -26.2630    6.4980  -34.7640 C.3   256  MET256      0.0387
     85  CG       -25.2050    7.3330  -34.0750 C.3   256  MET256      0.0595
     86  SD       -24.7920    7.0760  -32.3600 S.3   256  MET256     -0.1393
     87  CE       -23.9850    8.6220  -32.0510 C.3   256  MET256      0.0692
     88  N        -27.8370   11.4390  -36.3820 N.3   287  GLU287     -0.1245
     89  CA       -28.3730   11.2250  -35.0210 C.3   287  GLU287      0.1567
     90  C        -29.8680   10.9350  -34.9930 C.2   287  GLU287      0.2260
     91  O        -30.3610   10.4410  -33.9800 O.2   287  GLU287     -0.2867
     92  CB       -28.0460   12.4020  -34.0760 C.3   287  GLU287      0.0388
     93  CG       -26.5670   12.6240  -33.8460 C.3   287  GLU287      0.1160
     94  CD       -25.8330   13.4490  -34.8890 C.2   287  GLU287      0.3649
     95  OE1      -26.4390   13.8310  -35.9150 O.co2 287  GLU287     -0.2457
     96  OE2      -24.6380   13.7190  -34.6610 O.co2 287  GLU287     -0.2457
@<TRIPOS>BOND
     1    69    68    2
     2    68    67    1
     3    67    66    1
     4    67    70    1
     5    88    89    1
     6    70    71    1
     7    95    94   ar
     8    80    81    1
     9    82    83    2
    10    82    81    1
    11    89    90    1
    12    89    92    1
    13    90    91    2
    14    81    84    1
    15    94    96   ar
    16    94    93    1
    17    84    85    1
    18    71    73   ar
    19    71    72   ar
    20     9     7   ar
    21     9    10   ar
    22    76    73   ar
    23    76    78   ar
    24     7     6   ar
    25    57    56    2
    26    92    93    1
    27    85    86    1
    28    56    55    1
    29    73    75   ar
    30     3     2    1
    31     3     4    2
    32    72    74   ar
    33    10    12   ar
    34    10     8   ar
    35     2     1    1
    36     2     5    1
    37    78    79   ar
    38    12    14   ar
    39     6     8   ar
    40     6     5    1
    41    55    58    1
    42    55    54    1
    43    75    74   ar
    44    75    77   ar
    45     8    11   ar
    46    86    87    1
    47    58    59    1
    48    14    13   ar
    49    79    77   ar
    50    11    13   ar
    51    60    59   ar
    52    60    62   ar
    53    59    61   ar
    54    46    44   ar
    55    46    45   ar
    56    62    64   ar
    57    44    42   ar
    58    61    63   ar
    59    45    43   ar
    60    64    63   ar
    61    64    65    1
    62    28    27    1
    63    28    29    1
    64    20    19    1
    65    42    43   ar
    66    42    41    1
    67    30    29    2
    68    41    38    1
    69    38    37    1
    70    38    39    1
    71    15    16    1
    72    36    35    1
    73    35    32    1
    74    19    16    1
    75    16    17    1
    76    39    40    2
    77    31    32    1
    78    32    33    1
    79    53    51    1
    80    17    21   am
    81    17    18    2
    82    21    22    1
    83    52    51    1
    84    26    25    1
    85    33    34    2
    86    51    48    1
    87    25    22    1
    88    22    23    1
    89    49    50    2
    90    49    48    1
    91    48    47    1
    92    23    24    2
