@<TRIPOS>MOLECULE
tmp/4ms4A00.pdb
 148 146 0 0 0
SMALL
GASTEIGER

@<TRIPOS>ATOM
      1  N        -23.9870   25.3900  -32.3310 N.3    15  GLY15      -0.1210
      2  CA       -22.9230   24.3760  -32.3220 C.3    15  GLY15       0.1956
      3  C        -23.2220   23.1440  -33.1570 C.2    15  GLY15       0.2611
      4  O        -22.5000   22.8270  -34.1020 O.2    15  GLY15      -0.2717
      5  N        -24.3110   22.4760  -32.8280 N.am   16  TRP16      -0.1976
      6  CA       -24.8070   21.3140  -33.5460 C.3    16  TRP16       0.1640
      7  C        -26.2720   21.5870  -33.9090 C.2    16  TRP16       0.2290
      8  O        -27.1290   21.4950  -33.0330 O.2    16  TRP16      -0.2864
      9  CB       -24.7160   20.0610  -32.6790 C.3    16  TRP16       0.0576
     10  CG       -25.3160   18.8430  -33.3180 C.ar   16  TRP16       0.0006
     11  CD1      -24.9190   18.2450  -34.4810 C.ar   16  TRP16       0.0946
     12  CD2      -26.4220   18.0800  -32.8310 C.ar   16  TRP16       0.0152
     13  NE1      -25.6900   17.1360  -34.7270 N.ar   16  TRP16      -0.2442
     14  CE2      -26.6220   17.0110  -33.7370 C.ar   16  TRP16       0.0810
     15  CE3      -27.2640   18.1830  -31.7050 C.ar   16  TRP16       0.0012
     16  CZ2      -27.5960   16.0340  -33.5310 C.ar   16  TRP16       0.0191
     17  CZ3      -28.2180   17.1990  -31.4950 C.ar   16  TRP16       0.0001
     18  CH2      -28.3790   16.1410  -32.4010 C.ar   16  TRP16       0.0015
     19  N        -28.4550   19.0870  -27.7140 N.3    80  CYS80      -0.1221
     20  CA       -27.0330   19.4770  -27.5460 C.3    80  CYS80       0.1808
     21  C        -26.5070   19.0870  -26.1650 C.2    80  CYS80       0.2601
     22  O        -27.2570   19.1180  -25.2010 O.2    80  CYS80      -0.2717
     23  CB       -26.8510   20.9900  -27.7950 C.3    80  CYS80       0.0970
     24  SG       -26.8770   21.4550  -29.5570 S.3    80  CYS80      -0.0800
     25  N        -25.1880   18.8580  -26.0480 N.am   81  SER81      -0.1952
     26  CA       -24.5480   18.5580  -24.7680 C.3    81  SER81       0.1924
     27  C        -24.6970   19.7120  -23.7570 C.2    81  SER81       0.2314
     28  O        -25.0240   19.4430  -22.5990 O.2    81  SER81      -0.2863
     29  CB       -23.0630   18.2670  -24.9530 C.3    81  SER81       0.2116
     30  OG       -22.9430   16.9410  -25.4410 O.3    81  SER81      -0.2180
     31  N        -29.3530   13.5380  -28.4670 N.3   102  GLY102     -0.1225
     32  CA       -28.1660   14.0370  -29.1430 C.3   102  GLY102      0.1811
     33  C        -26.9080   14.3140  -28.3480 C.2   102  GLY102      0.2280
     34  O        -25.8810   14.5960  -28.9610 O.2   102  GLY102     -0.2866
     35  N        -23.5330   13.9620  -26.4890 N.3   104  SER104     -0.1217
     36  CA       -22.3920   13.0480  -26.4260 C.3   104  SER104      0.1889
     37  C        -21.4700   13.2920  -25.2100 C.2   104  SER104      0.2288
     38  O        -20.5550   12.4960  -24.9970 O.2   104  SER104     -0.2866
     39  CB       -21.5730   13.1910  -27.7010 C.3   104  SER104      0.2089
     40  OG       -20.9280   14.4530  -27.6850 O.3   104  SER104     -0.2183
     41  N        -27.9370    8.7020  -27.4260 N.3   121  HIS121     -0.1241
     42  CA       -26.6860    9.0310  -28.0910 C.3   121  HIS121      0.1621
     43  C        -25.5410    8.3970  -27.2970 C.2   121  HIS121      0.2264
     44  O        -25.5210    8.5220  -26.0780 O.2   121  HIS121     -0.2867
     45  CB       -26.4800   10.5670  -28.1840 C.3   121  HIS121      0.0745
     46  CG       -25.3890   10.9840  -29.1460 C.ar  121  HIS121      0.0817
     47  ND1      -24.0560   10.7060  -28.8960 N.ar  121  HIS121     -0.2268
     48  CD2      -25.4750   11.6880  -30.2990 C.ar  121  HIS121      0.1154
     49  CE1      -23.3830   11.1960  -29.9250 C.ar  121  HIS121      0.1986
     50  NE2      -24.1910   11.8370  -30.7730 N.ar  121  HIS121     -0.2212
     51  N        -19.1450   10.3300  -26.1030 N.3   124  ALA124     -0.1245
     52  CA       -18.0460   10.6960  -27.0120 C.3   124  ALA124      0.1562
     53  C        -16.7650    9.8940  -26.6850 C.2   124  ALA124      0.2260
     54  O        -15.8210    9.9060  -27.4850 O.2   124  ALA124     -0.2867
     55  CB       -17.7440   12.1890  -26.9160 C.3   124  ALA124      0.0290
     56  N        -18.3550   19.0140  -22.9970 N.3   152  VAL152     -0.1231
     57  CA       -18.3830   17.8550  -23.9150 C.3   152  VAL152      0.1692
     58  C        -16.9340   17.4930  -24.3900 C.2   152  VAL152      0.2592
     59  O        -16.5400   16.3330  -24.3640 O.2   152  VAL152     -0.2718
     60  CB       -19.3800   18.0630  -25.1200 C.3   152  VAL152      0.0266
     61  CG1      -19.1820   19.4130  -25.7910 C.3   152  VAL152      0.0020
     62  CG2      -19.2730   16.9270  -26.1450 C.3   152  VAL152      0.0020
     63  N        -16.1650   18.4950  -24.7890 N.am  153  PHE153     -0.1976
     64  CA       -14.8090   18.3310  -25.2990 C.3   153  PHE153      0.1639
     65  C        -13.8060   18.1100  -24.1920 C.2   153  PHE153      0.2290
     66  O        -12.9880   17.2060  -24.3020 O.2   153  PHE153     -0.2864
     67  CB       -14.4050   19.5190  -26.2000 C.3   153  PHE153      0.0560
     68  CG       -15.4190   19.7830  -27.2930 C.ar  153  PHE153     -0.0200
     69  CD1      -15.8350   18.7590  -28.1440 C.ar  153  PHE153     -0.0042
     70  CD2      -16.0270   21.0330  -27.4130 C.ar  153  PHE153     -0.0042
     71  CE1      -16.8280   18.9910  -29.1110 C.ar  153  PHE153     -0.0003
     72  CE2      -17.0260   21.2590  -28.3720 C.ar  153  PHE153     -0.0003
     73  CZ       -17.4070   20.2450  -29.2180 C.ar  153  PHE153     -0.0000
     74  N        -13.8770   20.3730  -31.1930 N.3   200  PHE200     -0.1227
     75  CA       -14.6880   21.6010  -31.2350 C.3   200  PHE200      0.1736
     76  C        -15.8650   21.4120  -32.1750 C.2   200  PHE200      0.2595
     77  O        -15.8450   20.5150  -33.0240 O.2   200  PHE200     -0.2718
     78  CB       -13.8670   22.8390  -31.6910 C.3   200  PHE200      0.0547
     79  CG       -12.6550   22.5220  -32.5420 C.ar  200  PHE200     -0.0202
     80  CD1      -12.7960   22.1560  -33.8760 C.ar  200  PHE200     -0.0042
     81  CD2      -11.3840   22.5120  -31.9890 C.ar  200  PHE200     -0.0042
     82  CE1      -11.6760   21.8080  -34.6460 C.ar  200  PHE200     -0.0003
     83  CE2      -10.2750   22.1440  -32.7530 C.ar  200  PHE200     -0.0003
     84  CZ       -10.4300   21.7890  -34.0790 C.ar  200  PHE200     -0.0000
     85  N        -16.8680   22.2950  -32.0650 N.am  201  TYR201     -0.1962
     86  CA       -18.0130   22.2390  -32.9890 C.3   201  TYR201      0.1771
     87  C        -17.5820   22.8100  -34.3330 C.2   201  TYR201      0.2619
     88  O        -16.5390   23.4660  -34.4240 O.2   201  TYR201     -0.2715
     89  CB       -19.2220   23.0150  -32.4380 C.3   201  TYR201      0.0574
     90  CG       -19.9150   22.2930  -31.3100 C.ar  201  TYR201     -0.0198
     91  CD1      -20.5760   21.0790  -31.5300 C.ar  201  TYR201     -0.0009
     92  CD2      -19.9260   22.8200  -30.0240 C.ar  201  TYR201     -0.0009
     93  CE1      -21.2360   20.4220  -30.4950 C.ar  201  TYR201      0.0417
     94  CE2      -20.5550   22.1560  -28.9790 C.ar  201  TYR201      0.0417
     95  CZ       -21.2000   20.9560  -29.2160 C.ar  201  TYR201      0.1957
     96  OH       -21.8380   20.3490  -28.1680 O.3   201  TYR201     -0.2866
     97  N        -18.3840   22.5590  -35.3730 N.am  202  GLU202     -0.1977
     98  CA       -18.1190   23.0140  -36.7350 C.3   202  GLU202      0.1602
     99  C        -17.8050   24.4890  -36.8310 C.2   202  GLU202      0.2287
    100  O        -16.8620   24.8350  -37.5250 O.2   202  GLU202     -0.2864
    101  CB       -19.3050   22.6590  -37.6550 C.3   202  GLU202      0.0415
    102  CG       -19.0090   22.8600  -39.1290 C.3   202  GLU202      0.1163
    103  CD       -20.2110   22.5920  -40.0110 C.2   202  GLU202      0.3649
    104  OE1      -20.8380   21.5250  -39.8530 O.co2 202  GLU202     -0.2457
    105  OE2      -20.5060   23.4330  -40.8870 O.co2 202  GLU202     -0.2457
    106  N        -13.6110   15.5060  -35.1140 N.3   227  ILE227     -0.1245
    107  CA       -14.8840   14.8250  -34.9090 C.3   227  ILE227      0.1561
    108  C        -15.6190   14.8480  -36.2800 C.2   227  ILE227      0.2260
    109  O        -15.6430   15.8940  -36.9280 O.2   227  ILE227     -0.2867
    110  CB       -15.6720   15.5480  -33.7780 C.3   227  ILE227      0.0252
    111  CG1      -14.8740   15.4530  -32.4480 C.3   227  ILE227      0.0019
    112  CG2      -17.0360   14.9100  -33.5860 C.3   227  ILE227      0.0019
    113  CD1      -15.3890   16.4460  -31.3190 C.3   227  ILE227      0.0001
    114  N        -18.7410   14.8450  -37.1800 N.3   229  TRP229     -0.1227
    115  CA       -20.1510   15.2420  -37.2100 C.3   229  TRP229      0.1737
    116  C        -20.4620   16.5050  -38.0270 C.2   229  TRP229      0.2595
    117  O        -21.6140   16.9090  -38.0920 O.2   229  TRP229     -0.2718
    118  CB       -20.7080   15.3910  -35.7840 C.3   229  TRP229      0.0564
    119  CG       -20.7320   14.1340  -34.9620 C.ar  229  TRP229      0.0003
    120  CD1      -20.2700   13.9920  -33.6810 C.ar  229  TRP229      0.0946
    121  CD2      -21.2920   12.8570  -35.3320 C.ar  229  TRP229      0.0152
    122  NE1      -20.5060   12.7160  -33.2320 N.ar  229  TRP229     -0.2442
    123  CE2      -21.1360   11.9970  -34.2190 C.ar  229  TRP229      0.0810
    124  CE3      -21.9220   12.3570  -36.4980 C.ar  229  TRP229      0.0012
    125  CZ2      -21.5540   10.6600  -34.2400 C.ar  229  TRP229      0.0191
    126  CZ3      -22.3430   11.0350  -36.5190 C.ar  229  TRP229      0.0001
    127  CH2      -22.1770   10.2040  -35.4000 C.ar  229  TRP229      0.0015
    128  N        -19.4660   17.1160  -38.6550 N.am  230  TYR230     -0.1976
    129  CA       -19.6670   18.3550  -39.4000 C.3   230  TYR230      0.1639
    130  C        -20.3420   18.0830  -40.7460 C.2   230  TYR230      0.2290
    131  O        -20.3030   16.9550  -41.2350 O.2   230  TYR230     -0.2864
    132  CB       -18.3060   19.0020  -39.7340 C.3   230  TYR230      0.0560
    133  CG       -17.3470   19.2240  -38.5800 C.ar  230  TYR230     -0.0198
    134  CD1      -17.8040   19.3190  -37.2700 C.ar  230  TYR230     -0.0009
    135  CD2      -15.9960   19.4570  -38.8160 C.ar  230  TYR230     -0.0009
    136  CE1      -16.9260   19.5470  -36.2090 C.ar  230  TYR230      0.0417
    137  CE2      -15.1080   19.6950  -37.7640 C.ar  230  TYR230      0.0417
    138  CZ       -15.5850   19.7700  -36.4660 C.ar  230  TYR230      0.1957
    139  OH       -14.7060   20.0140  -35.4340 O.3   230  TYR230     -0.2866
    140  N        -27.8090   11.6320  -36.7200 N.3   300  GLU300     -0.1245
    141  CA       -28.3470   11.4060  -35.3570 C.3   300  GLU300      0.1567
    142  C        -29.8490   11.1110  -35.3070 C.2   300  GLU300      0.2260
    143  O        -30.3440   10.6130  -34.2970 O.2   300  GLU300     -0.2867
    144  CB       -28.0200   12.5940  -34.4200 C.3   300  GLU300      0.0388
    145  CG       -26.5290   12.8100  -34.2130 C.3   300  GLU300      0.1160
    146  CD       -25.8280   13.6550  -35.2610 C.2   300  GLU300      0.3649
    147  OE1      -26.4670   14.0360  -36.2710 O.co2 300  GLU300     -0.2457
    148  OE2      -24.6340   13.9620  -35.0570 O.co2 300  GLU300     -0.2457
@<TRIPOS>BOND
     1   131   130    2
     2   105   103   ar
     3   130   129    1
     4   103   104   ar
     5   103   102    1
     6   132   129    1
     7   132   133    1
     8   129   128    1
     9   102   101    1
    10   135   133   ar
    11   135   137   ar
    12   128   116   am
    13   133   134   ar
    14   117   116    2
    15   116   115    1
    16   137   138   ar
    17   101    98    1
    18   100    99    2
    19   134   136   ar
    20   115   114    1
    21   115   118    1
    22   109   108    2
    23    99    98    1
    24    98    97    1
    25   140   141    1
    26   126   124   ar
    27   126   127   ar
    28   124   121   ar
    29   138   136   ar
    30   138   139    1
    31   108   107    1
    32   147   146   ar
    33   118   119    1
    34   127   125   ar
    35    97    87   am
    36   141   142    1
    37   141   144    1
    38   121   119   ar
    39   121   123   ar
    40   142   143    2
    41   146   148   ar
    42   146   145    1
    43   106   107    1
    44   119   120   ar
    45   107   110    1
    46    13    11   ar
    47    13    14   ar
    48    82    84   ar
    49    82    80   ar
    50    11    10   ar
    51    88    87    2
    52   144   145    1
    53    87    86    1
    54   125   123   ar
    55   123   122   ar
    56     4     3    2
    57    84    83   ar
    58     7     6    1
    59     7     8    2
    60    80    79   ar
    61   110   112    1
    62   110   111    1
    63    14    16   ar
    64    14    12   ar
    65   120   122   ar
    66     6     5    1
    67     6     9    1
    68    16    18   ar
    69    10    12   ar
    70    10     9    1
    71     3     5   am
    72     3     2    1
    73    77    76    2
    74    86    89    1
    75    86    85    1
    76    12    15   ar
    77    83    81   ar
    78    79    81   ar
    79    79    78    1
    80   111   113    1
    81    89    90    1
    82    18    17   ar
    83     1     2    1
    84    76    85   am
    85    76    75    1
    86    15    17   ar
    87    78    75    1
    88    91    90   ar
    89    91    93   ar
    90    90    92   ar
    91    75    74    1
    92    50    48   ar
    93    50    49   ar
    94    93    95   ar
    95    48    46   ar
    96    92    94   ar
    97    49    47   ar
    98    24    23    1
    99    73    71   ar
   100    73    72   ar
   101    95    94   ar
   102    95    96    1
   103    46    47   ar
   104    46    45    1
   105    32    31    1
   106    32    33    1
   107    71    69   ar
   108    34    33    2
   109    72    70   ar
   110    45    42    1
   111    69    68   ar
   112    42    41    1
   113    42    43    1
   114    23    20    1
   115    19    20    1
   116    39    40    1
   117    39    36    1
   118    20    21    1
   119    54    53    2
   120    70    68   ar
   121    43    44    2
   122    68    67    1
   123    52    55    1
   124    52    53    1
   125    52    51    1
   126    35    36    1
   127    36    37    1
   128    67    64    1
   129    21    25   am
   130    21    22    2
   131    62    60    1
   132    25    26    1
   133    61    60    1
   134    30    29    1
   135    64    63    1
   136    64    65    1
   137    37    38    2
   138    60    57    1
   139    29    26    1
   140    63    58   am
   141    26    27    1
   142    58    59    2
   143    58    57    1
   144    66    65    2
   145    57    56    1
   146    27    28    2
