@<TRIPOS>MOLECULE
tmp/4ms8C00.pdb
 165 163 0 0 0
SMALL
GASTEIGER

@<TRIPOS>ATOM
      1  N         72.2170   -2.1810    6.3960 N.3    65  GLN65      -0.1245
      2  CA        73.3470   -2.9320    6.9160 C.3    65  GLN65       0.1566
      3  C         74.2660   -2.1030    7.7860 C.2    65  GLN65       0.2260
      4  O         74.7100   -2.5900    8.8210 O.2    65  GLN65      -0.2867
      5  CB        74.1620   -3.5510    5.7740 C.3    65  GLN65       0.0367
      6  CG        73.5480   -4.8170    5.1730 C.3    65  GLN65       0.0905
      7  CD        73.3080   -5.8850    6.2140 C.2    65  GLN65       0.2608
      8  OE1       72.1750   -6.0950    6.6590 O.2    65  GLN65      -0.2717
      9  NE2       74.3750   -6.5680    6.6200 N.am   65  GLN65      -0.0878
     10  N         72.6330   -1.9400   11.1480 N.3    68  TRP68      -0.1241
     11  CA        72.7530   -3.2090   11.8450 C.3    68  TRP68       0.1605
     12  C         74.1740   -3.3420   12.4040 C.2    68  TRP68       0.2264
     13  O         74.4020   -3.9130   13.4840 O.2    68  TRP68      -0.2867
     14  CB        72.4290   -4.3650   10.8790 C.3    68  TRP68       0.0550
     15  CG        72.5460   -5.6890   11.5120 C.ar   68  TRP68       0.0003
     16  CD1       71.5520   -6.4110   12.1100 C.ar   68  TRP68       0.0946
     17  CD2       73.7350   -6.4800   11.6140 C.ar   68  TRP68       0.0152
     18  NE1       72.0590   -7.6090   12.5800 N.ar   68  TRP68      -0.2442
     19  CE2       73.3970   -7.6620   12.2990 C.ar   68  TRP68       0.0810
     20  CE3       75.0540   -6.2980   11.1970 C.ar   68  TRP68       0.0012
     21  CZ2       74.3290   -8.6570   12.5630 C.ar   68  TRP68       0.0191
     22  CZ3       75.9750   -7.2730   11.4700 C.ar   68  TRP68       0.0001
     23  CH2       75.6160   -8.4400   12.1480 C.ar   68  TRP68       0.0015
     24  N         74.6340   -0.9550   15.5350 N.3    71  VAL71      -0.1231
     25  CA        73.9660   -1.5540   16.6750 C.3    71  VAL71       0.1692
     26  C         74.8090   -2.7260   17.1950 C.2    71  VAL71       0.2592
     27  O         75.1400   -2.7840   18.3750 O.2    71  VAL71      -0.2718
     28  CB        72.5210   -1.9480   16.3400 C.3    71  VAL71       0.0266
     29  CG1       71.8510   -2.6550   17.5280 C.3    71  VAL71       0.0020
     30  CG2       71.7380   -0.6980   15.9310 C.3    71  VAL71       0.0020
     31  N         75.2340   -3.6220   16.3150 N.am   72  ASN72      -0.1974
     32  CA        75.9760   -4.7690   16.8160 C.3    72  ASN72       0.1688
     33  C         77.4280   -4.5090   17.2080 C.2    72  ASN72       0.2292
     34  O         77.9670   -5.2220   18.0430 O.2    72  ASN72      -0.2864
     35  CB        75.8510   -5.9510   15.8640 C.3    72  ASN72       0.1181
     36  CG        74.4320   -6.3860   15.7090 C.2    72  ASN72       0.2629
     37  OD1       73.9560   -7.2700   16.4250 O.2    72  ASN72      -0.2716
     38  ND2       73.7340   -5.7610   14.7770 N.am   72  ASN72      -0.0877
     39  N         77.0960   -3.0350   20.4460 N.3    75  THR75      -0.1203
     40  CA        76.6200   -4.1380   21.2470 C.3    75  THR75       0.1994
     41  C         77.8190   -4.8280   21.7820 C.2    75  THR75       0.2617
     42  O         77.9440   -5.0120   22.9890 O.2    75  THR75      -0.2717
     43  CB        75.8180   -5.1080   20.4030 C.3    75  THR75       0.1784
     44  OG1       74.6220   -4.4480   19.9780 O.3    75  THR75      -0.2211
     45  CG2       75.4890   -6.4060   21.1790 C.3    75  THR75       0.0376
     46  N         78.7230   -5.1770   20.8650 N.am   76  LEU76      -0.1979
     47  CA        79.9590   -5.8680   21.1980 C.3    76  LEU76       0.1596
     48  C         80.8850   -5.0860   22.1570 C.2    76  LEU76       0.2287
     49  O         81.4310   -5.6780   23.0930 O.2    76  LEU76      -0.2864
     50  CB        80.6990   -6.2960   19.9110 C.3    76  LEU76       0.0297
     51  CG        80.0030   -7.3260   18.9990 C.3    76  LEU76       0.0022
     52  CD1       80.4170   -7.1330   17.5430 C.3    76  LEU76       0.0001
     53  CD2       80.2400   -8.7790   19.4210 C.3    76  LEU76       0.0001
     54  N         83.7880   -5.5050   12.5970 N.3    82  LEU82      -0.1245
     55  CA        82.7540   -6.5140   12.6600 C.3    82  LEU82       0.1561
     56  C         82.7420   -7.1050   11.2870 C.2    82  LEU82       0.2260
     57  O         82.7550   -6.3480   10.3130 O.2    82  LEU82      -0.2867
     58  CB        81.4060   -5.8490   12.9480 C.3    82  LEU82       0.0270
     59  CG        80.2510   -6.8480   13.0660 C.3    82  LEU82       0.0019
     60  CD1       80.6710   -8.0020   13.9830 C.3    82  LEU82       0.0001
     61  CD2       78.9710   -6.1580   13.5950 C.3    82  LEU82       0.0001
     62  N         80.8420   -9.9870    8.5700 N.3    84  TRP84      -0.1241
     63  CA        79.8470  -10.9650    8.2080 C.3    84  TRP84       0.1605
     64  C         80.2030  -11.4770    6.8290 C.2    84  TRP84       0.2264
     65  O         80.2720  -10.7090    5.8880 O.2    84  TRP84      -0.2867
     66  CB        78.4650  -10.3230    8.1930 C.3    84  TRP84       0.0550
     67  CG        77.3540  -11.2810    7.8690 C.ar   84  TRP84       0.0003
     68  CD1       77.3290  -12.6320    8.1090 C.ar   84  TRP84       0.0946
     69  CD2       76.1170  -10.9660    7.2370 C.ar   84  TRP84       0.0152
     70  NE1       76.1730  -13.1680    7.6350 N.ar   84  TRP84      -0.2442
     71  CE2       75.3890  -12.1640    7.1130 C.ar   84  TRP84       0.0810
     72  CE3       75.5490   -9.7790    6.7540 C.ar   84  TRP84       0.0012
     73  CZ2       74.1230  -12.2190    6.5330 C.ar   84  TRP84       0.0191
     74  CZ3       74.2990   -9.8260    6.1770 C.ar   84  TRP84       0.0001
     75  CH2       73.5870  -11.0390    6.0680 C.ar   84  TRP84       0.0015
     76  N         80.2130  -15.0960   11.3130 N.3   103  PHE103     -0.1241
     77  CA        80.2690  -13.8130   11.9820 C.3   103  PHE103      0.1605
     78  C         81.4940  -13.8230   12.8250 C.2   103  PHE103      0.2264
     79  O         81.7060  -14.7730   13.6180 O.2   103  PHE103     -0.2867
     80  CB        79.0290  -13.6080   12.8860 C.3   103  PHE103      0.0534
     81  CG        77.7450  -13.4040   12.1260 C.ar  103  PHE103     -0.0203
     82  CD1       77.3090  -12.1220   11.8080 C.ar  103  PHE103     -0.0042
     83  CD2       76.9710  -14.4840   11.7500 C.ar  103  PHE103     -0.0042
     84  CE1       76.1340  -11.9230   11.1360 C.ar  103  PHE103     -0.0003
     85  CE2       75.7710  -14.2970   11.0860 C.ar  103  PHE103     -0.0003
     86  CZ        75.3570  -13.0140   10.7630 C.ar  103  PHE103     -0.0000
     87  N         83.0850  -15.5590   15.9160 N.3   110  TYR110     -0.1227
     88  CA        82.1140  -15.2730   16.9740 C.3   110  TYR110      0.1736
     89  C         81.0550  -16.3570   16.9280 C.2   110  TYR110      0.2595
     90  O         81.0050  -17.2040   17.8330 O.2   110  TYR110     -0.2718
     91  CB        81.5140  -13.8840   16.8130 C.3   110  TYR110      0.0548
     92  CG        80.5470  -13.4910   17.9180 C.ar  110  TYR110     -0.0200
     93  CD1       79.2470  -13.9530   17.9080 C.ar  110  TYR110     -0.0009
     94  CD2       80.9450  -12.6560   18.9610 C.ar  110  TYR110     -0.0009
     95  CE1       78.3440  -13.5850   18.9100 C.ar  110  TYR110      0.0417
     96  CE2       80.0500  -12.2780   19.9760 C.ar  110  TYR110      0.0417
     97  CZ        78.7580  -12.7590   19.9370 C.ar  110  TYR110      0.1957
     98  OH        77.8570  -12.4140   20.9140 O.3   110  TYR110     -0.2866
     99  N         80.2310  -16.3470   15.8730 N.am  111  ILE111     -0.1980
    100  CA        79.2840  -17.4460   15.6640 C.3   111  ILE111      0.1595
    101  C         79.1610  -17.7810   14.1690 C.2   111  ILE111      0.2287
    102  O         79.2250  -16.9010   13.3250 O.2   111  ILE111     -0.2864
    103  CB        77.8650  -17.1250   16.2570 C.3   111  ILE111      0.0276
    104  CG1       76.9810  -18.3810   16.3000 C.3   111  ILE111      0.0022
    105  CG2       77.1800  -15.9940   15.4890 C.3   111  ILE111      0.0022
    106  CD1       75.6730  -18.1980   17.1760 C.3   111  ILE111      0.0001
    107  N         74.3730  -15.1910   22.2110 N.3   130  THR130     -0.1218
    108  CA        73.7880  -14.9590   20.8970 C.3   130  THR130      0.1862
    109  C         73.1090  -16.2230   20.4080 C.2   130  THR130      0.2287
    110  O         71.9370  -16.1920   19.9880 O.2   130  THR130     -0.2866
    111  CB        74.8240  -14.4970   19.8570 C.3   130  THR130      0.1770
    112  OG1       75.2820  -13.1740   20.1750 O.3   130  THR130     -0.2211
    113  CG2       74.2220  -14.4730   18.4590 C.3   130  THR130      0.0375
    114  N         69.6580  -16.4450   21.8830 N.3   133  LYS133     -0.1231
    115  CA        68.7460  -15.5630   21.1390 C.3   133  LYS133      0.1693
    116  C         68.3080  -16.1820   19.7880 C.2   133  LYS133      0.2592
    117  O         67.1360  -16.1950   19.4260 O.2   133  LYS133     -0.2718
    118  CB        69.4660  -14.2230   20.8630 C.3   133  LYS133      0.0285
    119  CG        68.6990  -12.9320   21.2220 C.3   133  LYS133      0.0035
    120  CD        68.4170  -12.0890   19.9540 C.3   133  LYS133      0.0206
    121  CE        67.2110  -12.6220   19.1520 C.3   133  LYS133      0.1093
    122  NZ        67.0940  -12.0500   17.7750 N.3   133  LYS133     -0.1314
    123  N         69.2710  -16.6840   19.0300 N.am  134  TRP134     -0.1976
    124  CA        69.0220  -17.0880   17.6540 C.3   134  TRP134      0.1640
    125  C         68.3880  -18.4640   17.5360 C.2   134  TRP134      0.2290
    126  O         67.6270  -18.7110   16.6140 O.2   134  TRP134     -0.2864
    127  CB        70.3240  -17.0360   16.8650 C.3   134  TRP134      0.0576
    128  CG        70.7770  -15.6330   16.5790 C.ar  134  TRP134      0.0006
    129  CD1       70.2610  -14.4890   17.1090 C.ar  134  TRP134      0.0946
    130  CD2       71.8230  -15.2220   15.6850 C.ar  134  TRP134      0.0152
    131  NE1       70.9110  -13.3920   16.6150 N.ar  134  TRP134     -0.2442
    132  CE2       71.8830  -13.8090   15.7410 C.ar  134  TRP134      0.0810
    133  CE3       72.7120  -15.9040   14.8520 C.ar  134  TRP134      0.0012
    134  CZ2       72.7930  -13.0680   14.9920 C.ar  134  TRP134      0.0191
    135  CZ3       73.6380  -15.1670   14.1040 C.ar  134  TRP134      0.0001
    136  CH2       73.6640  -13.7640   14.1680 C.ar  134  TRP134      0.0015
    137  N         66.9340  -17.8810   13.7600 N.3   139  ALA139     -0.1245
    138  CA        67.8650  -17.2710   12.8150 C.3   139  ALA139      0.1562
    139  C         68.3700  -18.2550   11.7540 C.2   139  ALA139      0.2260
    140  O         68.5020  -17.8970   10.5720 O.2   139  ALA139     -0.2867
    141  CB        69.0450  -16.6230   13.5470 C.3   139  ALA139      0.0290
    142  N         65.9070  -18.6710    8.9080 N.3   142  TYR142     -0.1227
    143  CA        65.9400  -17.4820    8.0510 C.3   142  TYR142      0.1736
    144  C         67.1190  -17.4840    7.0600 C.2   142  TYR142      0.2595
    145  O         66.9460  -17.2860    5.8190 O.2   142  TYR142     -0.2718
    146  CB        65.9250  -16.2270    8.9580 C.3   142  TYR142      0.0548
    147  CG        66.2360  -14.9370    8.2270 C.ar  142  TYR142     -0.0200
    148  CD1       65.2480  -14.2760    7.4930 C.ar  142  TYR142     -0.0009
    149  CD2       67.5090  -14.3800    8.2860 C.ar  142  TYR142     -0.0009
    150  CE1       65.5390  -13.0980    6.8210 C.ar  142  TYR142      0.0417
    151  CE2       67.8090  -13.1910    7.6440 C.ar  142  TYR142      0.0417
    152  CZ        66.8280  -12.5610    6.8940 C.ar  142  TYR142      0.1957
    153  OH        67.1270  -11.3740    6.2470 O.3   142  TYR142     -0.2866
    154  N         68.3280  -17.7020    7.5770 N.am  143  TYR143     -0.1976
    155  CA        69.4730  -17.6800    6.6830 C.3   143  TYR143      0.1639
    156  C         69.3950  -18.8240    5.7010 C.2   143  TYR143      0.2290
    157  O         69.7950  -18.6870    4.5440 O.2   143  TYR143     -0.2864
    158  CB        70.8270  -17.7350    7.4120 C.3   143  TYR143      0.0560
    159  CG        71.0620  -16.5200    8.2570 C.ar  143  TYR143     -0.0198
    160  CD1       71.1210  -15.2400    7.6920 C.ar  143  TYR143     -0.0009
    161  CD2       71.2310  -16.6400    9.6120 C.ar  143  TYR143     -0.0009
    162  CE1       71.3090  -14.1250    8.4890 C.ar  143  TYR143      0.0417
    163  CE2       71.4030  -15.5420   10.4090 C.ar  143  TYR143      0.0417
    164  CZ        71.4650  -14.2940    9.8460 C.ar  143  TYR143      0.1957
    165  OH        71.6880  -13.2390   10.6880 O.3   143  TYR143     -0.2866
@<TRIPOS>BOND
     1   157   156    2
     2     6     5    1
     3     6     7    1
     4   156   155    1
     5     5     2    1
     6   145   144    2
     7    65    64    2
     8    75    74   ar
     9    75    73   ar
    10    74    72   ar
    11     7     9   am
    12     7     8    2
    13   153   152    1
    14     1     2    1
    15    73    71   ar
    16   155   158    1
    17   155   154    1
    18    72    69   ar
    19   150   152   ar
    20   150   148   ar
    21    64    63    1
    22   152   151   ar
    23     2     3    1
    24   144   154   am
    25   144   143    1
    26    71    69   ar
    27    71    70   ar
    28    69    67   ar
    29   158   159    1
    30   148   147   ar
    31    70    68   ar
    32   151   149   ar
    33   160   159   ar
    34   160   162   ar
    35     3     4    2
    36    67    68   ar
    37    67    66    1
    38   143   142    1
    39   143   146    1
    40    66    63    1
    41    63    62    1
    42   147   149   ar
    43   147   146    1
    44   159   161   ar
    45   162   164   ar
    46   161   163   ar
    47   164   163   ar
    48   164   165    1
    49    57    56    2
    50   140   139    2
    51    86    85   ar
    52    86    84   ar
    53    14    15    1
    54    14    11    1
    55    85    83   ar
    56    84    82   ar
    57    10    11    1
    58    20    22   ar
    59    20    17   ar
    60    56    55    1
    61    76    77    1
    62    22    23   ar
    63    15    17   ar
    64    15    16   ar
    65    17    19   ar
    66    83    81   ar
    67   139   138    1
    68    82    81   ar
    69    11    12    1
    70    77    78    1
    71    77    80    1
    72    16    18   ar
    73    81    80    1
    74    23    21   ar
    75    19    21   ar
    76    19    18   ar
    77    12    13    2
    78    54    55    1
    79    55    58    1
    80   138   141    1
    81   138   137    1
    82    78    79    2
    83    58    59    1
    84    59    61    1
    85    59    60    1
    86   102   101    2
    87   135   136   ar
    88   135   133   ar
    89   136   134   ar
    90   101   100    1
    91    38    36   am
    92   133   130   ar
    93   134   132   ar
    94   105   103    1
    95    24    25    1
    96   100    99    1
    97   100   103    1
    98   130   132   ar
    99   130   128   ar
   100    36    35    1
   101    36    37    2
   102   132   131   ar
   103    35    32    1
   104    99    89   am
   105    87    88    1
   106    30    28    1
   107   103   104    1
   108   104   106    1
   109    31    32    1
   110    31    26   am
   111    28    25    1
   112    28    29    1
   113   128   127    1
   114   128   129   ar
   115   126   125    2
   116   131   129   ar
   117    25    26    1
   118    91    88    1
   119    91    92    1
   120    32    33    1
   121   127   124    1
   122    89    88    1
   123    89    90    2
   124    26    27    2
   125    33    34    2
   126   125   124    1
   127    52    51    1
   128   124   123    1
   129   122   121    1
   130    93    92   ar
   131    93    95   ar
   132    92    94   ar
   133   113   111    1
   134    95    97   ar
   135    94    96   ar
   136    51    53    1
   137    51    50    1
   138   123   116   am
   139   121   120    1
   140   117   116    2
   141   116   115    1
   142   111   112    1
   143   111   108    1
   144    50    47    1
   145    97    96   ar
   146    97    98    1
   147   120   119    1
   148    44    43    1
   149   110   109    2
   150    43    45    1
   151    43    40    1
   152   109   108    1
   153    39    40    1
   154   118   115    1
   155   118   119    1
   156    46    47    1
   157    46    41   am
   158   108   107    1
   159   115   114    1
   160    47    48    1
   161    40    41    1
   162    41    42    2
   163    48    49    2
