@<TRIPOS>MOLECULE
tmp/4msaA00.pdb
 113 107 0 0 0
SMALL
GASTEIGER

@<TRIPOS>ATOM
      1  N         14.9020  -26.4390  -30.7450 N.3    79  TYR79      -0.1241
      2  CA        13.6810  -27.0320  -30.1620 C.3    79  TYR79       0.1605
      3  C         13.8220  -28.4800  -29.6750 C.2    79  TYR79       0.2264
      4  O         13.4750  -28.7690  -28.5340 O.2    79  TYR79      -0.2867
      5  CB        12.5070  -26.9160  -31.1360 C.3    79  TYR79       0.0534
      6  CG        11.2390  -27.5220  -30.5870 C.ar   79  TYR79      -0.0201
      7  CD1       10.5820  -26.9410  -29.5140 C.ar   79  TYR79      -0.0009
      8  CD2       10.7180  -28.6960  -31.1210 C.ar   79  TYR79      -0.0009
      9  CE1        9.4270  -27.5080  -28.9870 C.ar   79  TYR79       0.0417
     10  CE2        9.5540  -29.2670  -30.5990 C.ar   79  TYR79       0.0417
     11  CZ         8.9160  -28.6540  -29.5450 C.ar   79  TYR79       0.1957
     12  OH         7.7580  -29.2130  -29.0540 O.3    79  TYR79      -0.2866
     13  N          4.6290  -38.3980  -35.8080 N.3   190  LEU190     -0.1245
     14  CA         3.2660  -37.8780  -36.0580 C.3   190  LEU190      0.1561
     15  C          2.6010  -38.5340  -37.2580 C.2   190  LEU190      0.2260
     16  O          1.3620  -38.5690  -37.3320 O.2   190  LEU190     -0.2867
     17  CB         3.2310  -36.3650  -36.2080 C.3   190  LEU190      0.0270
     18  CG         3.3830  -35.6120  -34.8830 C.3   190  LEU190      0.0019
     19  CD1        3.7090  -34.1620  -35.1850 C.3   190  LEU190      0.0001
     20  CD2        2.1160  -35.7910  -34.0140 C.3   190  LEU190      0.0001
     21  N          4.2500  -35.1770  -26.2660 N.3   229  ASP229     -0.1225
     22  CA         5.2370  -34.5870  -27.2000 C.3   229  ASP229      0.1805
     23  C          4.7610  -33.1930  -27.6130 C.2   229  ASP229      0.2597
     24  O          5.5430  -32.2630  -27.7600 O.2   229  ASP229     -0.2718
     25  CB         5.3380  -35.5180  -28.4330 C.3   229  ASP229      0.1424
     26  CG         6.5230  -35.2320  -29.3110 C.2   229  ASP229      0.3668
     27  OD1        6.5040  -35.7190  -30.4710 O.co2 229  ASP229     -0.2456
     28  OD2        7.4930  -34.5810  -28.8620 O.co2 229  ASP229     -0.2456
     29  N          3.4510  -33.0320  -27.7770 N.am  230  LEU230     -0.1979
     30  CA         2.8700  -31.7690  -28.2190 C.3   230  LEU230      0.1596
     31  C          2.5160  -30.7930  -27.0910 C.2   230  LEU230      0.2287
     32  O          1.9570  -29.7300  -27.3710 O.2   230  LEU230     -0.2864
     33  CB         1.6000  -32.0310  -29.0710 C.3   230  LEU230      0.0297
     34  CG         1.7630  -32.8940  -30.3330 C.3   230  LEU230      0.0022
     35  CD1        0.4440  -32.9120  -31.0900 C.3   230  LEU230      0.0001
     36  CD2        2.8610  -32.3370  -31.1950 C.3   230  LEU230      0.0001
     37  N          3.6440  -28.4520  -25.3300 N.3   232  SER232     -0.1202
     38  CA         3.8120  -27.0040  -25.3870 C.3   232  SER232      0.2020
     39  C          2.5440  -26.2530  -25.7580 C.2   232  SER232      0.2618
     40  O          2.4060  -25.1090  -25.3450 O.2   232  SER232     -0.2717
     41  CB         4.9490  -26.5900  -26.3170 C.3   232  SER232      0.2103
     42  OG         4.4790  -26.5520  -27.6710 O.3   232  SER232     -0.2182
     43  N          1.6270  -26.9010  -26.4970 N.am  233  VAL233     -0.1979
     44  CA         0.3750  -26.2550  -26.8680 C.3   233  VAL233      0.1595
     45  C         -0.6620  -26.2620  -25.7390 C.2   233  VAL233      0.2287
     46  O         -1.7860  -25.7470  -25.9160 O.2   233  VAL233     -0.2864
     47  CB        -0.2490  -26.8360  -28.1800 C.3   233  VAL233      0.0276
     48  CG1        0.7680  -26.8010  -29.3370 C.3   233  VAL233      0.0022
     49  CG2       -0.8740  -28.2300  -27.9250 C.3   233  VAL233      0.0022
     50  N          6.8400  -21.8340  -29.6530 N.3   244  ALA244     -0.1245
     51  CA         6.6360  -21.7580  -31.1080 C.3   244  ALA244      0.1562
     52  C          7.8010  -21.0530  -31.8150 C.2   244  ALA244      0.2260
     53  O          8.2180  -21.4910  -32.8990 O.2   244  ALA244     -0.2867
     54  CB         5.2580  -21.0870  -31.4730 C.3   244  ALA244      0.0290
     55  N         10.5000  -23.7750  -32.1910 N.3   247  ILE247     -0.1231
     56  CA        10.0780  -24.7520  -33.2090 C.3   247  ILE247      0.1692
     57  C         10.3680  -24.1670  -34.6010 C.2   247  ILE247      0.2592
     58  O         11.0250  -24.8050  -35.4300 O.2   247  ILE247     -0.2718
     59  CB         8.5230  -25.0790  -33.0750 C.3   247  ILE247      0.0266
     60  CG1        8.2420  -25.7870  -31.7330 C.3   247  ILE247      0.0019
     61  CG2        7.9910  -25.8460  -34.2430 C.3   247  ILE247      0.0020
     62  CD1        6.7260  -25.7700  -31.2790 C.3   247  ILE247      0.0001
     63  N          9.8920  -22.9420  -34.8420 N.am  248  TYR248     -0.1976
     64  CA        10.0940  -22.3120  -36.1450 C.3   248  TYR248      0.1639
     65  C         11.5520  -22.0020  -36.4650 C.2   248  TYR248      0.2290
     66  O         11.9320  -22.0720  -37.6180 O.2   248  TYR248     -0.2864
     67  CB         9.1890  -21.1020  -36.3320 C.3   248  TYR248      0.0560
     68  CG         7.8410  -21.4990  -36.8130 C.ar  248  TYR248     -0.0198
     69  CD1        6.8220  -21.8080  -35.9020 C.ar  248  TYR248     -0.0009
     70  CD2        7.5550  -21.5730  -38.1800 C.ar  248  TYR248     -0.0009
     71  CE1        5.5690  -22.1770  -36.3470 C.ar  248  TYR248      0.0417
     72  CE2        6.2810  -21.9330  -38.6310 C.ar  248  TYR248      0.0417
     73  CZ         5.3010  -22.2250  -37.7180 C.ar  248  TYR248      0.1957
     74  OH         4.0270  -22.5780  -38.1290 O.3   248  TYR248     -0.2866
     75  N         12.5910  -25.1150  -38.0510 N.3   251  PHE251     -0.1241
     76  CA        11.9340  -25.2470  -39.3360 C.3   251  PHE251      0.1605
     77  C         12.6490  -24.3670  -40.3810 C.2   251  PHE251      0.2264
     78  O         13.0030  -24.8370  -41.4650 O.2   251  PHE251     -0.2867
     79  CB        10.4480  -24.8440  -39.2460 C.3   251  PHE251      0.0534
     80  CG         9.5510  -25.8630  -38.5570 C.ar  251  PHE251     -0.0203
     81  CD1        9.9310  -27.1860  -38.4360 C.ar  251  PHE251     -0.0042
     82  CD2        8.3010  -25.4680  -38.0690 C.ar  251  PHE251     -0.0042
     83  CE1        9.0940  -28.1140  -37.8050 C.ar  251  PHE251     -0.0003
     84  CE2        7.4590  -26.3700  -37.4540 C.ar  251  PHE251     -0.0003
     85  CZ         7.8620  -27.7090  -37.3330 C.ar  251  PHE251     -0.0000
     86  N          5.7650  -23.5360  -44.1830 N.3   268  MET268     -0.1245
     87  CA         6.0810  -23.6620  -42.7730 C.3   268  MET268      0.1570
     88  C          7.5820  -23.5440  -42.4930 C.2   268  MET268      0.2261
     89  O          7.9730  -23.0700  -41.4260 O.2   268  MET268     -0.2867
     90  CB         5.5100  -24.9680  -42.2150 C.3   268  MET268      0.0387
     91  CG         5.4270  -24.9980  -40.7090 C.3   268  MET268      0.0595
     92  SD         4.8660  -26.5660  -40.0300 S.3   268  MET268     -0.1393
     93  CE         6.2920  -27.5740  -40.3830 C.3   268  MET268      0.0692
     94  N         -0.4250  -22.4470  -37.7460 N.3   281  GLN281     -0.1245
     95  CA        -0.6790  -22.9050  -36.3860 C.3   281  GLN281      0.1566
     96  C         -2.1430  -23.2920  -36.2510 C.2   281  GLN281      0.2260
     97  O         -2.4580  -24.3460  -35.6710 O.2   281  GLN281     -0.2867
     98  CB        -0.2810  -21.8340  -35.3780 C.3   281  GLN281      0.0367
     99  CG         1.2350  -21.7330  -35.1900 C.3   281  GLN281      0.0905
    100  CD         1.8260  -23.0360  -34.6860 C.2   281  GLN281      0.2608
    101  OE1        1.5760  -23.4300  -33.5570 O.2   281  GLN281     -0.2717
    102  NE2        2.5900  -23.7360  -35.5420 N.am  281  GLN281     -0.0878
    103  N         -2.4340  -26.6780  -37.6880 N.3   284  PHE284     -0.1241
    104  CA        -1.8720  -27.6820  -36.8160 C.3   284  PHE284      0.1605
    105  C         -2.8070  -28.0020  -35.6360 C.2   284  PHE284      0.2264
    106  O         -3.0260  -29.1710  -35.3220 O.2   284  PHE284     -0.2867
    107  CB        -0.4710  -27.2580  -36.3290 C.3   284  PHE284      0.0534
    108  CG         0.2390  -28.3430  -35.5710 C.ar  284  PHE284     -0.0203
    109  CD1        0.8980  -29.3730  -36.2530 C.ar  284  PHE284     -0.0042
    110  CD2        0.2180  -28.3570  -34.1690 C.ar  284  PHE284     -0.0042
    111  CE1        1.5030  -30.4190  -35.5640 C.ar  284  PHE284     -0.0003
    112  CE2        0.8380  -29.3930  -33.4700 C.ar  284  PHE284     -0.0003
    113  CZ         1.4850  -30.4240  -34.1640 C.ar  284  PHE284     -0.0000
@<TRIPOS>BOND
     1    86    87    1
     2    87    88    1
     3    87    90    1
     4    88    89    2
     5    90    91    1
     6    78    77    2
     7    91    92    1
     8    93    92    1
     9    77    76    1
    10    76    79    1
    11    76    75    1
    12    79    80    1
    13    72    70   ar
    14    72    73   ar
    15    80    81   ar
    16    80    82   ar
    17    81    83   ar
    18    70    68   ar
    19    74    73    1
    20    82    84   ar
    21    83    85   ar
    22    94    95    1
    23    73    71   ar
    24   103   104    1
    25    66    65    2
    26    84    85   ar
    27    16    15    2
    28    15    14    1
    29   104   107    1
    30   104   105    1
    31    68    67    1
    32    68    69   ar
    33    65    64    1
    34    95    96    1
    35    95    98    1
    36    71    69   ar
    37    67    64    1
    38   107   108    1
    39   109   108   ar
    40   109   111   ar
    41    96    97    2
    42    17    14    1
    43    17    18    1
    44    64    63    1
    45    14    13    1
    46   105   106    2
    47   108   110   ar
    48   111   113   ar
    49   102   100   am
    50    58    57    2
    51    98    99    1
    52    99   100    1
    53    19    18    1
    54    18    20    1
    55    63    57   am
    56   100   101    2
    57    57    56    1
    58    61    59    1
    59   110   112   ar
    60   113   112   ar
    61    56    59    1
    62    56    55    1
    63    59    60    1
    64    53    52    2
    65    52    51    1
    66    60    62    1
    67    54    51    1
    68    36    34    1
    69     5     6    1
    70     5     2    1
    71     8    10   ar
    72     8     6   ar
    73    51    50    1
    74    35    34    1
    75     1     2    1
    76    10    11   ar
    77     6     7   ar
    78    27    26   ar
    79    34    33    1
    80     2     3    1
    81     3     4    2
    82    11    12    1
    83    11     9   ar
    84     7     9   ar
    85    48    47    1
    86    26    28   ar
    87    26    25    1
    88    33    30    1
    89    25    22    1
    90    30    29    1
    91    30    31    1
    92    47    49    1
    93    47    44    1
    94    29    23   am
    95    24    23    2
    96    42    41    1
    97    23    22    1
    98    32    31    2
    99    22    21    1
   100    44    43    1
   101    44    45    1
   102    43    39   am
   103    41    38    1
   104    46    45    2
   105    39    38    1
   106    39    40    2
   107    38    37    1
