@<TRIPOS>MOLECULE
tmp/4mscA00.pdb
 158 154 0 0 0
SMALL
GASTEIGER

@<TRIPOS>ATOM
      1  N         15.1010   14.8620   47.1960 N.3    77  TYR77      -0.1241
      2  CA        13.8620   14.2130   47.6760 C.3    77  TYR77       0.1605
      3  C         13.9950   12.7900   48.2210 C.2    77  TYR77       0.2264
      4  O         13.6950   12.5440   49.3780 O.2    77  TYR77      -0.2867
      5  CB        12.7480   14.2580   46.6260 C.3    77  TYR77       0.0534
      6  CG        11.4470   13.6920   47.1510 C.ar   77  TYR77      -0.0201
      7  CD1       10.6830   14.4060   48.0700 C.ar   77  TYR77      -0.0009
      8  CD2       10.9930   12.4390   46.7470 C.ar   77  TYR77      -0.0009
      9  CE1        9.5160   13.9010   48.5720 C.ar   77  TYR77       0.0417
     10  CE2        9.8070   11.9200   47.2420 C.ar   77  TYR77       0.0417
     11  CZ         9.0770   12.6610   48.1580 C.ar   77  TYR77       0.1957
     12  OH         7.9040   12.1740   48.6580 O.3    77  TYR77      -0.2866
     13  N          4.9530    2.7510   41.7880 N.3   188  LEU188     -0.1245
     14  CA         3.6600    3.3210   41.5000 C.3   188  LEU188      0.1561
     15  C          2.9670    2.7040   40.2820 C.2   188  LEU188      0.2260
     16  O          1.7360    2.7220   40.1860 O.2   188  LEU188     -0.2867
     17  CB         3.7630    4.8420   41.3780 C.3   188  LEU188      0.0270
     18  CG         3.5980    5.6460   42.6690 C.3   188  LEU188      0.0019
     19  CD1        3.6660    7.1420   42.3760 C.3   188  LEU188      0.0001
     20  CD2        2.2950    5.3040   43.3690 C.3   188  LEU188      0.0001
     21  N          4.5210    6.0270   51.3870 N.3   227  ASP227     -0.1225
     22  CA         5.3580    6.6590   50.3980 C.3   227  ASP227      0.1805
     23  C          4.9220    8.0570   49.9920 C.2   227  ASP227      0.2597
     24  O          5.7550    8.9640   49.8740 O.2   227  ASP227     -0.2718
     25  CB         5.4400    5.7790   49.1630 C.3   227  ASP227      0.1424
     26  CG         6.7140    5.9930   48.3960 C.2   227  ASP227      0.3668
     27  OD1        6.7530    5.5430   47.2460 O.co2 227  ASP227     -0.2456
     28  OD2        7.6660    6.5990   48.9470 O.co2 227  ASP227     -0.2456
     29  N          3.6220    8.2320   49.8060 N.am  228  LEU228     -0.1979
     30  CA         3.0480    9.4910   49.3210 C.3   228  LEU228      0.1596
     31  C          2.6810   10.4890   50.4260 C.2   228  LEU228      0.2287
     32  O          2.1490   11.5660   50.1320 O.2   228  LEU228     -0.2864
     33  CB         1.7880    9.1930   48.4830 C.3   228  LEU228      0.0297
     34  CG         1.9150    8.2100   47.3110 C.3   228  LEU228      0.0022
     35  CD1        0.6050    8.1510   46.5290 C.3   228  LEU228      0.0001
     36  CD2        3.1320    8.5380   46.3680 C.3   228  LEU228      0.0001
     37  N          3.7590   12.7730   52.3630 N.3   230  SER230     -0.1202
     38  CA         4.0090   14.2130   52.3140 C.3   230  SER230      0.2020
     39  C          2.7240   14.9640   51.9760 C.2   230  SER230      0.2618
     40  O          2.5060   16.0600   52.4910 O.2   230  SER230     -0.2717
     41  CB         5.1200   14.5770   51.3230 C.3   230  SER230      0.2103
     42  OG         4.8020   14.1620   50.0070 O.3   230  SER230     -0.2182
     43  N          1.8630   14.3600   51.1550 N.am  231  VAL231     -0.1979
     44  CA         0.5940   15.0050   50.7500 C.3   231  VAL231      0.1595
     45  C         -0.5090   14.8790   51.8000 C.2   231  VAL231      0.2287
     46  O         -1.6710   15.2490   51.5470 O.2   231  VAL231     -0.2864
     47  CB         0.0620   14.5010   49.3830 C.3   231  VAL231      0.0276
     48  CG1        1.1270   14.6430   48.2790 C.3   231  VAL231      0.0022
     49  CG2       -0.4660   13.0690   49.4870 C.3   231  VAL231      0.0022
     50  N         10.7670   17.7200   45.6030 N.3   245  ILE245     -0.1231
     51  CA        10.4810   16.7050   44.5880 C.3   245  ILE245      0.1692
     52  C         10.7550   17.2440   43.1860 C.2   245  ILE245      0.2592
     53  O         11.2870   16.5260   42.3460 O.2   245  ILE245     -0.2718
     54  CB         9.0170   16.1450   44.6370 C.3   245  ILE245      0.0266
     55  CG1        8.4250   16.2260   46.0450 C.3   245  ILE245      0.0019
     56  CG2        8.9900   14.7070   44.1380 C.3   245  ILE245      0.0020
     57  CD1        6.9730   15.6450   46.1990 C.3   245  ILE245      0.0001
     58  N         10.3740   18.4980   42.9410 N.am  246  TYR246     -0.1976
     59  CA        10.6030   19.1200   41.6360 C.3   246  TYR246      0.1639
     60  C         12.0740   19.3930   41.3650 C.2   246  TYR246      0.2290
     61  O         12.5230   19.2030   40.2470 O.2   246  TYR246     -0.2864
     62  CB         9.7580   20.3750   41.4440 C.3   246  TYR246      0.0560
     63  CG         8.3290   20.0330   41.1930 C.ar  246  TYR246     -0.0198
     64  CD1        7.3660   20.2800   42.1550 C.ar  246  TYR246     -0.0009
     65  CD2        7.9340   19.4270   40.0000 C.ar  246  TYR246     -0.0009
     66  CE1        6.0440   19.9510   41.9360 C.ar  246  TYR246      0.0417
     67  CE2        6.6130   19.0890   39.7740 C.ar  246  TYR246      0.0417
     68  CZ         5.6770   19.3510   40.7520 C.ar  246  TYR246      0.1957
     69  OH         4.3540   19.0370   40.5560 O.3   246  TYR246     -0.2866
     70  N         12.9220   16.1180   40.1050 N.3   249  PHE249     -0.1227
     71  CA        12.3240   15.8760   38.7850 C.3   249  PHE249      0.1736
     72  C         12.9500   16.7210   37.6740 C.2   249  PHE249      0.2595
     73  O         13.1660   16.2240   36.5640 O.2   249  PHE249     -0.2718
     74  CB        10.8100   16.1490   38.7900 C.3   249  PHE249      0.0547
     75  CG         9.9900   15.1340   39.5520 C.ar  249  PHE249     -0.0202
     76  CD1       10.4080   13.8180   39.6830 C.ar  249  PHE249     -0.0042
     77  CD2        8.7640   15.5020   40.1070 C.ar  249  PHE249     -0.0042
     78  CE1        9.6240   12.8820   40.3770 C.ar  249  PHE249     -0.0003
     79  CE2        7.9780   14.5760   40.8040 C.ar  249  PHE249     -0.0003
     80  CZ         8.4060   13.2680   40.9380 C.ar  249  PHE249     -0.0000
     81  N         13.2200   17.9970   37.9690 N.am  250  TRP250     -0.1976
     82  CA        13.7210   18.9390   36.9610 C.3   250  TRP250      0.1640
     83  C         15.1780   18.6410   36.5850 C.2   250  TRP250      0.2290
     84  O         15.5450   18.7780   35.4230 O.2   250  TRP250     -0.2864
     85  CB        13.5610   20.4080   37.4130 C.3   250  TRP250      0.0576
     86  CG        12.1330   20.8700   37.5620 C.ar  250  TRP250      0.0006
     87  CD1       11.0410   20.4020   36.8700 C.ar  250  TRP250      0.0946
     88  CD2       11.6390   21.9080   38.4310 C.ar  250  TRP250      0.0152
     89  NE1        9.9100   21.0730   37.2620 N.ar  250  TRP250     -0.2442
     90  CE2       10.2400   22.0030   38.2130 C.ar  250  TRP250      0.0810
     91  CE3       12.2390   22.7660   39.3690 C.ar  250  TRP250      0.0012
     92  CZ2        9.4250   22.9100   38.9040 C.ar  250  TRP250      0.0191
     93  CZ3       11.4280   23.6760   40.0660 C.ar  250  TRP250      0.0001
     94  CH2       10.0240   23.7360   39.8240 C.ar  250  TRP250      0.0015
     95  N          6.4810   17.2950   30.6230 N.3   265  PRO265     -0.2102
     96  CA         6.3050   18.5800   31.3080 C.3   265  PRO265      0.1504
     97  C          6.6250   18.5530   32.8150 C.2   265  PRO265      0.2575
     98  O          7.1570   19.5330   33.3470 O.2   265  PRO265     -0.2718
     99  CB         4.8210   18.8960   31.0690 C.3   265  PRO265      0.0282
    100  CG         4.5000   18.2300   29.7840 C.3   265  PRO265      0.0208
    101  CD         5.3220   16.9730   29.7580 C.3   265  PRO265      0.0893
    102  N          6.3170   17.4470   33.4890 N.am  266  MET266     -0.1980
    103  CA         6.5420   17.3370   34.9280 C.3   266  MET266      0.1605
    104  C          8.0190   17.5190   35.3120 C.2   266  MET266      0.2287
    105  O          8.3390   17.9660   36.4110 O.2   266  MET266     -0.2864
    106  CB         6.0290   15.9930   35.4540 C.3   266  MET266      0.0413
    107  CG         6.0770   15.8940   36.9650 C.3   266  MET266      0.0598
    108  SD         5.7430   14.2810   37.6540 S.3   266  MET266     -0.1393
    109  CE         7.3070   13.4420   37.3790 C.3   266  MET266      0.0692
    110  N          8.4550   24.5800   32.6280 N.3   271  LYS271     -0.1245
    111  CA         7.0050   24.4140   32.6540 C.3   271  LYS271      0.1561
    112  C          6.4470   24.5110   34.0680 C.2   271  LYS271      0.2260
    113  O          5.3720   23.9830   34.3560 O.2   271  LYS271     -0.2867
    114  CB         6.5540   23.1350   31.9250 C.3   271  LYS271      0.0271
    115  CG         6.8440   23.1920   30.4230 C.3   271  LYS271      0.0035
    116  CD         6.0780   22.1870   29.6040 C.3   271  LYS271      0.0206
    117  CE         6.4590   22.3540   28.1440 C.3   271  LYS271      0.1093
    118  NZ         6.0530   21.2140   27.2970 N.3   271  LYS271     -0.1314
    119  N          2.7760   24.8980   35.1140 N.3   274  GLU274     -0.1231
    120  CA         1.9020   23.7390   35.0950 C.3   274  GLU274      0.1699
    121  C          1.8990   22.9520   36.4100 C.2   274  GLU274      0.2592
    122  O          1.1730   21.9670   36.5330 O.2   274  GLU274     -0.2718
    123  CB         2.2590   22.8170   33.9310 C.3   274  GLU274      0.0402
    124  CG         2.0350   23.3830   32.5200 C.3   274  GLU274      0.1161
    125  CD         2.4300   22.3790   31.4390 C.2   274  GLU274      0.3649
    126  OE1        2.4310   21.1580   31.7200 O.co2 274  GLU274     -0.2457
    127  OE2        2.7410   22.7930   30.3140 O.co2 274  GLU274     -0.2457
    128  N          2.6940   23.3910   37.3880 N.am  275  VAL275     -0.1980
    129  CA         2.8030   22.6760   38.6730 C.3   275  VAL275      0.1595
    130  C          1.4500   22.4200   39.3730 C.2   275  VAL275      0.2287
    131  O          1.1690   21.2770   39.7370 O.2   275  VAL275     -0.2864
    132  CB         3.8210   23.3400   39.6560 C.3   275  VAL275      0.0276
    133  CG1        3.7030   22.7330   41.0380 C.3   275  VAL275      0.0022
    134  CG2        5.2690   23.1980   39.1400 C.3   275  VAL275      0.0022
    135  N         -0.8020   20.1090   37.4910 N.3   278  GLY278     -0.1210
    136  CA        -0.1140   18.8140   37.5660 C.3   278  GLY278      0.1956
    137  C         -0.3100   18.1220   38.9060 C.2   278  GLY278      0.2611
    138  O         -0.6080   16.9260   38.9740 O.2   278  GLY278     -0.2717
    139  N         -0.1600   18.8800   39.9810 N.am  279  GLN279     -0.1979
    140  CA        -0.4080   18.3640   41.3180 C.3   279  GLN279      0.1601
    141  C         -1.8560   17.8920   41.4770 C.2   279  GLN279      0.2287
    142  O         -2.1070   16.7760   41.9330 O.2   279  GLN279     -0.2864
    143  CB        -0.0550   19.4330   42.3490 C.3   279  GLN279      0.0394
    144  CG         1.4370   19.5990   42.5590 C.3   279  GLN279      0.0908
    145  CD         2.0080   18.5130   43.4350 C.2   279  GLN279      0.2608
    146  OE1        1.3310   18.0100   44.3340 O.2   279  GLN279     -0.2717
    147  NE2        3.2560   18.1390   43.1840 N.am  279  GLN279     -0.0878
    148  N         -2.4860   14.5750   39.9440 N.3   282  PHE282     -0.1241
    149  CA        -1.8780   13.5420   40.7750 C.3   282  PHE282      0.1605
    150  C         -2.7590   13.2190   41.9820 C.2   282  PHE282      0.2264
    151  O         -2.9480   12.0550   42.3260 O.2   282  PHE282     -0.2867
    152  CB        -0.4740   13.9610   41.2200 C.3   282  PHE282      0.0534
    153  CG         0.1780   12.9970   42.1780 C.ar  282  PHE282     -0.0203
    154  CD1        0.7530   11.8160   41.7160 C.ar  282  PHE282     -0.0042
    155  CD2        0.2320   13.2810   43.5430 C.ar  282  PHE282     -0.0042
    156  CE1        1.3660   10.9180   42.5990 C.ar  282  PHE282     -0.0003
    157  CE2        0.8540   12.3940   44.4350 C.ar  282  PHE282     -0.0003
    158  CZ         1.4210   11.2060   43.9560 C.ar  282  PHE282     -0.0000
@<TRIPOS>BOND
     1   118   117    1
     2   117   116    1
     3   116   115    1
     4   101   100    1
     5   101    95    1
     6   100    99    1
     7   127   125   ar
     8   115   114    1
     9    95    96    1
    10    99    96    1
    11    96    97    1
    12   125   126   ar
    13   125   124    1
    14   114   111    1
    15   124   123    1
    16   110   111    1
    17   111   112    1
    18    97    98    2
    19    97   102   am
    20   102   103    1
    21   123   120    1
    22   112   113    2
    23   103   104    1
    24   103   106    1
    25   120   119    1
    26   120   121    1
    27   104   105    2
    28    84    83    2
    29   106   107    1
    30   121   122    2
    31   121   128   am
    32    73    72    2
    33    83    82    1
    34    87    89   ar
    35    87    86   ar
    36    82    85    1
    37    82    81    1
    38   107   108    1
    39    89    90   ar
    40   109   108    1
    41   128   129    1
    42    85    86    1
    43   135   136    1
    44    86    88   ar
    45   136   137    1
    46    72    81   am
    47    72    71    1
    48    90    88   ar
    49    90    92   ar
    50    88    91   ar
    51   129   130    1
    52   129   132    1
    53    71    74    1
    54    71    70    1
    55    74    75    1
    56    92    94   ar
    57   137   138    2
    58   137   139   am
    59   134   132    1
    60    91    93   ar
    61   130   131    2
    62    75    76   ar
    63    75    77   ar
    64   132   133    1
    65    76    78   ar
    66    67    65   ar
    67    67    68   ar
    68    94    93   ar
    69   148   149    1
    70   139   140    1
    71    65    63   ar
    72    77    79   ar
    73    16    15    2
    74    61    60    2
    75    15    14    1
    76    78    80   ar
    77    69    68    1
    78    68    66   ar
    79   149   152    1
    80   149   150    1
    81    79    80   ar
    82    63    62    1
    83    63    64   ar
    84   152   153    1
    85   140   141    1
    86   140   143    1
    87    60    59    1
    88    17    14    1
    89    17    18    1
    90    62    59    1
    91   141   142    2
    92    14    13    1
    93    59    58    1
    94   154   153   ar
    95   154   156   ar
    96    66    64   ar
    97   150   151    2
    98   153   155   ar
    99    53    52    2
   100   143   144    1
   101    19    18    1
   102   144   145    1
   103   156   158   ar
   104    18    20    1
   105    58    52   am
   106   147   145   am
   107    52    51    1
   108   145   146    2
   109   155   157   ar
   110   158   157   ar
   111    56    54    1
   112    51    54    1
   113    51    50    1
   114    54    55    1
   115    55    57    1
   116    36    34    1
   117    35    34    1
   118     5     6    1
   119     5     2    1
   120     8     6   ar
   121     8    10   ar
   122     6     7   ar
   123     1     2    1
   124    10    11   ar
   125    27    26   ar
   126    34    33    1
   127     2     3    1
   128     7     9   ar
   129    11     9   ar
   130    11    12    1
   131     3     4    2
   132    48    47    1
   133    26    28   ar
   134    26    25    1
   135    33    30    1
   136    25    22    1
   137    30    29    1
   138    30    31    1
   139    47    49    1
   140    47    44    1
   141    29    23   am
   142    24    23    2
   143    23    22    1
   144    42    41    1
   145    32    31    2
   146    22    21    1
   147    44    43    1
   148    44    45    1
   149    43    39   am
   150    41    38    1
   151    46    45    2
   152    39    38    1
   153    39    40    2
   154    38    37    1
