@<TRIPOS>MOLECULE
tmp/4mseA00.pdb
 146 141 0 0 0
SMALL
GASTEIGER

@<TRIPOS>ATOM
      1  N         15.0070   15.1480   47.8770 N.3    79  TYR79      -0.1227
      2  CA        13.7310   14.5680   48.3180 C.3    79  TYR79       0.1736
      3  C         13.8040   13.1430   48.8410 C.2    79  TYR79       0.2595
      4  O         13.4800   12.8960   50.0030 O.2    79  TYR79      -0.2718
      5  CB        12.6450   14.6590   47.2320 C.3    79  TYR79       0.0548
      6  CG        11.3390   13.9970   47.6370 C.ar   79  TYR79      -0.0200
      7  CD1       10.5890   14.4870   48.7060 C.ar   79  TYR79      -0.0009
      8  CD2       10.8630   12.8740   46.9600 C.ar   79  TYR79      -0.0009
      9  CE1        9.4000   13.8860   49.0870 C.ar   79  TYR79       0.0417
     10  CE2        9.6660   12.2590   47.3320 C.ar   79  TYR79       0.0417
     11  CZ         8.9420   12.7720   48.4000 C.ar   79  TYR79       0.1957
     12  OH         7.7550   12.1810   48.7810 O.3    79  TYR79      -0.2866
     13  N         14.1840   12.2120   47.9660 N.am   80  HIS80      -0.1975
     14  CA        14.2750   10.7910   48.3070 C.3    80  HIS80       0.1656
     15  C         15.4600   10.5170   49.2210 C.2    80  HIS80       0.2291
     16  O         16.4110    9.8280   48.8440 O.2    80  HIS80      -0.2864
     17  CB        14.3810    9.9530   47.0430 C.3    80  HIS80       0.0771
     18  CG        13.0960    9.8360   46.2930 C.ar   80  HIS80       0.0820
     19  ND1       12.7560   10.6860   45.2640 N.ar   80  HIS80      -0.2267
     20  CD2       12.0630    8.9720   46.4260 C.ar   80  HIS80       0.1154
     21  CE1       11.5690   10.3510   44.7940 C.ar   80  HIS80       0.1986
     22  NE2       11.1280    9.3130   45.4820 N.ar   80  HIS80      -0.2212
     23  N          5.0880    3.0410   42.3200 N.3   190  LEU190     -0.1245
     24  CA         3.7730    3.5130   41.9120 C.3   190  LEU190      0.1561
     25  C          3.2050    2.7800   40.7090 C.2   190  LEU190      0.2260
     26  O          1.9910    2.6360   40.5940 O.2   190  LEU190     -0.2867
     27  CB         3.7810    5.0170   41.6560 C.3   190  LEU190      0.0270
     28  CG         3.4900    5.9170   42.8540 C.3   190  LEU190      0.0019
     29  CD1        3.3970    7.3470   42.3800 C.3   190  LEU190      0.0001
     30  CD2        2.2100    5.5000   43.5510 C.3   190  LEU190      0.0001
     31  N          3.4830    8.5550   50.2860 N.3   230  LEU230     -0.1245
     32  CA         2.9390    9.7920   49.7410 C.3   230  LEU230      0.1561
     33  C          2.3320   10.6930   50.8060 C.2   230  LEU230      0.2260
     34  O          1.6320   11.6560   50.4670 O.2   230  LEU230     -0.2867
     35  CB         1.8770    9.4870   48.6840 C.3   230  LEU230      0.0270
     36  CG         2.2760    8.6070   47.5020 C.3   230  LEU230      0.0019
     37  CD1        1.0380    8.0970   46.7860 C.3   230  LEU230      0.0001
     38  CD2        3.1890    9.3650   46.5510 C.3   230  LEU230      0.0001
     39  N          3.1520   13.0900   52.4710 N.3   232  SER232     -0.1202
     40  CA         3.3700   14.5270   52.3770 C.3   232  SER232      0.2020
     41  C          2.1020   15.2300   51.8970 C.2   232  SER232      0.2618
     42  O          1.8920   16.4060   52.1860 O.2   232  SER232     -0.2717
     43  CB         4.5430   14.8450   51.4490 C.3   232  SER232      0.2103
     44  OG         4.1510   14.8070   50.0870 O.3   232  SER232     -0.2182
     45  N          1.2510   14.5100   51.1740 N.am  233  VAL233     -0.1979
     46  CA        -0.0150   15.0810   50.7270 C.3   233  VAL233      0.1595
     47  C         -1.0610   15.0930   51.8480 C.2   233  VAL233      0.2287
     48  O         -2.1680   15.5890   51.6620 O.2   233  VAL233     -0.2864
     49  CB        -0.5780   14.3630   49.4640 C.3   233  VAL233      0.0276
     50  CG1        0.4510   14.3410   48.3360 C.3   233  VAL233      0.0022
     51  CG2       -1.0480   12.9620   49.7920 C.3   233  VAL233      0.0022
     52  N         10.6160   18.0740   45.9690 N.3   247  ILE247     -0.1231
     53  CA        10.3880   17.0400   44.9490 C.3   247  ILE247      0.1692
     54  C         10.7500   17.5510   43.5700 C.2   247  ILE247      0.2592
     55  O         11.4170   16.8560   42.8050 O.2   247  ILE247     -0.2718
     56  CB         8.9340   16.5060   44.9140 C.3   247  ILE247      0.0266
     57  CG1        8.1880   16.8080   46.2170 C.3   247  ILE247      0.0019
     58  CG2        8.9340   14.9980   44.6270 C.3   247  ILE247      0.0020
     59  CD1        6.6960   16.4280   46.2090 C.3   247  ILE247      0.0001
     60  N         10.3190   18.7740   43.2670 N.am  248  TYR248     -0.1976
     61  CA        10.6090   19.3950   41.9760 C.3   248  TYR248      0.1639
     62  C         12.0940   19.6950   41.8030 C.2   248  TYR248      0.2290
     63  O         12.6520   19.4610   40.7320 O.2   248  TYR248     -0.2864
     64  CB         9.7320   20.6250   41.7410 C.3   248  TYR248      0.0560
     65  CG         8.2990   20.2480   41.4630 C.ar  248  TYR248     -0.0198
     66  CD1        7.3080   20.4840   42.4050 C.ar  248  TYR248     -0.0009
     67  CD2        7.9410   19.6160   40.2710 C.ar  248  TYR248     -0.0009
     68  CE1        5.9980   20.1210   42.1680 C.ar  248  TYR248      0.0417
     69  CE2        6.6310   19.2470   40.0200 C.ar  248  TYR248      0.0417
     70  CZ         5.6640   19.5000   40.9760 C.ar  248  TYR248      0.1957
     71  OH         4.3520   19.1400   40.7540 O.3   248  TYR248     -0.2866
     72  N         13.1350   16.4990   40.7330 N.3   251  PHE251     -0.1241
     73  CA        12.5390   16.1880   39.4370 C.3   251  PHE251      0.1605
     74  C         13.2590   16.9340   38.3200 C.2   251  PHE251      0.2264
     75  O         13.6670   16.3280   37.3350 O.2   251  PHE251     -0.2867
     76  CB        11.0480   16.5490   39.4050 C.3   251  PHE251      0.0534
     77  CG        10.1400   15.5190   40.0350 C.ar  251  PHE251     -0.0203
     78  CD1       10.5470   14.1930   40.1930 C.ar  251  PHE251     -0.0042
     79  CD2        8.8570   15.8770   40.4380 C.ar  251  PHE251     -0.0042
     80  CE1        9.7020   13.2460   40.7660 C.ar  251  PHE251     -0.0003
     81  CE2        8.0020   14.9390   41.0130 C.ar  251  PHE251     -0.0003
     82  CZ         8.4270   13.6180   41.1770 C.ar  251  PHE251     -0.0000
     83  N          6.7420   17.3990   31.0860 N.3   267  PRO267     -0.2102
     84  CA         6.5980   18.7130   31.7190 C.3   267  PRO267      0.1504
     85  C          6.9530   18.7310   33.2150 C.2   267  PRO267      0.2575
     86  O          7.5970   19.6690   33.6730 O.2   267  PRO267     -0.2718
     87  CB         5.1180   19.0380   31.4950 C.3   267  PRO267      0.0282
     88  CG         4.7970   18.3680   30.2170 C.3   267  PRO267      0.0208
     89  CD         5.6040   17.1000   30.1950 C.3   267  PRO267      0.0893
     90  N          6.5520   17.6880   33.9400 N.am  268  MET268     -0.1980
     91  CA         6.8170   17.5210   35.3760 C.3   268  MET268      0.1605
     92  C          8.2940   17.6510   35.7990 C.2   268  MET268      0.2287
     93  O          8.5870   18.1110   36.9030 O.2   268  MET268     -0.2864
     94  CB         6.2730   16.1650   35.8230 C.3   268  MET268      0.0413
     95  CG         6.2480   15.9340   37.3110 C.3   268  MET268      0.0598
     96  SD         6.1000   14.1850   37.7120 S.3   268  MET268     -0.1393
     97  CE         7.7980   13.6820   37.5230 C.3   268  MET268      0.0692
     98  N          8.8490   24.8640   33.1590 N.3   273  LYS273     -0.1245
     99  CA         7.4100   24.6630   33.0400 C.3   273  LYS273      0.1561
    100  C          6.6540   24.7830   34.3650 C.2   273  LYS273      0.2260
    101  O          5.5900   24.1830   34.5330 O.2   273  LYS273     -0.2867
    102  CB         7.1090   23.3190   32.3610 C.3   273  LYS273      0.0271
    103  CG         7.5460   23.2340   30.9040 C.3   273  LYS273      0.0035
    104  CD         6.4790   22.5400   30.0800 C.3   273  LYS273      0.0206
    105  CE         6.9760   22.1680   28.6940 C.3   273  LYS273      0.1093
    106  NZ         5.8440   21.7590   27.8110 N.3   273  LYS273     -0.1314
    107  N          2.7410   24.9430   35.2560 N.3   276  GLU276     -0.1231
    108  CA         1.8770   23.7700   35.1620 C.3   276  GLU276      0.1699
    109  C          1.7850   22.9640   36.4680 C.2   276  GLU276      0.2592
    110  O          1.0280   21.9860   36.5500 O.2   276  GLU276     -0.2718
    111  CB         2.3210   22.8760   33.9940 C.3   276  GLU276      0.0402
    112  CG         1.8440   23.3420   32.6150 C.3   276  GLU276      0.1161
    113  CD         2.2280   22.3760   31.5000 C.2   276  GLU276      0.3649
    114  OE1        1.9390   21.1580   31.6180 O.co2 276  GLU276     -0.2457
    115  OE2        2.8200   22.8370   30.5020 O.co2 276  GLU276     -0.2457
    116  N          2.5430   23.3860   37.4780 N.am  277  VAL277     -0.1980
    117  CA         2.6020   22.6880   38.7680 C.3   277  VAL277      0.1595
    118  C          1.2240   22.5390   39.4460 C.2   277  VAL277      0.2287
    119  O          0.7970   21.4140   39.7080 O.2   277  VAL277     -0.2864
    120  CB         3.6590   23.3240   39.7300 C.3   277  VAL277      0.0276
    121  CG1        3.5610   22.7380   41.1280 C.3   277  VAL277      0.0022
    122  CG2        5.0610   23.1320   39.1810 C.3   277  VAL277      0.0022
    123  N         -0.8070   20.3550   37.6760 N.3   280  GLY280     -0.1210
    124  CA        -0.1080   19.0730   37.7370 C.3   280  GLY280      0.1956
    125  C         -0.2920   18.3420   39.0490 C.2   280  GLY280      0.2611
    126  O         -0.2540   17.1140   39.0880 O.2   280  GLY280     -0.2717
    127  N         -0.4890   19.0980   40.1260 N.am  281  GLN281     -0.1979
    128  CA        -0.8030   18.5180   41.4310 C.3   281  GLN281      0.1601
    129  C         -2.2510   18.0280   41.4890 C.2   281  GLN281      0.2287
    130  O         -2.5060   16.9030   41.9360 O.2   281  GLN281     -0.2864
    131  CB        -0.5230   19.5190   42.5460 C.3   281  GLN281      0.0394
    132  CG         0.9530   19.8030   42.7580 C.3   281  GLN281      0.0908
    133  CD         1.6460   18.7340   43.5740 C.2   281  GLN281      0.2608
    134  OE1        1.0240   18.0560   44.3910 O.2   281  GLN281     -0.2717
    135  NE2        2.9500   18.5850   43.3650 N.am  281  GLN281     -0.0878
    136  N         -2.4850   14.6260   40.0520 N.3   284  PHE284     -0.1241
    137  CA        -1.9000   13.5980   40.9050 C.3   284  PHE284      0.1605
    138  C         -2.7900   13.2580   42.1020 C.2   284  PHE284      0.2264
    139  O         -2.8880   12.0900   42.4870 O.2   284  PHE284     -0.2867
    140  CB        -0.5000   14.0290   41.3510 C.3   284  PHE284      0.0534
    141  CG         0.1210   13.1230   42.3640 C.ar  284  PHE284     -0.0203
    142  CD1        0.7250   11.9350   41.9740 C.ar  284  PHE284     -0.0042
    143  CD2        0.1070   13.4600   43.7120 C.ar  284  PHE284     -0.0042
    144  CE1        1.3020   11.0910   42.9120 C.ar  284  PHE284     -0.0003
    145  CE2        0.6770   12.6240   44.6570 C.ar  284  PHE284     -0.0003
    146  CZ         1.2800   11.4360   44.2580 C.ar  284  PHE284     -0.0000
@<TRIPOS>BOND
     1   106   105    1
     2   105   104    1
     3   104   103    1
     4    89    88    1
     5    89    83    1
     6    88    87    1
     7   115   113   ar
     8   103   102    1
     9    83    84    1
    10    87    84    1
    11   113   114   ar
    12   113   112    1
    13    84    85    1
    14   102    99    1
    15   112   111    1
    16    99    98    1
    17    99   100    1
    18    85    86    2
    19    85    90   am
    20    90    91    1
    21   111   108    1
    22   100   101    2
    23   108   107    1
    24   108   109    1
    25    91    92    1
    26    91    94    1
    27    92    93    2
    28    94    95    1
    29   109   110    2
    30   109   116   am
    31    95    96    1
    32    75    74    2
    33   116   117    1
    34    97    96    1
    35   123   124    1
    36   124   125    1
    37    74    73    1
    38   117   118    1
    39   117   120    1
    40   125   126    2
    41   125   127   am
    42   122   120    1
    43    76    73    1
    44    76    77    1
    45    73    72    1
    46   118   119    2
    47   120   121    1
    48    69    67   ar
    49    69    70   ar
    50    77    78   ar
    51    77    79   ar
    52   136   137    1
    53   127   128    1
    54    78    80   ar
    55    67    65   ar
    56    79    81   ar
    57    26    25    2
    58    25    24    1
    59    63    62    2
    60    71    70    1
    61    80    82   ar
    62   137   140    1
    63   137   138    1
    64    70    68   ar
    65    81    82   ar
    66   140   141    1
    67   128   129    1
    68   128   131    1
    69    65    64    1
    70    65    66   ar
    71   129   130    2
    72    27    24    1
    73    27    28    1
    74    64    61    1
    75    62    61    1
    76    24    23    1
    77   142   141   ar
    78   142   144   ar
    79    61    60    1
    80   138   139    2
    81    68    66   ar
    82   141   143   ar
    83    29    28    1
    84   131   132    1
    85   132   133    1
    86    55    54    2
    87    28    30    1
    88   144   146   ar
    89    60    54   am
    90   135   133   am
    91    54    53    1
    92   133   134    2
    93   143   145   ar
    94   146   145   ar
    95    58    56    1
    96    21    19   ar
    97    21    22   ar
    98    56    53    1
    99    56    57    1
   100    53    52    1
   101    19    18   ar
   102    22    20   ar
   103    59    57    1
   104    18    20   ar
   105    18    17    1
   106    38    36    1
   107    37    36    1
   108     8    10   ar
   109     8     6   ar
   110    17    14    1
   111     5     6    1
   112     5     2    1
   113    10    11   ar
   114    36    35    1
   115     6     7   ar
   116     1     2    1
   117    13    14    1
   118    13     3   am
   119    14    15    1
   120     2     3    1
   121    50    49    1
   122    11    12    1
   123    11     9   ar
   124    35    32    1
   125     7     9   ar
   126     3     4    2
   127    16    15    2
   128    49    51    1
   129    49    46    1
   130    32    31    1
   131    32    33    1
   132    44    43    1
   133    34    33    2
   134    46    45    1
   135    46    47    1
   136    45    41   am
   137    43    40    1
   138    48    47    2
   139    41    42    2
   140    41    40    1
   141    40    39    1
