@<TRIPOS>MOLECULE
tmp/4msfA06.pdb
 102 100 0 0 0
SMALL
GASTEIGER

@<TRIPOS>ATOM
      1  N          9.7270    2.0270   18.8730 N.3   105  GLN105     -0.1245
      2  CA         8.7530    2.1150   19.9670 C.3   105  GLN105      0.1566
      3  C          7.3790    1.6260   19.4780 C.2   105  GLN105      0.2260
      4  O          6.6550    0.9430   20.2090 O.2   105  GLN105     -0.2867
      5  CB         8.6390    3.5280   20.5490 C.3   105  GLN105      0.0367
      6  CG         7.9330    3.5760   21.9130 C.3   105  GLN105      0.0905
      7  CD         7.8030    4.9940   22.4650 C.2   105  GLN105      0.2608
      8  OE1        7.9270    5.9780   21.7420 O.2   105  GLN105     -0.2717
      9  NE2        7.5250    5.0950   23.7360 N.am  105  GLN105     -0.0878
     10  N          5.2200   -1.5580   20.8750 N.3   109  HIS109     -0.1241
     11  CA         3.8730   -1.4560   21.4340 C.3   109  HIS109      0.1621
     12  C          2.8670   -2.3370   20.7250 C.2   109  HIS109      0.2264
     13  O          1.8520   -2.6840   21.3150 O.2   109  HIS109     -0.2867
     14  CB         3.3980   -0.0140   21.4310 C.3   109  HIS109      0.0745
     15  CG         4.0620    0.8170   22.4660 C.ar  109  HIS109      0.0817
     16  ND1        3.7100    2.1290   22.7170 N.ar  109  HIS109     -0.2268
     17  CD2        5.0620    0.5210   23.3290 C.ar  109  HIS109      0.1154
     18  CE1        4.4590    2.6010   23.6920 C.ar  109  HIS109      0.1986
     19  NE2        5.2690    1.6430   24.0920 N.ar  109  HIS109     -0.2212
     20  N          2.9370   -5.7420   25.9840 N.3   113  PHE113     -0.1241
     21  CA         2.5640   -4.8460   27.0770 C.3   113  PHE113      0.1605
     22  C          2.2790   -5.6640   28.3130 C.2   113  PHE113      0.2264
     23  O          1.3580   -6.4520   28.3330 O.2   113  PHE113     -0.2867
     24  CB         1.3430   -4.0360   26.7120 C.3   113  PHE113      0.0534
     25  CG         0.9400   -3.0210   27.7470 C.ar  113  PHE113     -0.0203
     26  CD1        1.8750   -2.3180   28.4740 C.ar  113  PHE113     -0.0042
     27  CD2       -0.4060   -2.7630   27.9680 C.ar  113  PHE113     -0.0042
     28  CE1        1.4770   -1.3750   29.4150 C.ar  113  PHE113     -0.0003
     29  CE2       -0.8110   -1.8300   28.9100 C.ar  113  PHE113     -0.0003
     30  CZ         0.1340   -1.1290   29.6270 C.ar  113  PHE113     -0.0000
     31  N         -2.8240    1.6820   25.0130 N.3   253  SER253     -0.1202
     32  CA        -3.0490    2.6670   26.0770 C.3   253  SER253      0.2020
     33  C         -1.8700    3.6610   26.2740 C.2   253  SER253      0.2618
     34  O         -2.0130    4.6660   26.9690 O.2   253  SER253     -0.2717
     35  CB        -3.2960    1.9250   27.3920 C.3   253  SER253      0.2103
     36  OG        -2.0810    1.3100   27.8420 O.3   253  SER253     -0.2182
     37  N         -0.7110    3.3690   25.6870 N.am  254  ARG254     -0.1979
     38  CA         0.4880    4.1570   25.9250 C.3   254  ARG254      0.1597
     39  C          0.7140    5.2570   24.8970 C.2   254  ARG254      0.2287
     40  O          1.7130    5.9540   24.9920 O.2   254  ARG254     -0.2864
     41  CB         1.7280    3.2480   25.9040 C.3   254  ARG254      0.0334
     42  CG         1.7280    2.1300   26.9260 C.3   254  ARG254      0.0492
     43  CD         2.7420    1.0610   26.5490 C.3   254  ARG254      0.2205
     44  NE         2.1940    0.1320   25.5720 N.pl3 254  ARG254     -0.0865
     45  CZ         2.7760   -0.9890   25.1770 C.cat 254  ARG254      0.5346
     46  NH1        3.9380   -1.3880   25.6880 N.pl3 254  ARG254      0.1354
     47  NH2        2.1670   -1.7310   24.2700 N.pl3 254  ARG254      0.1354
     48  N          2.4050    8.7340   25.5230 N.3   257  GLU257     -0.1245
     49  CA         3.5350    8.7190   26.4370 C.3   257  GLU257      0.1567
     50  C          4.5830    9.7600   26.0450 C.2   257  GLU257      0.2260
     51  O          5.2400   10.3190   26.8990 O.2   257  GLU257     -0.2867
     52  CB         4.1930    7.3520   26.4500 C.3   257  GLU257      0.0388
     53  CG         5.3600    7.2600   27.4480 C.3   257  GLU257      0.1160
     54  CD         6.7350    7.4960   26.8680 C.2   257  GLU257      0.3649
     55  OE1        6.9210    7.4870   25.6230 O.co2 257  GLU257     -0.2457
     56  OE2        7.6800    7.6390   27.6910 O.co2 257  GLU257     -0.2457
     57  N          3.5300   12.7950   27.8770 N.3   380  PHE380     -0.1241
     58  CA         2.0830   13.0210   28.0240 C.3   380  PHE380      0.1605
     59  C          1.6700   14.4200   27.6130 C.2   380  PHE380      0.2264
     60  O          0.8060   15.0550   28.2300 O.2   380  PHE380     -0.2867
     61  CB         1.6560   12.6470   29.4360 C.3   380  PHE380      0.0534
     62  CG         1.9660   11.2090   29.7400 C.ar  380  PHE380     -0.0203
     63  CD1        1.1370   10.2070   29.2620 C.ar  380  PHE380     -0.0042
     64  CD2        3.1360   10.8680   30.3750 C.ar  380  PHE380     -0.0042
     65  CE1        1.4300    8.8740   29.4900 C.ar  380  PHE380     -0.0003
     66  CE2        3.4490    9.5370   30.5960 C.ar  380  PHE380     -0.0003
     67  CZ         2.5880    8.5400   30.1540 C.ar  380  PHE380     -0.0000
     68  N         11.8660   11.3760   33.9220 N.3   420  LEU420     -0.1231
     69  CA        10.6900   10.6490   33.4570 C.3   420  LEU420      0.1693
     70  C          9.4390   10.9980   34.2730 C.2   420  LEU420      0.2592
     71  O          9.5000   11.1320   35.4930 O.2   420  LEU420     -0.2718
     72  CB        10.9350    9.1470   33.5140 C.3   420  LEU420      0.0284
     73  CG         9.8220    8.2600   32.9800 C.3   420  LEU420      0.0019
     74  CD1        9.5990    8.5150   31.5010 C.3   420  LEU420      0.0001
     75  CD2       10.1450    6.8100   33.2680 C.3   420  LEU420      0.0001
     76  N          8.3240   11.1710   33.5670 N.am  421  PHE421     -0.1962
     77  CA         7.0310   11.3880   34.2050 C.3   421  PHE421      0.1771
     78  C          6.2440   10.1000   34.0830 C.2   421  PHE421      0.2619
     79  O          6.1880    9.4880   33.0010 O.2   421  PHE421     -0.2715
     80  CB         6.2760   12.5370   33.5400 C.3   421  PHE421      0.0574
     81  CG         4.9110   12.7780   34.1200 C.ar  421  PHE421     -0.0200
     82  CD1        3.8110   12.0680   33.6610 C.ar  421  PHE421     -0.0042
     83  CD2        4.7260   13.7120   35.1190 C.ar  421  PHE421     -0.0042
     84  CE1        2.5610   12.2720   34.1970 C.ar  421  PHE421     -0.0003
     85  CE2        3.4770   13.9450   35.6480 C.ar  421  PHE421     -0.0003
     86  CZ         2.3860   13.2180   35.1880 C.ar  421  PHE421     -0.0000
     87  N          5.6850    9.6770   35.1990 N.am  422  GLN422     -0.1964
     88  CA         4.8130    8.5020   35.2510 C.3   422  GLN422      0.1718
     89  C          3.4220    8.9200   35.7100 C.2   422  GLN422      0.2455
     90  O          3.2940    9.6180   36.7200 O.2   422  GLN422     -0.2730
     91  CB         5.3870    7.4880   36.2190 C.3   422  GLN422      0.0407
     92  CG         6.7360    6.9840   35.7690 C.3   422  GLN422      0.0908
     93  CD         6.7880    5.4750   35.6830 C.2   422  GLN422      0.2608
     94  OE1        6.9970    4.8030   36.6930 O.2   422  GLN422     -0.2717
     95  NE2        6.6250    4.9390   34.4760 N.am  422  GLN422     -0.0878
     96  N          2.3760    8.5300   35.0090 N.am  423  PRO423     -0.2772
     97  CA         1.0470    8.9910   35.4050 C.3   423  PRO423      0.1083
     98  C          0.6970    8.6030   36.8630 C.3   423  PRO423      0.2017
     99  O          1.2160    7.5360   37.0660 O.3   423  PRO423     -0.2186
    100  CB         0.1300    8.3270   34.4030 C.3   423  PRO423      0.0243
    101  CG         0.9760    8.1160   33.2270 C.3   423  PRO423      0.0233
    102  CD         2.3460    7.8440   33.7180 C.3   423  PRO423      0.0935
@<TRIPOS>BOND
     1     1     2    1
     2     3     2    1
     3     3     4    2
     4     2     5    1
     5     5     6    1
     6    12    13    2
     7    12    11    1
     8    10    11    1
     9    14    11    1
    10    14    15    1
    11     8     7    2
    12     6     7    1
    13     7     9   am
    14    15    16   ar
    15    15    17   ar
    16    16    18   ar
    17    17    19   ar
    18    18    19   ar
    19    47    45    1
    20    39    40    2
    21    39    38    1
    22    31    32    1
    23    45    44    2
    24    45    46    1
    25    48    49    1
    26    44    43    1
    27    55    54   ar
    28    37    38    1
    29    37    33   am
    30    41    38    1
    31    41    42    1
    32    20    21    1
    33    50    49    1
    34    50    51    2
    35    32    33    1
    36    32    35    1
    37    33    34    2
    38    49    52    1
    39    52    53    1
    40    43    42    1
    41    24    21    1
    42    24    25    1
    43    54    53    1
    44    54    56   ar
    45    21    22    1
    46    35    36    1
    47    59    58    1
    48    59    60    2
    49    25    27   ar
    50    25    26   ar
    51    57    58    1
    52    27    29   ar
    53    58    61    1
    54    22    23    2
    55    26    28   ar
    56    29    30   ar
    57    63    65   ar
    58    63    62   ar
    59    28    30   ar
    60    61    62    1
    61    65    67   ar
    62    62    64   ar
    63    67    66   ar
    64    64    66   ar
    65    74    73    1
    66    73    75    1
    67    73    72    1
    68    79    78    2
    69   101   102    1
    70   101   100    1
    71    69    72    1
    72    69    68    1
    73    69    70    1
    74    80    81    1
    75    80    77    1
    76    76    77    1
    77    76    70   am
    78    82    81   ar
    79    82    84   ar
    80   102    96    1
    81    78    77    1
    82    78    87   am
    83    81    83   ar
    84    84    86   ar
    85    70    71    2
    86   100    97    1
    87    95    93   am
    88    96    97    1
    89    96    89   am
    90    83    85   ar
    91    86    85   ar
    92    87    88    1
    93    88    89    1
    94    88    91    1
    95    97    98    1
    96    93    92    1
    97    93    94    2
    98    89    90    2
    99    92    91    1
   100    98    99    1
