@<TRIPOS>MOLECULE
tmp/4msgA00.pdb
 202 201 0 0 0
SMALL
GASTEIGER

@<TRIPOS>ATOM
      1  N          1.0070   37.4330   31.2570 N.3    80  HIS80      -0.1226
      2  CA        -0.0840   38.3200   30.9020 C.3    80  HIS80       0.1752
      3  C         -0.7860   38.7250   32.1840 C.2    80  HIS80       0.2597
      4  O         -1.0510   37.8910   33.0410 O.2    80  HIS80      -0.2718
      5  CB        -1.1160   37.6570   29.9860 C.3    80  HIS80       0.0759
      6  CG        -2.3320   38.5060   29.7640 C.ar   80  HIS80       0.0818
      7  ND1       -2.3470   39.5850   28.9070 N.ar   80  HIS80      -0.2268
      8  CD2       -3.5490   38.4840   30.3630 C.ar   80  HIS80       0.1154
      9  CE1       -3.5200   40.1940   28.9890 C.ar   80  HIS80       0.1986
     10  NE2       -4.2650   39.5450   29.8670 N.ar   80  HIS80      -0.2212
     11  N         -1.0610   40.0180   32.3050 N.am   81  GLY81      -0.1942
     12  CA        -1.7640   40.5260   33.4610 C.3    81  GLY81       0.2014
     13  C         -2.8480   41.4760   32.9880 C.2    81  GLY81       0.2640
     14  O         -2.6040   42.3000   32.1280 O.2    81  GLY81      -0.2714
     15  N         -4.0450   41.3460   33.5500 N.am   82  SER82      -0.1936
     16  CA        -5.1660   42.2060   33.1990 C.3    82  SER82       0.2040
     17  C         -6.3390   41.8770   34.1050 C.2    82  SER82       0.2485
     18  O         -6.3540   40.8530   34.7580 O.2    82  SER82      -0.2729
     19  CB        -5.5840   42.0060   31.7350 C.3    82  SER82       0.2129
     20  OG        -6.1830   40.7310   31.5410 O.3    82  SER82      -0.2179
     21  N         -7.3400   42.7650   34.1540 N.am   83  PRO83      -0.2715
     22  CA        -8.5260   42.5540   34.9950 C.3    83  PRO83       0.1536
     23  C         -9.4370   41.4330   34.4850 C.2    83  PRO83       0.2598
     24  O        -10.4190   41.1110   35.1210 O.2    83  PRO83      -0.2715
     25  CB        -9.2380   43.9080   34.9430 C.3    83  PRO83       0.0310
     26  CG        -8.1310   44.8810   34.6510 C.3    83  PRO83       0.0237
     27  CD        -7.3190   44.1340   33.6140 C.3    83  PRO83       0.0939
     28  N         -9.0930   40.8400   33.3450 N.am   84  PHE84      -0.1974
     29  CA        -9.9150   39.7870   32.7350 C.3    84  PHE84       0.1639
     30  C         -9.4820   38.3550   33.0540 C.2    84  PHE84       0.2290
     31  O        -10.0680   37.4120   32.5370 O.2    84  PHE84      -0.2864
     32  CB        -9.9020   39.9340   31.2040 C.3    84  PHE84       0.0560
     33  CG       -10.4040   41.2600   30.6880 C.ar   84  PHE84      -0.0200
     34  CD1      -11.7640   41.4680   30.4460 C.ar   84  PHE84      -0.0042
     35  CD2       -9.5180   42.3010   30.4450 C.ar   84  PHE84      -0.0042
     36  CE1      -12.2240   42.6870   29.9340 C.ar   84  PHE84      -0.0003
     37  CE2       -9.9660   43.5230   29.9320 C.ar   84  PHE84      -0.0003
     38  CZ       -11.3230   43.7180   29.6930 C.ar   84  PHE84      -0.0000
     39  N        -12.0570   35.4830   33.8900 N.3    87  ALA87      -0.1231
     40  CA       -12.8790   35.1240   32.7410 C.3    87  ALA87       0.1694
     41  C        -12.0560   34.2970   31.7630 C.2    87  ALA87       0.2591
     42  O        -12.5440   33.3270   31.1940 O.2    87  ALA87      -0.2718
     43  CB       -13.4080   36.3850   32.0520 C.3    87  ALA87       0.0304
     44  N        -10.8010   34.6930   31.5810 N.am   88  ILE88      -0.1980
     45  CA        -9.8980   33.9990   30.6730 C.3    88  ILE88       0.1595
     46  C         -9.6370   32.5430   31.0540 C.2    88  ILE88       0.2287
     47  O         -9.6360   31.6780   30.2020 O.2    88  ILE88      -0.2864
     48  CB        -8.5280   34.7120   30.5980 C.3    88  ILE88       0.0276
     49  CG1       -8.6940   36.1080   29.9920 C.3    88  ILE88       0.0022
     50  CG2       -7.5540   33.8820   29.7740 C.3    88  ILE88       0.0022
     51  CD1       -7.4540   36.9680   30.1040 C.3    88  ILE88       0.0001
     52  N        -12.9250   30.6000   30.0560 N.3    91  LYS91      -0.1231
     53  CA       -13.3670   30.5270   28.6590 C.3    91  LYS91       0.1693
     54  C        -12.2440   30.5950   27.6250 C.2    91  LYS91       0.2593
     55  O        -12.4760   30.3800   26.4200 O.2    91  LYS91      -0.2718
     56  CB       -14.3470   31.6640   28.3540 C.3    91  LYS91       0.0285
     57  CG       -15.4280   31.9080   29.3880 C.3    91  LYS91       0.0035
     58  CD       -16.1800   33.1880   29.0120 C.3    91  LYS91       0.0206
     59  CE       -17.1100   33.6780   30.1080 C.3    91  LYS91       0.1093
     60  NZ       -17.6420   35.0450   29.7880 N.3    91  LYS91      -0.1314
     61  N        -11.0340   30.8960   28.0830 N.am   92  GLY92      -0.1942
     62  CA        -9.9170   31.0340   27.1700 C.3    92  GLY92       0.2014
     63  C         -9.8480   32.4960   26.7600 C.2    92  GLY92       0.2639
     64  O        -10.7920   33.2470   27.0110 O.2    92  GLY92      -0.2714
     65  N         -8.7370   32.9100   26.1540 N.am   93  PHE93      -0.1959
     66  CA        -8.5830   34.2940   25.7090 C.3    93  PHE93       0.1771
     67  C         -9.5730   34.5990   24.5840 C.2    93  PHE93       0.2619
     68  O         -9.9050   33.7160   23.7930 O.2    93  PHE93      -0.2715
     69  CB        -7.1580   34.5420   25.2100 C.3    93  PHE93       0.0574
     70  CG        -6.1350   34.6360   26.3030 C.ar   93  PHE93      -0.0200
     71  CD1       -5.9070   35.8390   26.9660 C.ar   93  PHE93      -0.0042
     72  CD2       -5.3910   33.5180   26.6670 C.ar   93  PHE93      -0.0042
     73  CE1       -4.9470   35.9310   27.9730 C.ar   93  PHE93      -0.0003
     74  CE2       -4.4270   33.5940   27.6740 C.ar   93  PHE93      -0.0003
     75  CZ        -4.2060   34.8080   28.3300 C.ar   93  PHE93      -0.0000
     76  N        -10.0160   35.8520   24.5100 N.am   94  ASP94      -0.1971
     77  CA       -10.9910   36.2730   23.5020 C.3    94  ASP94       0.1709
     78  C        -10.5910   37.6420   22.9520 C.2    94  ASP94       0.2293
     79  O        -10.7390   38.6430   23.6250 O.2    94  ASP94      -0.2864
     80  CB       -12.3790   36.3640   24.1450 C.3    94  ASP94       0.1436
     81  CG       -13.4860   36.5650   23.1320 C.2    94  ASP94       0.3671
     82  OD1      -13.1760   36.8470   21.9480 O.co2  94  ASP94      -0.2456
     83  OD2      -14.6700   36.4340   23.5330 O.co2  94  ASP94      -0.2456
     84  N        -12.3460   41.2360   23.1560 N.3    97  HIS97      -0.1226
     85  CA       -12.2290   42.1650   24.2710 C.3    97  HIS97       0.1752
     86  C        -10.9880   43.0390   24.1240 C.2    97  HIS97       0.2595
     87  O        -10.5810   43.7300   25.0630 O.2    97  HIS97      -0.2718
     88  CB       -12.2000   41.3990   25.6010 C.3    97  HIS97       0.0759
     89  CG       -13.5330   40.8470   26.0050 C.ar   97  HIS97       0.0818
     90  ND1      -13.9830   39.6170   25.5920 N.ar   97  HIS97      -0.2268
     91  CD2      -14.5250   41.3840   26.7570 C.ar   97  HIS97       0.1154
     92  CE1      -15.2020   39.4140   26.0700 C.ar   97  HIS97       0.1986
     93  NE2      -15.5470   40.4730   26.7780 N.ar   97  HIS97      -0.2212
     94  N        -10.3920   42.9920   22.9360 N.am   98  ALA98      -0.1980
     95  CA        -9.2010   43.7770   22.6290 C.3    98  ALA98       0.1597
     96  C         -9.6160   44.9080   21.6900 C.2    98  ALA98       0.2287
     97  O        -10.2650   44.6740   20.6710 O.2    98  ALA98      -0.2864
     98  CB        -8.1530   42.9010   21.9620 C.3    98  ALA98       0.0319
     99  N         -2.2110   50.7780   22.6850 N.3   104  PHE104     -0.1241
    100  CA        -2.4360   49.3960   22.2940 C.3   104  PHE104      0.1605
    101  C         -3.3330   49.1520   21.0890 C.2   104  PHE104      0.2264
    102  O         -4.3200   49.8560   20.8720 O.2   104  PHE104     -0.2867
    103  CB        -3.0080   48.6320   23.4870 C.3   104  PHE104      0.0534
    104  CG        -2.1350   48.6750   24.6990 C.ar  104  PHE104     -0.0203
    105  CD1       -0.9070   48.0300   24.7030 C.ar  104  PHE104     -0.0042
    106  CD2       -2.5180   49.3960   25.8220 C.ar  104  PHE104     -0.0042
    107  CE1       -0.0670   48.1040   25.8090 C.ar  104  PHE104     -0.0003
    108  CE2       -1.6840   49.4750   26.9320 C.ar  104  PHE104     -0.0003
    109  CZ        -0.4560   48.8280   26.9230 C.ar  104  PHE104     -0.0000
    110  N         -5.2130   43.7170   20.1150 N.3   107  GLY107     -0.1210
    111  CA        -4.6500   42.4020   20.3450 C.3   107  GLY107      0.1956
    112  C         -4.4170   42.1590   21.8220 C.2   107  GLY107      0.2612
    113  O         -4.6360   43.0400   22.6400 O.2   107  GLY107     -0.2717
    114  N         -3.9690   40.9500   22.1470 N.am  108  ILE108     -0.1965
    115  CA        -3.6870   40.5660   23.5220 C.3   108  ILE108      0.1727
    116  C         -2.1700   40.6210   23.6800 C.2   108  ILE108      0.2616
    117  O         -1.4360   40.0010   22.9290 O.2   108  ILE108     -0.2715
    118  CB        -4.2090   39.1440   23.8170 C.3   108  ILE108      0.0290
    119  CG1       -5.6590   39.0150   23.3220 C.3   108  ILE108      0.0022
    120  CG2       -4.1290   38.8620   25.3190 C.3   108  ILE108      0.0023
    121  CD1       -6.2230   37.6050   23.3670 C.3   108  ILE108      0.0001
    122  N         -1.7190   41.3850   24.6660 N.am  109  TYR109     -0.1960
    123  CA        -0.3000   41.5800   24.9150 C.3   109  TYR109      0.1771
    124  C          0.2820   40.6750   25.9920 C.2   109  TYR109      0.2620
    125  O         -0.3570   40.4020   26.9900 O.2   109  TYR109     -0.2715
    126  CB        -0.0550   43.0400   25.2950 C.3   109  TYR109      0.0574
    127  CG        -0.2480   44.0150   24.1580 C.ar  109  TYR109     -0.0198
    128  CD1       -1.5000   44.2190   23.5870 C.ar  109  TYR109     -0.0009
    129  CD2        0.8280   44.7280   23.6460 C.ar  109  TYR109     -0.0009
    130  CE1       -1.6690   45.1090   22.5320 C.ar  109  TYR109      0.0417
    131  CE2        0.6730   45.6150   22.5960 C.ar  109  TYR109      0.0417
    132  CZ        -0.5790   45.8030   22.0370 C.ar  109  TYR109      0.1957
    133  OH        -0.7200   46.6660   20.9730 O.3   109  TYR109     -0.2866
    134  N          1.5130   40.2290   25.7660 N.am  110  PHE110     -0.1960
    135  CA         2.2350   39.3620   26.7000 C.3   110  PHE110      0.1771
    136  C          3.6400   39.9100   26.9310 C.2   110  PHE110      0.2619
    137  O          4.1930   40.6110   26.0770 O.2   110  PHE110     -0.2715
    138  CB         2.3320   37.9450   26.1420 C.3   110  PHE110      0.0574
    139  CG         1.0050   37.2750   25.9900 C.ar  110  PHE110     -0.0200
    140  CD1        0.5400   36.4030   26.9660 C.ar  110  PHE110     -0.0042
    141  CD2        0.2000   37.5400   24.8840 C.ar  110  PHE110     -0.0042
    142  CE1       -0.7080   35.8040   26.8480 C.ar  110  PHE110     -0.0003
    143  CE2       -1.0500   36.9470   24.7590 C.ar  110  PHE110     -0.0003
    144  CZ        -1.5030   36.0760   25.7400 C.ar  110  PHE110     -0.0000
    145  N          4.2270   39.5750   28.0760 N.am  111  ALA111     -0.1977
    146  CA         5.5610   40.0670   28.4080 C.3   111  ALA111      0.1597
    147  C          6.4990   38.9690   28.8880 C.2   111  ALA111      0.2287
    148  O          6.0650   37.9850   29.4670 O.2   111  ALA111     -0.2864
    149  CB         5.4540   41.1370   29.4840 C.3   111  ALA111      0.0319
    150  N          6.3720   43.5180   34.2350 N.3   116  LYS116     -0.1231
    151  CA         5.6790   44.3130   33.2260 C.3   116  LYS116      0.1693
    152  C          4.1850   43.9820   33.2910 C.2   116  LYS116      0.2592
    153  O          3.3490   44.8510   33.3240 O.2   116  LYS116     -0.2718
    154  CB         6.2210   44.0000   31.8290 C.3   116  LYS116      0.0285
    155  CG         5.4740   44.6910   30.7210 C.3   116  LYS116      0.0035
    156  CD         5.6160   46.2210   30.8000 C.3   116  LYS116      0.0206
    157  CE         5.0080   46.8540   29.5740 C.3   116  LYS116      0.1093
    158  NZ         5.1450   48.3390   29.5830 N.3   116  LYS116     -0.1314
    159  N          3.8790   42.6890   33.3030 N.am  117  SER117     -0.1952
    160  CA         2.4980   42.2430   33.3770 C.3   117  SER117      0.1924
    161  C          1.8540   42.6930   34.6860 C.2   117  SER117      0.2314
    162  O          0.6570   42.9250   34.7390 O.2   117  SER117     -0.2863
    163  CB         2.4160   40.7170   33.2570 C.3   117  SER117      0.2116
    164  OG         2.7830   40.2870   31.9580 O.3   117  SER117     -0.2180
    165  N         -0.2590   45.7940   34.7540 N.3   120  TYR120     -0.1241
    166  CA        -1.5840   45.7970   34.1410 C.3   120  TYR120      0.1605
    167  C         -2.6530   44.9990   34.8740 C.2   120  TYR120      0.2264
    168  O         -3.7820   44.9090   34.4250 O.2   120  TYR120     -0.2867
    169  CB        -1.4830   45.3070   32.6920 C.3   120  TYR120      0.0534
    170  CG        -0.6160   46.1990   31.8280 C.ar  120  TYR120     -0.0201
    171  CD1        0.7700   46.0170   31.7670 C.ar  120  TYR120     -0.0009
    172  CD2       -1.1750   47.2490   31.1050 C.ar  120  TYR120     -0.0009
    173  CE1        1.5730   46.8570   30.9960 C.ar  120  TYR120      0.0417
    174  CE2       -0.3880   48.0910   30.3420 C.ar  120  TYR120      0.0417
    175  CZ         0.9820   47.8940   30.2890 C.ar  120  TYR120      0.1957
    176  OH         1.7520   48.7230   29.5120 O.3   120  TYR120     -0.2866
    177  N         -5.4760   47.2090   35.4640 N.3   123  GLY123     -0.1210
    178  CA        -5.8400   48.0550   34.3400 C.3   123  GLY123      0.1956
    179  C         -4.6330   48.7720   33.7610 C.2   123  GLY123      0.2611
    180  O         -3.5550   48.7520   34.3410 O.2   123  GLY123     -0.2717
    181  N         -4.8270   49.4030   32.6080 N.am  124  ILE124     -0.1979
    182  CA        -3.7690   50.1300   31.9130 C.3   124  ILE124      0.1595
    183  C         -3.1150   51.1840   32.8090 C.2   124  ILE124      0.2287
    184  O         -3.7900   52.0700   33.3100 O.2   124  ILE124     -0.2864
    185  CB        -4.3470   50.8140   30.6540 C.3   124  ILE124      0.0276
    186  CG1       -4.7110   49.7460   29.6150 C.3   124  ILE124      0.0022
    187  CG2       -3.3480   51.8170   30.0960 C.3   124  ILE124      0.0022
    188  CD1       -5.7200   50.2190   28.6010 C.3   124  ILE124      0.0001
    189  N         10.2940   44.3850   24.8570 N.3   186  ALA186     -0.1231
    190  CA         9.4910   43.7980   23.7970 C.3   186  ALA186      0.1694
    191  C          8.1230   43.3580   24.2960 C.2   186  ALA186      0.2591
    192  O          7.9970   42.8430   25.4110 O.2   186  ALA186     -0.2718
    193  CB        10.2240   42.6030   23.2030 C.3   186  ALA186      0.0304
    194  N          7.1020   43.5630   23.4710 N.am  187  GLU187     -0.1979
    195  CA         5.7610   43.1320   23.8290 C.3   187  GLU187      0.1602
    196  C          5.2650   42.2020   22.7310 C.2   187  GLU187      0.2287
    197  O          5.3620   42.5200   21.5560 O.2   187  GLU187     -0.2864
    198  CB         4.8180   44.3310   24.0280 C.3   187  GLU187      0.0415
    199  CG         4.9910   45.4890   23.0690 C.3   187  GLU187      0.1163
    200  CD         4.3610   46.6810   23.8780 C.2   187  GLU187      0.3649
    201  OE1        4.6660   46.8430   25.0730 O.co2 187  GLU187     -0.2457
    202  OE2        3.5710   47.4580   23.3340 O.co2 187  GLU187     -0.2457
@<TRIPOS>BOND
     1   110   111    1
     2   111   112    1
     3    97    96    2
     4   102   101    2
     5   133   132    1
     6   101   100    1
     7   197   196    2
     8    96    95    1
     9   112   114   am
    10   112   113    2
    11    82    81   ar
    12    98    95    1
    13   132   130   ar
    14   132   131   ar
    15   114   115    1
    16   100    99    1
    17   100   103    1
    18   130   128   ar
    19   131   129   ar
    20    95    94    1
    21   196   195    1
    22   117   116    2
    23    94    86   am
    24    78    77    1
    25    78    79    2
    26   199   200    1
    27   199   198    1
    28    81    83   ar
    29    81    80    1
    30    84    85    1
    31   193   190    1
    32   119   121    1
    33   119   118    1
    34   202   200   ar
    35   194   195    1
    36   194   191   am
    37   103   104    1
    38    77    80    1
    39    77    76    1
    40   115   116    1
    41   115   118    1
    42   128   127   ar
    43   129   127   ar
    44   116   122   am
    45    68    67    2
    46   190   191    1
    47   190   189    1
    48   118   120    1
    49   195   198    1
    50   200   201   ar
    51    86    85    1
    52    86    87    2
    53   127   126    1
    54    85    88    1
    55   191   192    2
    56    76    67   am
    57    67    66    1
    58   122   123    1
    59   104   105   ar
    60   104   106   ar
    61   105   107   ar
    62   143   141   ar
    63   143   144   ar
    64   141   139   ar
    65   123   126    1
    66   123   124    1
    67    69    66    1
    68    69    70    1
    69    90    89   ar
    70    90    92   ar
    71    88    89    1
    72    66    65    1
    73   144   142   ar
    74   134   124   am
    75   134   135    1
    76   107   109   ar
    77   106   108   ar
    78   139   138    1
    79   139   140   ar
    80   124   125    2
    81    89    91   ar
    82    92    93   ar
    83   137   136    2
    84   138   135    1
    85    65    63   am
    86    70    72   ar
    87    70    71   ar
    88    55    54    2
    89    72    74   ar
    90   135   136    1
    91    91    93   ar
    92    63    64    2
    93    63    62    1
    94   142   140   ar
    95   109   108   ar
    96   136   145   am
    97    71    73   ar
    98    62    61    1
    99    54    61   am
   100    54    53    1
   101    74    75   ar
   102    73    75   ar
   103   145   146    1
   104    56    53    1
   105    56    57    1
   106   146   147    1
   107   146   149    1
   108   188   186    1
   109    53    52    1
   110   147   148    2
   111     7     9   ar
   112     7     6   ar
   113     9    10   ar
   114    58    57    1
   115    58    59    1
   116   176   175    1
   117   157   158    1
   118   157   156    1
   119   186   185    1
   120    38    37   ar
   121    38    36   ar
   122     6     5    1
   123     6     8   ar
   124    50    48    1
   125    60    59    1
   126    10     8   ar
   127    37    35   ar
   128    36    34   ar
   129     5     2    1
   130    49    51    1
   131    49    48    1
   132   187   185    1
   133    47    46    2
   134   175   174   ar
   135   175   173   ar
   136   174   172   ar
   137    35    33   ar
   138    34    33   ar
   139    48    45    1
   140   185   182    1
   141    45    46    1
   142    45    44    1
   143    33    32    1
   144   155   156    1
   145   155   154    1
   146     2     1    1
   147     2     3    1
   148   173   171   ar
   149   172   170   ar
   150    42    41    2
   151    32    29    1
   152    20    19    1
   153    44    41   am
   154    19    16    1
   155    41    40    1
   156   171   170   ar
   157   170   169    1
   158   154   151    1
   159   182   181    1
   160   182   183    1
   161   164   163    1
   162    43    40    1
   163    14    13    2
   164     3    11   am
   165     3     4    2
   166    11    12    1
   167    31    30    2
   168   181   179   am
   169   169   166    1
   170    29    30    1
   171    29    28    1
   172    40    39    1
   173   183   184    2
   174    13    12    1
   175    13    15   am
   176    16    15    1
   177    16    17    1
   178   151   152    1
   179   151   150    1
   180   163   160    1
   181   152   159   am
   182   152   153    2
   183   159   160    1
   184    28    23   am
   185   160   161    1
   186    27    21    1
   187    27    26    1
   188   179   178    1
   189   179   180    2
   190    17    21   am
   191    17    18    2
   192   166   165    1
   193   166   167    1
   194    21    22    1
   195   178   177    1
   196   168   167    2
   197    23    22    1
   198    23    24    2
   199    26    25    1
   200   161   162    2
   201    25    22    1
