@<TRIPOS>MOLECULE
tmp/4mshA00.pdb
 109 103 0 0 0
SMALL
GASTEIGER

@<TRIPOS>ATOM
      1  N        -14.7130  -26.1100   30.9150 N.3    78  TYR78      -0.1241
      2  CA       -13.5280  -26.7290   30.3210 C.3    78  TYR78       0.1605
      3  C        -13.7000  -28.1590   29.8010 C.2    78  TYR78       0.2264
      4  O        -13.4090  -28.4260   28.6360 O.2    78  TYR78      -0.2867
      5  CB       -12.3330  -26.6550   31.2740 C.3    78  TYR78       0.0534
      6  CG       -11.0590  -27.2570   30.7080 C.ar   78  TYR78      -0.0201
      7  CD1      -10.4350  -26.7020   29.5910 C.ar   78  TYR78      -0.0009
      8  CD2      -10.4800  -28.3810   31.2940 C.ar   78  TYR78      -0.0009
      9  CE1       -9.2570  -27.2590   29.0690 C.ar   78  TYR78       0.0417
     10  CE2       -9.3020  -28.9420   30.7810 C.ar   78  TYR78       0.0417
     11  CZ        -8.6970  -28.3740   29.6720 C.ar   78  TYR78       0.1957
     12  OH        -7.5340  -28.9280   29.1730 O.3    78  TYR78      -0.2866
     13  N         -4.7330  -38.2110   36.3010 N.3   189  LEU189     -0.1245
     14  CA        -3.4190  -37.6380   36.5910 C.3   189  LEU189      0.1561
     15  C         -2.6960  -38.2450   37.8000 C.2   189  LEU189      0.2260
     16  O         -1.4730  -38.1180   37.9220 O.2   189  LEU189     -0.2867
     17  CB        -3.5120  -36.1100   36.7220 C.3   189  LEU189      0.0270
     18  CG        -3.4650  -35.3200   35.4090 C.3   189  LEU189      0.0019
     19  CD1       -3.7320  -33.8410   35.6630 C.3   189  LEU189      0.0001
     20  CD2       -2.1270  -35.5120   34.6960 C.3   189  LEU189      0.0001
     21  N         -3.2440  -32.6950   28.1760 N.3   229  LEU229     -0.1245
     22  CA        -2.6660  -31.4510   28.6640 C.3   229  LEU229      0.1561
     23  C         -2.1890  -30.5070   27.5510 C.2   229  LEU229      0.2260
     24  O         -1.6510  -29.4360   27.8410 O.2   229  LEU229     -0.2867
     25  CB        -1.5030  -31.7600   29.6230 C.3   229  LEU229      0.0270
     26  CG        -1.7040  -32.7420   30.7940 C.3   229  LEU229      0.0019
     27  CD1       -0.4120  -32.9200   31.5910 C.3   229  LEU229      0.0001
     28  CD2       -2.8540  -32.3390   31.7170 C.3   229  LEU229      0.0001
     29  N         -3.1530  -28.1950   25.7940 N.3   231  SER231     -0.1202
     30  CA        -3.4050  -26.7560   25.8940 C.3   231  SER231      0.2020
     31  C         -2.1380  -25.9930   26.2860 C.2   231  SER231      0.2618
     32  O         -1.9680  -24.8270   25.9150 O.2   231  SER231     -0.2717
     33  CB        -4.5350  -26.4560   26.8790 C.3   231  SER231      0.2103
     34  OG        -4.1290  -26.6560   28.2240 O.3   231  SER231     -0.2182
     35  N         -1.2430  -26.6610   27.0140 N.am  232  VAL232     -0.1979
     36  CA         0.0400  -26.0690   27.3950 C.3   232  VAL232      0.1595
     37  C          1.0820  -26.1770   26.2850 C.2   232  VAL232      0.2287
     38  O          2.2380  -25.8000   26.4810 O.2   232  VAL232     -0.2864
     39  CB         0.5940  -26.6480   28.7320 C.3   232  VAL232      0.0276
     40  CG1       -0.4750  -26.5820   29.8420 C.3   232  VAL232      0.0022
     41  CG2        1.1270  -28.0720   28.5620 C.3   232  VAL232      0.0022
     42  N         -6.5850  -21.5840   29.8710 N.3   243  ALA243     -0.1245
     43  CA        -6.3950  -21.5370   31.3250 C.3   243  ALA243      0.1562
     44  C         -7.6010  -20.9220   32.0250 C.2   243  ALA243      0.2260
     45  O         -8.0570  -21.4440   33.0430 O.2   243  ALA243     -0.2867
     46  CB        -5.1250  -20.7740   31.6790 C.3   243  ALA243      0.0290
     47  N        -10.2210  -23.6110   32.3470 N.3   246  ILE246     -0.1231
     48  CA        -9.8380  -24.5900   33.3780 C.3   246  ILE246      0.1692
     49  C        -10.1290  -24.0400   34.7820 C.2   246  ILE246      0.2592
     50  O        -10.7250  -24.7220   35.6170 O.2   246  ILE246     -0.2718
     51  CB        -8.3320  -25.0070   33.2820 C.3   246  ILE246      0.0266
     52  CG1       -7.9480  -25.4170   31.8540 C.3   246  ILE246      0.0019
     53  CG2       -8.0260  -26.1540   34.2360 C.3   246  ILE246      0.0020
     54  CD1       -6.4800  -25.8460   31.6880 C.3   246  ILE246      0.0001
     55  N         -9.7320  -22.7960   35.0250 N.am  247  TYR247     -0.1976
     56  CA        -9.9720  -22.1670   36.3220 C.3   247  TYR247      0.1639
     57  C        -11.4340  -21.7900   36.5690 C.2   247  TYR247      0.2290
     58  O        -11.9200  -21.9450   37.6790 O.2   247  TYR247     -0.2864
     59  CB        -9.0350  -20.9840   36.5300 C.3   247  TYR247      0.0560
     60  CG        -7.6490  -21.4110   36.9400 C.ar  247  TYR247     -0.0198
     61  CD1       -6.6660  -21.6750   35.9890 C.ar  247  TYR247     -0.0009
     62  CD2       -7.3240  -21.5670   38.2840 C.ar  247  TYR247     -0.0009
     63  CE1       -5.3810  -22.0780   36.3740 C.ar  247  TYR247      0.0417
     64  CE2       -6.0560  -21.9660   38.6770 C.ar  247  TYR247      0.0417
     65  CZ        -5.0880  -22.2180   37.7270 C.ar  247  TYR247      0.1957
     66  OH        -3.8310  -22.6090   38.1380 O.3   247  TYR247     -0.2866
     67  N        -12.6490  -24.8600   37.9510 N.3   250  PHE250     -0.1241
     68  CA       -12.0740  -25.0940   39.2740 C.3   250  PHE250      0.1605
     69  C        -12.7800  -24.2490   40.3310 C.2   250  PHE250      0.2264
     70  O        -13.0850  -24.7350   41.4230 O.2   250  PHE250     -0.2867
     71  CB       -10.5750  -24.7730   39.2970 C.3   250  PHE250      0.0534
     72  CG        -9.7070  -25.7970   38.6220 C.ar  250  PHE250     -0.0203
     73  CD1      -10.1710  -27.0820   38.3670 C.ar  250  PHE250     -0.0042
     74  CD2       -8.4000  -25.4770   38.2730 C.ar  250  PHE250     -0.0042
     75  CE1       -9.3530  -28.0270   37.7530 C.ar  250  PHE250     -0.0003
     76  CE2       -7.5730  -26.4120   37.6610 C.ar  250  PHE250     -0.0003
     77  CZ        -8.0500  -27.6950   37.4050 C.ar  250  PHE250     -0.0000
     78  N         -6.0820  -23.3880   44.5680 N.3   267  MET267     -0.1245
     79  CA        -6.2890  -23.4890   43.1250 C.3   267  MET267      0.1570
     80  C         -7.7660  -23.3930   42.7170 C.2   267  MET267      0.2261
     81  O         -8.0790  -22.9430   41.6100 O.2   267  MET267     -0.2867
     82  CB        -5.6620  -24.7820   42.5990 C.3   267  MET267      0.0387
     83  CG        -5.5400  -24.8620   41.0890 C.3   267  MET267      0.0595
     84  SD        -5.3800  -26.5520   40.5020 S.3   267  MET267     -0.1393
     85  CE        -6.9600  -27.2540   40.9670 C.3   267  MET267      0.0692
     86  N          1.0220  -21.1310   40.5610 N.3   279  GLY279     -0.1210
     87  CA         0.3860  -22.4440   40.4880 C.3   279  GLY279      0.1956
     88  C          0.6430  -23.1140   39.1480 C.2   279  GLY279      0.2611
     89  O          0.9330  -24.3150   39.0840 O.2   279  GLY279     -0.2717
     90  N          0.5420  -22.3370   38.0730 N.am  280  GLN280     -0.1979
     91  CA         0.8400  -22.8520   36.7370 C.3   280  GLN280      0.1601
     92  C          2.3130  -23.2150   36.6310 C.2   280  GLN280      0.2287
     93  O          2.6470  -24.3080   36.1700 O.2   280  GLN280     -0.2864
     94  CB         0.4140  -21.8670   35.6450 C.3   280  GLN280      0.0394
     95  CG        -1.1030  -21.7940   35.4380 C.3   280  GLN280      0.0908
     96  CD        -1.6980  -23.0900   34.9170 C.2   280  GLN280      0.2608
     97  OE1       -1.5270  -23.4390   33.7540 O.2   280  GLN280     -0.2717
     98  NE2       -2.4080  -23.8080   35.7810 N.am  280  GLN280     -0.0878
     99  N          2.7610  -26.4650   38.2770 N.3   283  PHE283     -0.1241
    100  CA         2.1540  -27.5360   37.4750 C.3   283  PHE283      0.1605
    101  C          2.9910  -27.9120   36.2380 C.2   283  PHE283      0.2264
    102  O          3.0130  -29.0730   35.8390 O.2   283  PHE283     -0.2867
    103  CB         0.7070  -27.2010   37.0820 C.3   283  PHE283      0.0534
    104  CG         0.0650  -28.2420   36.2100 C.ar  283  PHE283     -0.0203
    105  CD1       -0.4720  -29.4000   36.7640 C.ar  283  PHE283     -0.0042
    106  CD2        0.0100  -28.0740   34.8290 C.ar  283  PHE283     -0.0042
    107  CE1       -1.0600  -30.3710   35.9560 C.ar  283  PHE283     -0.0003
    108  CE2       -0.5720  -29.0360   34.0150 C.ar  283  PHE283     -0.0003
    109  CZ        -1.1060  -30.1890   34.5790 C.ar  283  PHE283     -0.0000
@<TRIPOS>BOND
     1    29    30    1
     2    30    31    1
     3    30    33    1
     4    32    31    2
     5    37    38    2
     6    37    36    1
     7    31    35   am
     8    33    34    1
     9    35    36    1
    10    36    39    1
    11    23    24    2
    12    23    22    1
    13    21    22    1
    14    41    39    1
    15     4     3    2
    16    22    25    1
    17    39    40    1
    18     9     7   ar
    19     9    11   ar
    20    12    11    1
    21     7     6   ar
    22    25    26    1
    23    11    10   ar
    24     3     2    1
    25    42    43    1
    26     2     1    1
    27     2     5    1
    28     6     5    1
    29     6     8   ar
    30    10     8   ar
    31    26    27    1
    32    26    28    1
    33    43    46    1
    34    43    44    1
    35    54    52    1
    36    52    51    1
    37    44    45    2
    38    47    48    1
    39    51    48    1
    40    51    53    1
    41    48    49    1
    42    97    96    2
    43   108   109   ar
    44   108   106   ar
    45   109   107   ar
    46    20    18    1
    47    49    55   am
    48    49    50    2
    49   106   104   ar
    50    96    95    1
    51    96    98   am
    52    55    56    1
    53    18    19    1
    54    18    17    1
    55    95    94    1
    56    94    91    1
    57   102   101    2
    58   107   105   ar
    59    61    63   ar
    60    61    60   ar
    61    93    92    2
    62   104   105   ar
    63   104   103    1
    64   101   100    1
    65    13    14    1
    66    56    59    1
    67    56    57    1
    68    63    65   ar
    69    59    60    1
    70    57    58    2
    71    14    17    1
    72    14    15    1
    73    92    91    1
    74    91    90    1
    75    60    62   ar
    76   103   100    1
    77    77    76   ar
    78    77    75   ar
    79   100    99    1
    80    76    74   ar
    81    65    66    1
    82    65    64   ar
    83    75    73   ar
    84    15    16    2
    85    67    68    1
    86    90    88   am
    87    74    72   ar
    88    62    64   ar
    89    73    72   ar
    90    72    71    1
    91    89    88    2
    92    88    87    1
    93    68    71    1
    94    68    69    1
    95    69    70    2
    96    87    86    1
    97    84    85    1
    98    84    83    1
    99    83    82    1
   100    81    80    2
   101    82    79    1
   102    80    79    1
   103    79    78    1
