@<TRIPOS>MOLECULE
tmp/4mskA00.pdb
 205 205 0 0 0
SMALL
GASTEIGER

@<TRIPOS>ATOM
      1  N         37.0930   19.7660   11.9960 N.3    80  PHE80      -0.1227
      2  CA        37.9240   20.0810   13.1430 C.3    80  PHE80       0.1736
      3  C         37.1250   20.8090   14.2250 C.2    80  PHE80       0.2595
      4  O         36.1470   21.4960   13.9450 O.2    80  PHE80      -0.2718
      5  CB        39.0960   20.9640   12.7130 C.3    80  PHE80       0.0547
      6  CG        40.0300   20.3020   11.7500 C.ar   80  PHE80      -0.0202
      7  CD1       40.9850   19.3920   12.2030 C.ar   80  PHE80      -0.0042
      8  CD2       39.9350   20.5550   10.3810 C.ar   80  PHE80      -0.0042
      9  CE1       41.8310   18.7390   11.3060 C.ar   80  PHE80      -0.0003
     10  CE2       40.7730   19.9080    9.4720 C.ar   80  PHE80      -0.0003
     11  CZ        41.7260   18.9950    9.9370 C.ar   80  PHE80      -0.0000
     12  N         37.5500   20.6290   15.4680 N.am   81  HIS81      -0.1961
     13  CA        36.9450   21.3080   16.5940 C.3    81  HIS81       0.1787
     14  C         38.0510   21.6800   17.5580 C.2    81  HIS81       0.2621
     15  O         38.9590   20.8950   17.8080 O.2    81  HIS81      -0.2715
     16  CB        35.9470   20.4370   17.3510 C.3    81  HIS81       0.0785
     17  CG        35.4250   21.1010   18.5870 C.ar   81  HIS81       0.0821
     18  ND1       34.5050   22.1260   18.5430 N.ar   81  HIS81      -0.2267
     19  CD2       35.7890   20.9800   19.8850 C.ar   81  HIS81       0.1154
     20  CE1       34.3290   22.6120   19.7580 C.ar   81  HIS81       0.1986
     21  NE2       35.0980   21.9350   20.5910 N.ar   81  HIS81      -0.2212
     22  N         37.9590   22.8830   18.1050 N.am   82  GLY82      -0.1940
     23  CA        38.9490   23.3390   19.0550 C.3    82  GLY82       0.2014
     24  C         38.2840   24.1210   20.1660 C.2    82  GLY82       0.2640
     25  O         37.4340   24.9750   19.9150 O.2    82  GLY82      -0.2714
     26  N         38.6630   23.8040   21.3980 N.am   83  SER83      -0.1936
     27  CA        38.1550   24.4750   22.5860 C.3    83  SER83       0.2040
     28  C         38.9690   23.9580   23.7710 C.2    83  SER83       0.2485
     29  O         39.6980   22.9680   23.6580 O.2    83  SER83      -0.2729
     30  CB        36.6590   24.1960   22.7960 C.3    83  SER83       0.2129
     31  OG        36.4320   22.9070   23.3220 O.3    83  SER83      -0.2179
     32  N         38.8680   24.6330   24.9220 N.am   84  PRO84      -0.2715
     33  CA        39.6040   24.2430   26.1320 C.3    84  PRO84       0.1536
     34  C         38.9290   23.1230   26.9050 C.2    84  PRO84       0.2598
     35  O         39.1720   22.9660   28.0930 O.2    84  PRO84      -0.2715
     36  CB        39.6390   25.5300   26.9610 C.3    84  PRO84       0.0310
     37  CG        39.0940   26.6310   26.0230 C.3    84  PRO84       0.0237
     38  CD        38.1500   25.9010   25.1270 C.3    84  PRO84       0.0939
     39  N         38.0830   22.3500   26.2350 N.am   85  PHE85      -0.1974
     40  CA        37.3600   21.2720   26.8940 C.3    85  PHE85       0.1639
     41  C         37.5880   19.9170   26.2570 C.2    85  PHE85       0.2290
     42  O         36.8070   18.9930   26.4740 O.2    85  PHE85      -0.2864
     43  CB        35.8630   21.5740   26.8740 C.3    85  PHE85       0.0560
     44  CG        35.4860   22.8140   27.6290 C.ar   85  PHE85      -0.0200
     45  CD1       35.3900   22.7950   29.0170 C.ar   85  PHE85      -0.0042
     46  CD2       35.2580   24.0100   26.9550 C.ar   85  PHE85      -0.0042
     47  CE1       35.0760   23.9490   29.7190 C.ar   85  PHE85      -0.0003
     48  CE2       34.9450   25.1690   27.6470 C.ar   85  PHE85      -0.0003
     49  CZ        34.8530   25.1410   29.0320 C.ar   85  PHE85      -0.0000
     50  N         37.7530   16.7010   28.3970 N.3    88  ALA88      -0.1231
     51  CA        36.4660   16.2730   28.9340 C.3    88  ALA88       0.1694
     52  C         35.6750   15.6230   27.8130 C.2    88  ALA88       0.2591
     53  O         34.9700   14.6360   28.0200 O.2    88  ALA88      -0.2718
     54  CB        35.6930   17.4720   29.4910 C.3    88  ALA88       0.0304
     55  N         35.8230   16.1770   26.6160 N.am   89  ILE89      -0.1980
     56  CA        35.1150   15.6830   25.4470 C.3    89  ILE89       0.1595
     57  C         35.4750   14.2540   25.0420 C.2    89  ILE89       0.2287
     58  O         34.6050   13.4780   24.6570 O.2    89  ILE89      -0.2864
     59  CB        35.3380   16.6310   24.2520 C.3    89  ILE89       0.0276
     60  CG1       34.6680   17.9800   24.5440 C.3    89  ILE89       0.0022
     61  CG2       34.7970   16.0100   22.9800 C.3    89  ILE89       0.0022
     62  CD1       35.0870   19.0950   23.6180 C.3    89  ILE89       0.0001
     63  N         33.8390   12.0820   28.0650 N.3    92  LYS92      -0.1231
     64  CA        32.3870   12.1090   28.2100 C.3    92  LYS92       0.1693
     65  C         31.6560   12.4370   26.9110 C.2    92  LYS92       0.2593
     66  O         30.4330   12.4660   26.8840 O.2    92  LYS92      -0.2718
     67  CB        31.9900   13.1320   29.2690 C.3    92  LYS92       0.0285
     68  CG        32.6400   12.9240   30.6190 C.3    92  LYS92       0.0035
     69  CD        32.8240   14.2660   31.2910 C.3    92  LYS92       0.0206
     70  CE        33.5740   14.1360   32.6130 C.3    92  LYS92       0.1093
     71  NZ        33.8730   15.4800   33.2220 N.3    92  LYS92      -0.1314
     72  N         32.3990   12.6880   25.8430 N.am   93  GLY93      -0.1942
     73  CA        31.7680   13.0270   24.5850 C.3    93  GLY93       0.2014
     74  C         31.2720   14.4620   24.5820 C.2    93  GLY93       0.2639
     75  O         31.3810   15.1680   25.5760 O.2    93  GLY93      -0.2714
     76  N         30.7370   14.8980   23.4490 N.am   94  PHE94      -0.1959
     77  CA        30.1960   16.2420   23.3180 C.3    94  PHE94       0.1771
     78  C         28.8670   16.3200   24.0600 C.2    94  PHE94       0.2619
     79  O         28.0120   15.4610   23.9050 O.2    94  PHE94      -0.2715
     80  CB        29.9920   16.5870   21.8450 C.3    94  PHE94       0.0574
     81  CG        31.2600   16.9680   21.1190 C.ar   94  PHE94      -0.0200
     82  CD1       31.8490   18.2180   21.3190 C.ar   94  PHE94      -0.0042
     83  CD2       31.8370   16.0960   20.2030 C.ar   94  PHE94      -0.0042
     84  CE1       32.9950   18.5880   20.6070 C.ar   94  PHE94      -0.0003
     85  CE2       32.9720   16.4540   19.4930 C.ar   94  PHE94      -0.0003
     86  CZ        33.5560   17.7010   19.6890 C.ar   94  PHE94      -0.0000
     87  N         28.7100   17.3630   24.8640 N.am   95  ASP95      -0.1971
     88  CA        27.5080   17.5900   25.6650 C.3    95  ASP95       0.1709
     89  C         27.0100   19.0130   25.3840 C.2    95  ASP95       0.2293
     90  O         27.6730   19.9740   25.7640 O.2    95  ASP95      -0.2864
     91  CB        27.8830   17.4300   27.1400 C.3    95  ASP95       0.1436
     92  CG        26.7380   17.6660   28.0720 C.2    95  ASP95       0.3671
     93  OD1       25.6100   17.9040   27.6170 O.co2  95  ASP95      -0.2456
     94  OD2       26.9650   17.6140   29.2880 O.co2  95  ASP95      -0.2456
     95  N         27.1080   22.1010   27.6000 N.3    98  HIS98      -0.1241
     96  CA        28.3410   22.8760   27.6710 C.3    98  HIS98       0.1621
     97  C         28.5720   23.5530   26.3180 C.2    98  HIS98       0.2264
     98  O         29.7000   23.9030   25.9620 O.2    98  HIS98      -0.2867
     99  CB        29.5420   21.9820   28.0070 C.3    98  HIS98       0.0745
    100  CG        29.5770   21.5140   29.4280 C.ar   98  HIS98       0.0817
    101  ND1       29.0550   20.3020   29.8290 N.ar   98  HIS98      -0.2268
    102  CD2       30.0550   22.1070   30.5470 C.ar   98  HIS98       0.1154
    103  CE1       29.2080   20.1700   31.1330 C.ar   98  HIS98       0.1986
    104  NE2       29.8110   21.2520   31.5950 N.ar   98  HIS98      -0.2212
    105  N         28.5190   26.4420   23.4400 N.3   100  TYR100     -0.1241
    106  CA        28.9250   27.8510   23.4580 C.3   100  TYR100      0.1605
    107  C         27.7850   28.8210   23.1140 C.2   100  TYR100      0.2264
    108  O         27.5020   29.0760   21.9370 O.2   100  TYR100     -0.2867
    109  CB        30.0920   28.0450   22.4830 C.3   100  TYR100      0.0534
    110  CG        30.5530   29.4710   22.3560 C.ar  100  TYR100     -0.0201
    111  CD1       30.7940   30.2410   23.4840 C.ar  100  TYR100     -0.0009
    112  CD2       30.7470   30.0530   21.1040 C.ar  100  TYR100     -0.0009
    113  CE1       31.2110   31.5570   23.3730 C.ar  100  TYR100      0.0417
    114  CE2       31.1730   31.3680   20.9760 C.ar  100  TYR100      0.0417
    115  CZ        31.4010   32.1200   22.1120 C.ar  100  TYR100      0.1957
    116  OH        31.8100   33.4370   21.9980 O.3   100  TYR100     -0.2866
    117  N         25.4080   26.2920   20.3260 N.3   108  GLY108     -0.1210
    118  CA        25.7160   25.0290   19.6880 C.3   108  GLY108      0.1956
    119  C         27.1690   24.6330   19.8420 C.2   108  GLY108      0.2612
    120  O         27.9160   25.2540   20.5870 O.2   108  GLY108     -0.2717
    121  N         27.5490   23.5750   19.1350 N.am  109  ILE109     -0.1965
    122  CA        28.9070   23.0570   19.1210 C.3   109  ILE109      0.1727
    123  C         29.4180   23.3280   17.6910 C.2   109  ILE109      0.2616
    124  O         28.8650   22.8400   16.7050 O.2   109  ILE109     -0.2715
    125  CB        28.9160   21.5420   19.4600 C.3   109  ILE109      0.0290
    126  CG1       28.2190   21.3240   20.8090 C.3   109  ILE109      0.0022
    127  CG2       30.3400   21.0150   19.5370 C.3   109  ILE109      0.0023
    128  CD1       28.0080   19.8660   21.2050 C.3   109  ILE109      0.0001
    129  N         30.4750   24.1210   17.6010 N.am  110  TYR110     -0.1960
    130  CA        31.0390   24.5360   16.3270 C.3   110  TYR110      0.1771
    131  C         32.2160   23.7410   15.7960 C.2   110  TYR110      0.2620
    132  O         33.1100   23.3370   16.5380 O.2   110  TYR110     -0.2715
    133  CB        31.4280   26.0140   16.4170 C.3   110  TYR110      0.0574
    134  CG        30.2530   26.9320   16.6320 C.ar  110  TYR110     -0.0198
    135  CD1       29.7850   27.7380   15.6040 C.ar  110  TYR110     -0.0009
    136  CD2       29.5760   26.9610   17.8570 C.ar  110  TYR110     -0.0009
    137  CE1       28.6670   28.5560   15.7770 C.ar  110  TYR110      0.0417
    138  CE2       28.4580   27.7730   18.0420 C.ar  110  TYR110      0.0417
    139  CZ        28.0080   28.5680   16.9900 C.ar  110  TYR110      0.1957
    140  OH        26.8900   29.3540   17.1410 O.3   110  TYR110     -0.2866
    141  N         32.2050   23.5410   14.4850 N.am  111  PHE111     -0.1960
    142  CA        33.2530   22.8030   13.8030 C.3   111  PHE111      0.1771
    143  C         33.6850   23.6070   12.5830 C.2   111  PHE111      0.2619
    144  O         32.9800   24.5180   12.1520 O.2   111  PHE111     -0.2715
    145  CB        32.7280   21.4340   13.3660 C.3   111  PHE111      0.0574
    146  CG        32.3310   20.5440   14.5070 C.ar  111  PHE111     -0.0200
    147  CD1       33.2100   19.5710   14.9870 C.ar  111  PHE111     -0.0042
    148  CD2       31.0820   20.6870   15.1230 C.ar  111  PHE111     -0.0042
    149  CE1       32.8510   18.7580   16.0600 C.ar  111  PHE111     -0.0003
    150  CE2       30.7190   19.8780   16.1970 C.ar  111  PHE111     -0.0003
    151  CZ        31.6030   18.9150   16.6650 C.ar  111  PHE111     -0.0000
    152  N         34.8430   23.2650   12.0320 N.am  112  ALA112     -0.1977
    153  CA        35.3810   23.9430   10.8570 C.3   112  ALA112      0.1597
    154  C         36.0970   22.9100   10.0220 C.2   112  ALA112      0.2287
    155  O         36.4960   21.8700   10.5420 O.2   112  ALA112     -0.2864
    156  CB        36.3630   25.0260   11.2720 C.3   112  ALA112      0.0319
    157  N         41.0850   27.4730   11.7950 N.3   117  LYS117     -0.1231
    158  CA        39.9800   28.1700   12.4490 C.3   117  LYS117      0.1693
    159  C         39.7810   27.6020   13.8460 C.2   117  LYS117      0.2592
    160  O         39.6300   28.3570   14.8030 O.2   117  LYS117     -0.2718
    161  CB        38.6850   28.0430   11.6340 C.3   117  LYS117      0.0285
    162  CG        37.4410   28.6920   12.2700 C.3   117  LYS117      0.0035
    163  CD        37.5870   30.2050   12.4500 C.3   117  LYS117      0.0206
    164  CE        36.2370   30.8720   12.7210 C.3   117  LYS117      0.1093
    165  NZ        36.3230   32.3600   12.8880 N.3   117  LYS117     -0.1314
    166  N         39.7990   26.2770   13.9690 N.am  118  SER118     -0.1952
    167  CA        39.6340   25.6420   15.2740 C.3   118  SER118      0.1924
    168  C         40.7920   26.0160   16.1950 C.2   118  SER118      0.2314
    169  O         40.6420   26.0610   17.4180 O.2   118  SER118     -0.2863
    170  CB        39.5730   24.1160   15.1400 C.3   118  SER118      0.2116
    171  OG        38.4240   23.6980   14.4270 O.3   118  SER118     -0.2180
    172  N         40.4690   28.8270   18.7730 N.3   121  TYR121     -0.1241
    173  CA        39.6850   28.5660   19.9780 C.3   121  TYR121      0.1605
    174  C         40.2870   27.6230   21.0200 C.2   121  TYR121      0.2264
    175  O         39.7630   27.5010   22.1250 O.2   121  TYR121     -0.2867
    176  CB        38.3170   28.0430   19.5450 C.3   121  TYR121      0.0534
    177  CG        37.6290   28.9830   18.5940 C.ar  121  TYR121     -0.0201
    178  CD1       36.9570   30.1050   19.0670 C.ar  121  TYR121     -0.0009
    179  CD2       37.7010   28.7910   17.2170 C.ar  121  TYR121     -0.0009
    180  CE1       36.3810   31.0100   18.1990 C.ar  121  TYR121      0.0417
    181  CE2       37.1260   29.6960   16.3370 C.ar  121  TYR121      0.0417
    182  CZ        36.4690   30.8000   16.8350 C.ar  121  TYR121      0.1957
    183  OH        35.8780   31.6960   15.9800 O.3   121  TYR121     -0.2866
    184  N         37.7140   31.7880   23.6230 N.3   125  ILE125     -0.1245
    185  CA        37.1710   32.6780   22.6090 C.3   125  ILE125      0.1561
    186  C         38.2400   33.6510   22.1670 C.2   125  ILE125      0.2260
    187  O         38.9590   34.2140   22.9960 O.2   125  ILE125     -0.2867
    188  CB        35.9590   33.4840   23.1400 C.3   125  ILE125      0.0252
    189  CG1       34.7820   32.5560   23.4150 C.3   125  ILE125      0.0019
    190  CG2       35.5150   34.5090   22.1100 C.3   125  ILE125      0.0019
    191  CD1       33.6260   33.2890   24.0920 C.3   125  ILE125      0.0001
    192  N         32.9920   28.9160    5.9540 N.3   187  ALA187     -0.1231
    193  CA        31.8720   28.2220    6.5850 C.3   187  ALA187      0.1694
    194  C         32.2110   27.5000    7.8760 C.2   187  ALA187      0.2591
    195  O         33.3200   26.9790    8.0560 O.2   187  ALA187     -0.2718
    196  CB        31.2570   27.2370    5.5980 C.3   187  ALA187      0.0304
    197  N         31.2220   27.4760    8.7660 N.am  188  GLU188     -0.1979
    198  CA        31.3270   26.8140   10.0640 C.3   188  GLU188      0.1602
    199  C         30.0900   25.9380   10.2270 C.2   188  GLU188      0.2287
    200  O         29.0000   26.3090    9.7990 O.2   188  GLU188     -0.2864
    201  CB        31.4390   27.8420   11.2000 C.3   188  GLU188      0.0415
    202  CG        30.3420   28.8760   11.2670 C.3   188  GLU188      0.1163
    203  CD        30.6480   29.9220   12.3330 C.2   188  GLU188      0.3649
    204  OE1       31.6320   30.6680   12.1650 O.co2 188  GLU188     -0.2457
    205  OE2       29.9040   30.0030   13.3330 O.co2 188  GLU188     -0.2457
@<TRIPOS>BOND
     1   196   193    1
     2   192   193    1
     3   193   194    1
     4   194   195    2
     5   194   197   am
     6   197   198    1
     7    10    11   ar
     8    10     8   ar
     9   200   199    2
    10    11     9   ar
    11   154   155    2
    12   154   153    1
    13   198   199    1
    14   198   201    1
    15     8     6   ar
    16   153   156    1
    17   153   152    1
    18   201   202    1
    19   202   203    1
    20     9     7   ar
    21   161   162    1
    22   161   158    1
    23     6     7   ar
    24     6     5    1
    25   157   158    1
    26     1     2    1
    27   152   143   am
    28   144   143    2
    29   204   203   ar
    30   162   163    1
    31   203   205   ar
    32   158   159    1
    33   163   164    1
    34   143   142    1
    35     5     2    1
    36   164   165    1
    37     2     3    1
    38   145   142    1
    39   145   146    1
    40   142   141    1
    41   159   166   am
    42   159   160    2
    43     4     3    2
    44   166   167    1
    45     3    12   am
    46   171   170    1
    47   141   131   am
    48   146   147   ar
    49   146   148   ar
    50   147   149   ar
    51   148   150   ar
    52   170   167    1
    53   167   168    1
    54    12    13    1
    55   135   137   ar
    56   135   134   ar
    57   137   139   ar
    58   131   130    1
    59   131   132    2
    60   183   182    1
    61   149   151   ar
    62   168   169    2
    63   150   151   ar
    64   130   133    1
    65   130   129    1
    66   181   182   ar
    67   181   179   ar
    68   133   134    1
    69    13    16    1
    70    13    14    1
    71   134   136   ar
    72   124   123    2
    73   182   180   ar
    74   139   140    1
    75   139   138   ar
    76   179   177   ar
    77    16    17    1
    78    14    15    2
    79    14    22   am
    80   129   123   am
    81   123   122    1
    82   136   138   ar
    83    22    23    1
    84   180   178   ar
    85    18    17   ar
    86    18    20   ar
    87    17    19   ar
    88   177   178   ar
    89   177   176    1
    90   172   173    1
    91    23    24    1
    92   122   121    1
    93   122   125    1
    94   121   119   am
    95   125   127    1
    96   125   126    1
    97    85    86   ar
    98    85    83   ar
    99   176   173    1
   100   118   119    1
   101   118   117    1
   102    86    84   ar
   103    20    21   ar
   104   119   120    2
   105    19    21   ar
   106    25    24    2
   107   173   174    1
   108    24    26   am
   109    83    81   ar
   110    84    82   ar
   111   126   128    1
   112   114   112   ar
   113   114   115   ar
   114   174   175    2
   115   112   110   ar
   116    81    82   ar
   117    81    80    1
   118    26    27    1
   119    80    77    1
   120   108   107    2
   121   116   115    1
   122   190   188    1
   123   115   113   ar
   124   186   185    1
   125   186   187    2
   126   110   109    1
   127   110   111   ar
   128   109   106    1
   129    27    30    1
   130    27    28    1
   131   185   188    1
   132   185   184    1
   133    30    31    1
   134    61    59    1
   135   107   106    1
   136   188   189    1
   137    77    76    1
   138    77    78    1
   139   113   111   ar
   140   189   191    1
   141   105   106    1
   142    76    74   am
   143    62    60    1
   144    29    28    2
   145    28    32   am
   146    79    78    2
   147    78    87   am
   148    59    60    1
   149    59    56    1
   150    74    73    1
   151    74    75    2
   152    73    72    1
   153    58    57    2
   154    87    88    1
   155    32    38    1
   156    32    33    1
   157    57    56    1
   158    38    37    1
   159    89    88    1
   160    89    90    2
   161    56    55    1
   162    88    91    1
   163    72    65   am
   164    98    97    2
   165    37    36    1
   166    33    34    1
   167    33    36    1
   168    39    40    1
   169    39    34   am
   170    41    42    2
   171    41    40    1
   172    97    96    1
   173    55    52   am
   174    43    40    1
   175    43    44    1
   176    66    65    2
   177    34    35    2
   178    65    64    1
   179    46    44   ar
   180    46    48   ar
   181    91    92    1
   182    95    96    1
   183    93    92   ar
   184    44    45   ar
   185    48    49   ar
   186    96    99    1
   187    52    53    2
   188    52    51    1
   189    99   100    1
   190    63    64    1
   191    92    94   ar
   192    64    67    1
   193    50    51    1
   194    51    54    1
   195    45    47   ar
   196    49    47   ar
   197    67    68    1
   198   100   101   ar
   199   100   102   ar
   200   101   103   ar
   201   102   104   ar
   202    68    69    1
   203   103   104   ar
   204    69    70    1
   205    70    71    1
