@<TRIPOS>MOLECULE
tmp/4mslA03.pdb
 163 161 0 0 0
SMALL
GASTEIGER

@<TRIPOS>ATOM
      1  N        -33.8250   48.2160   13.6310 N.3   212  TYR212     -0.1227
      2  CA       -34.5930   47.2170   14.3770 C.3   212  TYR212      0.1736
      3  C        -33.7340   46.4480   15.3890 C.2   212  TYR212      0.2596
      4  O        -34.1220   46.2910   16.5460 O.2   212  TYR212     -0.2718
      5  CB       -35.2740   46.2400   13.4160 C.3   212  TYR212      0.0548
      6  CG       -36.1850   45.2450   14.0990 C.ar  212  TYR212     -0.0200
      7  CD1      -35.6710   44.1140   14.7180 C.ar  212  TYR212     -0.0009
      8  CD2      -37.5600   45.4370   14.1230 C.ar  212  TYR212     -0.0009
      9  CE1      -36.5000   43.2020   15.3430 C.ar  212  TYR212      0.0417
     10  CE2      -38.3970   44.5300   14.7450 C.ar  212  TYR212      0.0417
     11  CZ       -37.8620   43.4150   15.3540 C.ar  212  TYR212      0.1957
     12  OH       -38.6920   42.5100   15.9740 O.3   212  TYR212     -0.2866
     13  N        -32.6100   45.9120   14.9130 N.am  213  SER213     -0.1938
     14  CA       -31.6420   45.1980   15.7480 C.3   213  SER213      0.2055
     15  C        -30.2750   45.1390   15.0570 C.2   213  SER213      0.2643
     16  O        -30.1880   45.3480   13.8470 O.2   213  SER213     -0.2714
     17  CB       -32.1380   43.7860   16.0610 C.3   213  SER213      0.2130
     18  OG       -31.5060   43.2680   17.2180 O.3   213  SER213     -0.2179
     19  N        -29.2130   44.8450   15.8070 N.am  214  PHE214     -0.1959
     20  CA       -27.9030   44.6440   15.1840 C.3   214  PHE214      0.1771
     21  C        -27.1350   43.5270   15.8600 C.2   214  PHE214      0.2620
     22  O        -27.5040   43.0820   16.9490 O.2   214  PHE214     -0.2715
     23  CB       -27.0630   45.9230   15.1870 C.3   214  PHE214      0.0574
     24  CG       -26.4500   46.2470   16.5130 C.ar  214  PHE214     -0.0200
     25  CD1      -27.2220   46.7840   17.5390 C.ar  214  PHE214     -0.0042
     26  CD2      -25.1020   46.0310   16.7320 C.ar  214  PHE214     -0.0042
     27  CE1      -26.6610   47.0960   18.7730 C.ar  214  PHE214     -0.0003
     28  CE2      -24.5290   46.3370   17.9570 C.ar  214  PHE214     -0.0003
     29  CZ       -25.3110   46.8710   18.9840 C.ar  214  PHE214     -0.0000
     30  N        -26.0770   43.0650   15.2010 N.am  215  GLY215     -0.1954
     31  CA       -25.2720   41.9910   15.7420 C.3   215  GLY215      0.1869
     32  C        -23.9360   41.8240   15.0510 C.2   215  GLY215      0.2309
     33  O        -23.7670   42.2270   13.8980 O.2   215  GLY215     -0.2863
     34  N        -23.8210   43.4030   11.2870 N.3   222  PHE222     -0.1241
     35  CA       -25.1350   43.2800   10.6600 C.3   222  PHE222      0.1605
     36  C        -26.1270   44.2280   11.3240 C.2   222  PHE222      0.2264
     37  O        -26.0720   44.4340   12.5360 O.2   222  PHE222     -0.2867
     38  CB       -25.6500   41.8430   10.7480 C.3   222  PHE222      0.0534
     39  CG       -24.7940   40.8390   10.0320 C.ar  222  PHE222     -0.0203
     40  CD1      -24.8670   40.7000    8.6460 C.ar  222  PHE222     -0.0042
     41  CD2      -23.9140   40.0230   10.7380 C.ar  222  PHE222     -0.0042
     42  CE1      -24.0750   39.7660    7.9780 C.ar  222  PHE222     -0.0003
     43  CE2      -23.1160   39.0860   10.0810 C.ar  222  PHE222     -0.0003
     44  CZ       -23.1990   38.9560    8.7030 C.ar  222  PHE222     -0.0000
     45  N        -30.4960   45.0490   11.1790 N.3   224  SER224     -0.1217
     46  CA       -31.8050   44.8740   10.5580 C.3   224  SER224      0.1889
     47  C        -32.4710   46.2390   10.4310 C.2   224  SER224      0.2288
     48  O        -32.4980   46.9980   11.3850 O.2   224  SER224     -0.2866
     49  CB       -32.6760   43.8480   11.3030 C.3   224  SER224      0.2089
     50  OG       -32.7660   44.1000   12.7000 O.3   224  SER224     -0.2183
     51  N        -38.6370   44.2830    7.1870 N.3   233  ARG233     -0.1245
     52  CA       -37.2650   44.6640    7.4720 C.3   233  ARG233      0.1563
     53  C        -36.2490   43.7590    6.7720 C.2   233  ARG233      0.2260
     54  O        -36.5810   42.6760    6.2800 O.2   233  ARG233     -0.2867
     55  CB       -37.0280   44.7190    8.9920 C.3   233  ARG233      0.0307
     56  CG       -36.8030   43.3650    9.6770 C.3   233  ARG233      0.0489
     57  CD       -36.7890   43.4890   11.2260 C.3   233  ARG233      0.2205
     58  NE       -36.4940   42.2090   11.8730 N.pl3 233  ARG233     -0.0865
     59  CZ       -37.4260   41.3260   12.2140 C.cat 233  ARG233      0.5346
     60  NH1      -38.7010   41.5980   11.9690 N.pl3 233  ARG233      0.1354
     61  NH2      -37.0980   40.1770   12.7830 N.pl3 233  ARG233      0.1354
     62  N        -31.6980   42.8130    6.1400 N.3   235  ILE235     -0.1245
     63  CA       -30.3280   42.9070    6.6290 C.3   235  ILE235      0.1561
     64  C        -29.4260   43.8470    5.8100 C.2   235  ILE235      0.2260
     65  O        -29.4670   43.8470    4.5750 O.2   235  ILE235     -0.2867
     66  CB       -29.7100   41.5100    6.6430 C.3   235  ILE235      0.0252
     67  CG1      -30.5180   40.5930    7.5670 C.3   235  ILE235      0.0019
     68  CG2      -28.2500   41.5710    7.0380 C.3   235  ILE235      0.0019
     69  CD1      -30.4350   40.9730    9.0020 C.3   235  ILE235      0.0001
     70  N        -42.6900   40.9670   10.9580 N.3   255  GLN255     -0.1231
     71  CA       -42.3820   41.0650   12.3810 C.3   255  GLN255      0.1698
     72  C        -42.4130   39.7340   13.1200 C.2   255  GLN255      0.2592
     73  O        -41.7180   39.5630   14.1180 O.2   255  GLN255     -0.2718
     74  CB       -43.2990   42.0740   13.0620 C.3   255  GLN255      0.0381
     75  CG       -42.9440   43.5130   12.7730 C.3   255  GLN255      0.0905
     76  CD       -44.0390   44.4750   13.1990 C.2   255  GLN255      0.2608
     77  OE1      -45.1740   44.0720   13.4870 O.2   255  GLN255     -0.2717
     78  NE2      -43.7060   45.7610   13.2360 N.am  255  GLN255     -0.0878
     79  N        -43.2080   38.7940   12.6310 N.am  256  GLU256     -0.1966
     80  CA       -43.2490   37.4650   13.2280 C.3   256  GLU256      0.1733
     81  C        -42.0320   36.6530   12.8140 C.2   256  GLU256      0.2616
     82  O        -41.7300   35.6120   13.3960 O.2   256  GLU256     -0.2715
     83  CB       -44.5030   36.7200   12.7880 C.3   256  GLU256      0.0429
     84  CG       -45.8200   37.2570   13.3480 C.3   256  GLU256      0.1163
     85  CD       -47.0150   36.4810   12.8150 C.2   256  GLU256      0.3649
     86  OE1      -46.7900   35.4650   12.1140 O.co2 256  GLU256     -0.2457
     87  OE2      -48.1750   36.8780   13.0910 O.co2 256  GLU256     -0.2457
     88  N        -41.3880   37.1050   11.7480 N.am  257  GLN257     -0.1963
     89  CA       -40.1680   36.5060   11.2320 C.3   257  GLN257      0.1733
     90  C        -38.8760   37.0000   11.9140 C.2   257  GLN257      0.2616
     91  O        -38.8400   38.1000   12.4580 O.2   257  GLN257     -0.2715
     92  CB       -40.1230   36.7080    9.7250 C.3   257  GLN257      0.0408
     93  CG       -40.8260   35.6280    8.9280 C.3   257  GLN257      0.0908
     94  CD       -40.9160   35.9860    7.4680 C.2   257  GLN257      0.2608
     95  OE1      -41.5910   36.9430    7.1010 O.2   257  GLN257     -0.2717
     96  NE2      -40.2240   35.2330    6.6240 N.am  257  GLN257     -0.0878
     97  N        -37.8170   36.2030   11.8890 N.am  258  PHE258     -0.1960
     98  CA       -36.5220   36.7010   12.3880 C.3   258  PHE258      0.1771
     99  C        -35.3110   36.2830   11.5300 C.2   258  PHE258      0.2620
    100  O        -35.4120   35.3830   10.6940 O.2   258  PHE258     -0.2715
    101  CB       -36.2910   36.2540   13.8360 C.3   258  PHE258      0.0574
    102  CG       -36.1130   34.7810   13.9810 C.ar  258  PHE258     -0.0200
    103  CD1      -37.2230   33.9510   14.1280 C.ar  258  PHE258     -0.0042
    104  CD2      -34.8420   34.2230   13.9410 C.ar  258  PHE258     -0.0042
    105  CE1      -37.0820   32.5900   14.2360 C.ar  258  PHE258     -0.0003
    106  CE2      -34.6680   32.8620   14.0520 C.ar  258  PHE258     -0.0003
    107  CZ       -35.7960   32.0340   14.2000 C.ar  258  PHE258     -0.0000
    108  N        -34.1700   36.9420   11.7430 N.am  259  TYR259     -0.1960
    109  CA       -32.8870   36.4660   11.2100 C.3   259  TYR259      0.1771
    110  C        -32.0410   35.9610   12.3690 C.2   259  TYR259      0.2620
    111  O        -32.1410   36.4720   13.4800 O.2   259  TYR259     -0.2715
    112  CB       -32.0980   37.5830   10.5490 C.3   259  TYR259      0.0574
    113  CG       -32.7790   38.2660    9.4080 C.ar  259  TYR259     -0.0198
    114  CD1      -32.7790   37.7120    8.1370 C.ar  259  TYR259     -0.0009
    115  CD2      -33.4020   39.4800    9.5920 C.ar  259  TYR259     -0.0009
    116  CE1      -33.3940   38.3380    7.0910 C.ar  259  TYR259      0.0417
    117  CE2      -34.0140   40.1200    8.5470 C.ar  259  TYR259      0.0417
    118  CZ       -34.0120   39.5450    7.3020 C.ar  259  TYR259      0.1957
    119  OH       -34.6450   40.2000    6.2660 O.3   259  TYR259     -0.2866
    120  N        -31.1810   34.9850   12.1060 N.am  260  SER260     -0.1936
    121  CA       -30.2100   34.5560   13.1000 C.3   260  SER260      0.2055
    122  C        -28.8570   34.2160   12.4650 C.2   260  SER260      0.2642
    123  O        -28.8020   33.5960   11.4000 O.2   260  SER260     -0.2714
    124  CB       -30.7620   33.3590   13.8690 C.3   260  SER260      0.2130
    125  OG       -29.9550   33.0380   14.9750 O.3   260  SER260     -0.2179
    126  N        -27.7670   34.6150   13.1270 N.am  261  ILE261     -0.1977
    127  CA       -26.4400   34.3060   12.6330 C.3   261  ILE261      0.1596
    128  C        -26.1770   32.9480   13.2350 C.2   261  ILE261      0.2287
    129  O        -26.0250   32.8150   14.4500 O.2   261  ILE261     -0.2864
    130  CB       -25.3230   35.2230   13.2200 C.3   261  ILE261      0.0276
    131  CG1      -25.5810   36.7060   12.9820 C.3   261  ILE261      0.0022
    132  CG2      -23.8880   34.7760   12.7170 C.3   261  ILE261      0.0022
    133  CD1      -26.0500   37.0000   11.6370 C.3   261  ILE261      0.0001
    134  N        -35.7420   25.7050   13.4840 N.3   303  TYR303     -0.1227
    135  CA       -35.4000   26.6970   14.4970 C.3   303  TYR303      0.1736
    136  C        -36.6820   27.1580   15.1790 C.2   303  TYR303      0.2596
    137  O        -37.4780   27.8450   14.5380 O.2   303  TYR303     -0.2718
    138  CB       -34.7410   27.8710   13.7840 C.3   303  TYR303      0.0548
    139  CG       -33.7780   28.7180   14.5860 C.ar  303  TYR303     -0.0200
    140  CD1      -34.0380   29.0620   15.8930 C.ar  303  TYR303     -0.0009
    141  CD2      -32.6220   29.2040   14.0110 C.ar  303  TYR303     -0.0009
    142  CE1      -33.1490   29.8540   16.6130 C.ar  303  TYR303      0.0417
    143  CE2      -31.7440   29.9990   14.7160 C.ar  303  TYR303      0.0417
    144  CZ       -32.0100   30.3170   16.0100 C.ar  303  TYR303      0.1957
    145  OH       -31.1480   31.1090   16.7100 O.3   303  TYR303     -0.2866
    146  N        -36.8950   26.8750   16.4620 N.am  304  THR304     -0.1939
    147  CA       -38.1900   27.2830   17.0600 C.3   304  THR304      0.2028
    148  C        -38.2410   28.7760   17.3480 C.2   304  THR304      0.2642
    149  O        -37.2390   29.3720   17.7110 O.2   304  THR304     -0.2714
    150  CB       -38.4970   26.5800   18.3680 C.3   304  THR304      0.1808
    151  OG1      -37.5080   26.9370   19.3460 O.3   304  THR304     -0.2208
    152  CG2      -38.5120   25.0950   18.1690 C.3   304  THR304      0.0379
    153  N        -39.4060   29.3810   17.1920 N.am  305  THR305     -0.1950
    154  CA       -39.5480   30.8260   17.3450 C.3   305  THR305      0.1897
    155  C        -39.5400   31.2740   18.8180 C.2   305  THR305      0.2313
    156  O        -38.9440   32.2990   19.1700 O.2   305  THR305     -0.2863
    157  CB       -40.8480   31.2770   16.6870 C.3   305  THR305      0.1794
    158  OG1      -40.7810   30.9510   15.2910 O.3   305  THR305     -0.2208
    159  CG2      -41.0620   32.7900   16.8410 C.3   305  THR305      0.0378
    160  N        -36.0700   29.8970   21.2950 N.3   308  GLY308     -0.1225
    161  CA       -35.6550   29.4040   19.9970 C.3   308  GLY308      0.1811
    162  C        -34.4890   28.4580   20.0270 C.2   308  GLY308      0.2280
    163  O        -33.3490   28.8490   20.2290 O.2   308  GLY308     -0.2866
@<TRIPOS>BOND
     1    65    64    2
     2    64    63    1
     3    62    63    1
     4   119   118    1
     5    54    53    2
     6    96    94   am
     7    63    66    1
     8    66    68    1
     9    66    67    1
    10    53    52    1
    11   116   118   ar
    12   116   114   ar
    13    95    94    2
    14    51    52    1
    15   118   117   ar
    16    94    93    1
    17    52    55    1
    18    67    69    1
    19    42    40   ar
    20    42    44   ar
    21   114   113   ar
    22   117   115   ar
    23    40    39   ar
    24    44    43   ar
    25    93    92    1
    26    55    56    1
    27   113   115   ar
    28   113   112    1
    29    56    57    1
    30    92    89    1
    31    39    41   ar
    32    39    38    1
    33    43    41   ar
    34    47    46    1
    35    47    48    2
    36   112   109    1
    37    46    45    1
    38    46    49    1
    39    35    38    1
    40    35    34    1
    41    35    36    1
    42   100    99    2
    43    70    71    1
    44   109   108    1
    45   109   110    1
    46    57    58    1
    47    89    88    1
    48    89    90    1
    49    49    50    1
    50    36    37    2
    51   123   122    2
    52    99   108   am
    53    99    98    1
    54   133   131    1
    55    88    81   am
    56    58    59    2
    57    97    90   am
    58    97    98    1
    59    90    91    2
    60    60    59    1
    61   120   110   am
    62   120   121    1
    63    86    85   ar
    64    59    61    1
    65   110   111    2
    66    71    74    1
    67    71    72    1
    68    98   101    1
    69   122   121    1
    70   122   126   am
    71    79    72   am
    72    79    80    1
    73   127   126    1
    74   127   130    1
    75   127   128    1
    76   132   130    1
    77    75    74    1
    78    75    76    1
    79    83    80    1
    80    83    84    1
    81    81    80    1
    82    81    82    2
    83    85    87   ar
    84    85    84    1
    85   131   130    1
    86   121   124    1
    87    72    73    2
    88    76    78   am
    89    76    77    2
    90   128   129    2
    91     5     6    1
    92     5     2    1
    93   134   135    1
    94     1     2    1
    95   138   135    1
    96   138   139    1
    97   101   102    1
    98    16    15    2
    99   124   125    1
   100    33    32    2
   101   104   102   ar
   102   104   106   ar
   103   102   103   ar
   104   141   139   ar
   105   141   143   ar
   106   106   107   ar
   107     6     8   ar
   108     6     7   ar
   109     8    10   ar
   110   103   105   ar
   111   107   105   ar
   112     2     3    1
   113   135   136    1
   114   137   136    2
   115   139   140   ar
   116   143   144   ar
   117     7     9   ar
   118    10    11   ar
   119    13     3   am
   120    13    14    1
   121    32    31    1
   122    15    14    1
   123    15    19   am
   124   136   146   am
   125    20    23    1
   126    20    19    1
   127    20    21    1
   128    23    24    1
   129    30    31    1
   130    30    21   am
   131   158   157    1
   132     9    11   ar
   133    11    12    1
   134     3     4    2
   135    14    17    1
   136    21    22    2
   137   140   142   ar
   138   144   142   ar
   139   144   145    1
   140    17    18    1
   141   146   147    1
   142    24    26   ar
   143    24    25   ar
   144   157   159    1
   145   157   154    1
   146    26    28   ar
   147   147   148    1
   148   147   150    1
   149   153   154    1
   150   153   148   am
   151   154   155    1
   152   148   149    2
   153    25    27   ar
   154    28    29   ar
   155   152   150    1
   156   150   151    1
   157    27    29   ar
   158   155   156    2
   159   161   162    1
   160   161   160    1
   161   162   163    2
