@<TRIPOS>MOLECULE
tmp/4mslA00.pdb
 99 93 0 0 0
SMALL
GASTEIGER

@<TRIPOS>ATOM
      1  N        -23.5170   30.9590   12.4300 N.3   263  ALA263     -0.1231
      2  CA       -22.0890   30.9010   12.6890 C.3   263  ALA263      0.1694
      3  C        -21.4250   31.9400   11.8360 C.2   263  ALA263      0.2592
      4  O        -21.8760   32.2030   10.7140 O.2   263  ALA263     -0.2718
      5  CB       -21.5340   29.5160   12.3930 C.3   263  ALA263      0.0304
      6  N        -20.3530   32.5280   12.3400 N.am  264  ALA264     -0.1966
      7  CA       -19.6510   33.5140   11.5600 C.3   264  ALA264      0.1728
      8  C        -18.1810   33.4100   11.8860 C.2   264  ALA264      0.2616
      9  O        -17.7890   33.0870   13.0320 O.2   264  ALA264     -0.2715
     10  CB       -20.1550   34.8970   11.8590 C.3   264  ALA264      0.0334
     11  N        -17.3920   33.5950   10.8280 N.am  265  ASN265     -0.1958
     12  CA       -15.9500   33.3900   10.7950 C.3   265  ASN265      0.1819
     13  C        -15.3390   34.3690    9.7950 C.2   265  ASN265      0.2621
     14  O        -16.0530   34.9500    8.9780 O.2   265  ASN265     -0.2715
     15  CB       -15.6170   31.9510   10.4030 C.3   265  ASN265      0.1195
     16  CG       -15.9990   31.6330    8.9710 C.2   265  ASN265      0.2630
     17  OD1      -16.5870   32.4610    8.2750 O.2   265  ASN265     -0.2716
     18  ND2      -15.6640   30.4290    8.5220 N.am  265  ASN265     -0.0877
     19  N        -14.0280   34.5670    9.8700 N.am  266  ASP266     -0.1971
     20  CA       -13.3830   35.6450    9.1480 C.3   266  ASP266      0.1709
     21  C        -13.7550   35.6500    7.6610 C.2   266  ASP266      0.2293
     22  O        -13.6810   36.6740    6.9790 O.2   266  ASP266     -0.2864
     23  CB       -11.8780   35.5590    9.3740 C.3   266  ASP266      0.1436
     24  CG       -11.1300   36.6480    8.6820 C.2   266  ASP266      0.3671
     25  OD1      -11.1960   37.7860    9.1900 O.co2 266  ASP266     -0.2456
     26  OD2      -10.4710   36.3620    7.6420 O.co2 266  ASP266     -0.2456
     27  N        -16.9390   34.1250    6.3300 N.3   268  MET268     -0.1245
     28  CA       -18.3650   34.1300    5.9870 C.3   268  MET268      0.1570
     29  C        -19.3310   33.9820    7.1660 C.2   268  MET268      0.2261
     30  O        -18.9030   33.8070    8.3180 O.2   268  MET268     -0.2867
     31  CB       -18.6490   33.0190    4.9800 C.3   268  MET268      0.0387
     32  CG       -18.1320   31.6590    5.4040 C.3   268  MET268      0.0595
     33  SD       -19.2410   30.6900    6.4680 S.3   268  MET268     -0.1393
     34  CE       -20.5300   30.1790    5.3420 C.3   268  MET268      0.0692
     35  N        -23.2340   31.8720    8.1600 N.3   270  PHE270     -0.1241
     36  CA       -24.4490   31.1060    7.8980 C.3   270  PHE270      0.1605
     37  C        -25.5950   31.8910    8.4840 C.2   270  PHE270      0.2264
     38  O        -25.6900   32.0380    9.7030 O.2   270  PHE270     -0.2867
     39  CB       -24.4380   29.7750    8.6330 C.3   270  PHE270      0.0534
     40  CG       -23.4180   28.8020    8.1430 C.ar  270  PHE270     -0.0203
     41  CD1      -22.0980   28.9160    8.5250 C.ar  270  PHE270     -0.0042
     42  CD2      -23.7880   27.7310    7.3500 C.ar  270  PHE270     -0.0042
     43  CE1      -21.1850   27.9980    8.1140 C.ar  270  PHE270     -0.0003
     44  CE2      -22.8600   26.8140    6.9290 C.ar  270  PHE270     -0.0003
     45  CZ       -21.5710   26.9470    7.3180 C.ar  270  PHE270     -0.0000
     46  N        -21.5550   23.6140   14.8100 N.3   314  ASN314     -0.1240
     47  CA       -20.2350   23.5590   14.2420 C.3   314  ASN314      0.1653
     48  C        -19.5130   22.3550   14.8040 C.2   314  ASN314      0.2266
     49  O        -19.3020   22.2540   16.0030 O.2   314  ASN314     -0.2867
     50  CB       -19.4550   24.8140   14.5690 C.3   314  ASN314      0.1155
     51  CG       -18.2050   24.9550   13.7230 C.2   314  ASN314      0.2627
     52  OD1      -17.5820   23.9570   13.2980 O.2   314  ASN314     -0.2716
     53  ND2      -17.8240   26.2130   13.4700 N.am  314  ASN314     -0.0877
     54  N        -16.3850   21.1690   15.5550 N.3   316  THR316     -0.1218
     55  CA       -15.2130   21.9870   15.6740 C.3   316  THR316      0.1862
     56  C        -13.9480   21.1580   15.5210 C.2   316  THR316      0.2287
     57  O        -12.8830   21.7080   15.2960 O.2   316  THR316     -0.2866
     58  CB       -15.2310   22.8390   16.9600 C.3   316  THR316      0.1770
     59  OG1      -15.4850   22.0190   18.1200 O.3   316  THR316     -0.2211
     60  CG2      -16.3140   23.8910   16.8240 C.3   316  THR316      0.0375
     61  N        -12.4340   20.7140    9.9120 N.3   319  ARG319     -0.1245
     62  CA       -12.7210   21.9040    9.1190 C.3   319  ARG319      0.1563
     63  C        -13.8240   21.6460    8.0950 C.2   319  ARG319      0.2260
     64  O        -13.8360   20.5960    7.4420 O.2   319  ARG319     -0.2867
     65  CB       -11.4350   22.3710    8.4350 C.3   319  ARG319      0.0307
     66  CG       -11.5550   23.3910    7.3200 C.3   319  ARG319      0.0489
     67  CD       -10.1550   23.7090    6.7770 C.3   319  ARG319      0.2205
     68  NE        -9.7110   22.6610    5.8600 N.pl3 319  ARG319     -0.0865
     69  CZ        -9.9540   22.7070    4.5490 C.cat 319  ARG319      0.5346
     70  NH1      -10.6260   23.7480    4.0490 N.pl3 319  ARG319      0.1354
     71  NH2       -9.5430   21.7300    3.7370 N.pl3 319  ARG319      0.1354
     72  N        -20.4450   20.7180    9.5760 N.3   322  TYR322     -0.1241
     73  CA       -21.5170   21.2140   10.4160 C.3   322  TYR322      0.1605
     74  C        -22.6560   20.1880   10.3690 C.2   322  TYR322      0.2264
     75  O        -22.8720   19.5470    9.3220 O.2   322  TYR322     -0.2867
     76  CB       -21.9780   22.5750    9.8960 C.3   322  TYR322      0.0534
     77  CG       -20.8920   23.6240    9.8720 C.ar  322  TYR322     -0.0201
     78  CD1      -19.9250   23.6560    8.8560 C.ar  322  TYR322     -0.0009
     79  CD2      -20.8240   24.5910   10.8570 C.ar  322  TYR322     -0.0009
     80  CE1      -18.9280   24.6200    8.8360 C.ar  322  TYR322      0.0417
     81  CE2      -19.8420   25.5430   10.8460 C.ar  322  TYR322      0.0417
     82  CZ       -18.8930   25.5610    9.8320 C.ar  322  TYR322      0.1957
     83  OH       -17.8960   26.5450    9.8520 O.3   322  TYR322     -0.2866
     84  N        -11.5010   21.4000   19.0930 N.3   390  PRO390     -0.2116
     85  CA       -10.5900   21.5910   17.9490 C.3   390  PRO390      0.1372
     86  C         -9.2240   20.9300   18.1300 C.2   390  PRO390      0.2244
     87  O         -8.5510   20.6810   17.1230 O.2   390  PRO390     -0.2868
     88  CB       -10.3990   23.1100   17.8730 C.3   390  PRO390      0.0268
     89  CG       -11.4220   23.6940   18.7020 C.3   390  PRO390      0.0207
     90  CD       -11.8970   22.6720   19.7120 C.3   390  PRO390      0.0892
     91  N         -0.3510   19.8620   11.0600 N.3   567  LYS567     -0.1245
     92  CA        -0.9990   19.4650    9.8130 C.3   567  LYS567      0.1561
     93  C         -0.3570   20.1620    8.6280 C.2   567  LYS567      0.2260
     94  O          0.1710   21.2580    8.7710 O.2   567  LYS567     -0.2867
     95  CB        -2.4860   19.8310    9.8500 C.3   567  LYS567      0.0271
     96  CG        -2.6990   21.2570   10.3040 C.3   567  LYS567      0.0035
     97  CD        -4.0510   21.8150    9.9470 C.3   567  LYS567      0.0206
     98  CE        -4.1900   23.2170   10.5290 C.3   567  LYS567      0.1093
     99  NZ        -5.0810   24.1000    9.7140 N.3   567  LYS567     -0.1314
@<TRIPOS>BOND
     1    71    69    1
     2    70    69    1
     3    69    68    2
     4    31    32    1
     5    31    28    1
     6    34    33    1
     7    32    33    1
     8    68    67    1
     9    28    27    1
    10    28    29    1
    11    67    66    1
    12    44    45   ar
    13    44    42   ar
    14    22    21    2
    15    29    30    2
    16    45    43   ar
    17    66    65    1
    18    42    40   ar
    19    64    63    2
    20    26    24   ar
    21    21    20    1
    22    36    35    1
    23    36    37    1
    24    36    39    1
    25    63    62    1
    26    43    41   ar
    27    40    41   ar
    28    40    39    1
    29    17    16    2
    30    65    62    1
    31    37    38    2
    32    18    16   am
    33    93    94    2
    34    93    92    1
    35    24    25   ar
    36    24    23    1
    37    80    78   ar
    38    80    82   ar
    39    78    77   ar
    40    16    15    1
    41    14    13    2
    42    62    61    1
    43    20    23    1
    44    20    19    1
    45    75    74    2
    46    72    73    1
    47    99    98    1
    48    13    19   am
    49    13    12    1
    50    92    95    1
    51    92    91    1
    52    82    83    1
    53    82    81   ar
    54    95    96    1
    55    77    76    1
    56    77    79   ar
    57    76    73    1
    58    97    96    1
    59    97    98    1
    60    74    73    1
    61    15    12    1
    62     4     3    2
    63    12    11    1
    64    11     8   am
    65    81    79   ar
    66     7    10    1
    67     7     8    1
    68     7     6    1
    69     3     6   am
    70     3     2    1
    71     8     9    2
    72     5     2    1
    73     1     2    1
    74    52    51    2
    75    53    51   am
    76    51    50    1
    77    47    50    1
    78    47    48    1
    79    47    46    1
    80    48    49    2
    81    57    56    2
    82    56    55    1
    83    54    55    1
    84    55    58    1
    85    60    58    1
    86    58    59    1
    87    87    86    2
    88    88    85    1
    89    88    89    1
    90    85    86    1
    91    85    84    1
    92    89    90    1
    93    84    90    1
