@<TRIPOS>MOLECULE
tmp/4msnA00.pdb
 117 111 0 0 0
SMALL
GASTEIGER

@<TRIPOS>ATOM
      1  N         14.8520  -26.2310  -30.8540 N.3    79  TYR79      -0.1241
      2  CA        13.6450  -26.8660  -30.3220 C.3    79  TYR79       0.1605
      3  C         13.8100  -28.2850  -29.7960 C.2    79  TYR79       0.2264
      4  O         13.5020  -28.5400  -28.6320 O.2    79  TYR79      -0.2867
      5  CB        12.4660  -26.7910  -31.2960 C.3    79  TYR79       0.0534
      6  CG        11.1850  -27.3470  -30.7140 C.ar   79  TYR79      -0.0201
      7  CD1       10.5540  -26.7190  -29.6410 C.ar   79  TYR79      -0.0009
      8  CD2       10.6090  -28.5140  -31.2240 C.ar   79  TYR79      -0.0009
      9  CE1        9.3790  -27.2320  -29.0950 C.ar   79  TYR79       0.0417
     10  CE2        9.4290  -29.0310  -30.6900 C.ar   79  TYR79       0.0417
     11  CZ         8.8200  -28.3860  -29.6280 C.ar   79  TYR79       0.1957
     12  OH         7.6510  -28.8910  -29.0960 O.3    79  TYR79      -0.2866
     13  N          4.9170  -38.2650  -36.1120 N.3   190  LEU190     -0.1245
     14  CA         3.5950  -37.7100  -36.4070 C.3   190  LEU190      0.1561
     15  C          2.8860  -38.3020  -37.6390 C.2   190  LEU190      0.2260
     16  O          1.6560  -38.1530  -37.7870 O.2   190  LEU190     -0.2867
     17  CB         3.6750  -36.1840  -36.5340 C.3   190  LEU190      0.0270
     18  CG         3.4820  -35.3120  -35.2870 C.3   190  LEU190      0.0019
     19  CD1        3.7140  -33.8520  -35.6510 C.3   190  LEU190      0.0001
     20  CD2        2.0820  -35.4990  -34.6490 C.3   190  LEU190      0.0001
     21  N          4.0460  -35.0430  -26.5860 N.3   229  ASP229     -0.1225
     22  CA         4.9770  -34.4580  -27.5360 C.3   229  ASP229      0.1805
     23  C          4.5710  -33.0590  -27.9880 C.2   229  ASP229      0.2597
     24  O          5.4310  -32.2040  -28.2040 O.2   229  ASP229     -0.2718
     25  CB         5.1590  -35.3770  -28.7480 C.3   229  ASP229      0.1424
     26  CG         6.4030  -35.0380  -29.5470 C.2   229  ASP229      0.3668
     27  OD1        6.5670  -35.5580  -30.6670 O.co2 229  ASP229     -0.2456
     28  OD2        7.2190  -34.2370  -29.0550 O.co2 229  ASP229     -0.2456
     29  N          3.2670  -32.8290  -28.1010 N.am  230  LEU230     -0.1979
     30  CA         2.7300  -31.5620  -28.6000 C.3   230  LEU230      0.1596
     31  C          2.2790  -30.6110  -27.4990 C.2   230  LEU230      0.2287
     32  O          1.6700  -29.5890  -27.7940 O.2   230  LEU230     -0.2864
     33  CB         1.5420  -31.8140  -29.5450 C.3   230  LEU230      0.0297
     34  CG         1.6090  -32.8410  -30.6820 C.3   230  LEU230      0.0022
     35  CD1        0.2600  -32.8960  -31.4260 C.3   230  LEU230      0.0001
     36  CD2        2.7560  -32.5280  -31.6520 C.3   230  LEU230      0.0001
     37  N          3.2540  -28.2540  -25.9210 N.3   232  SER232     -0.1202
     38  CA         3.5260  -26.8280  -26.0750 C.3   232  SER232      0.2020
     39  C          2.2450  -26.0540  -26.3260 C.2   232  SER232      0.2618
     40  O          2.1470  -24.8880  -25.9450 O.2   232  SER232     -0.2717
     41  CB         4.5330  -26.5480  -27.2050 C.3   232  SER232      0.2103
     42  OG         4.4270  -27.4700  -28.2890 O.3   232  SER232     -0.2182
     43  N          1.2700  -26.7080  -26.9600 N.am  233  VAL233     -0.1979
     44  CA        -0.0120  -26.0810  -27.3240 C.3   233  VAL233      0.1595
     45  C         -1.0700  -26.1450  -26.2220 C.2   233  VAL233      0.2287
     46  O         -2.2250  -25.7250  -26.4380 O.2   233  VAL233     -0.2864
     47  CB        -0.6040  -26.6720  -28.6400 C.3   233  VAL233      0.0276
     48  CG1        0.4380  -26.6870  -29.7700 C.3   233  VAL233      0.0022
     49  CG2       -1.1870  -28.0640  -28.4200 C.3   233  VAL233      0.0022
     50  N          6.6940  -21.5710  -29.7790 N.3   244  ALA244     -0.1245
     51  CA         6.5920  -21.5310  -31.2410 C.3   244  ALA244      0.1562
     52  C          7.8040  -20.8540  -31.8900 C.2   244  ALA244      0.2260
     53  O          8.3260  -21.3510  -32.8920 O.2   244  ALA244     -0.2867
     54  CB         5.3060  -20.8770  -31.6820 C.3   244  ALA244      0.0290
     55  N         10.2180  -23.5160  -32.1110 N.3   247  ILE247     -0.1231
     56  CA         9.8000  -24.5060  -33.1100 C.3   247  ILE247      0.1692
     57  C         10.1160  -24.0010  -34.5220 C.2   247  ILE247      0.2592
     58  O         10.6440  -24.7460  -35.3520 O.2   247  ILE247     -0.2718
     59  CB         8.2710  -24.8460  -32.9970 C.3   247  ILE247      0.0266
     60  CG1        7.9650  -25.5670  -31.6810 C.3   247  ILE247      0.0019
     61  CG2        7.8170  -25.7240  -34.1390 C.3   247  ILE247      0.0020
     62  CD1        6.5320  -25.4580  -31.2120 C.3   247  ILE247      0.0001
     63  N          9.8030  -22.7310  -34.7830 N.am  248  TYR248     -0.1976
     64  CA        10.0600  -22.1370  -36.0900 C.3   248  TYR248      0.1639
     65  C         11.5330  -21.7970  -36.3390 C.2   248  TYR248      0.2290
     66  O         12.0260  -22.0140  -37.4410 O.2   248  TYR248     -0.2864
     67  CB         9.1480  -20.9500  -36.3380 C.3   248  TYR248      0.0560
     68  CG         7.7620  -21.3710  -36.7770 C.ar  248  TYR248     -0.0198
     69  CD1        6.7350  -21.5470  -35.8460 C.ar  248  TYR248     -0.0009
     70  CD2        7.4820  -21.6080  -38.1200 C.ar  248  TYR248     -0.0009
     71  CE1        5.4600  -21.9400  -36.2490 C.ar  248  TYR248      0.0417
     72  CE2        6.2150  -21.9990  -38.5300 C.ar  248  TYR248      0.0417
     73  CZ         5.2110  -22.1600  -37.5940 C.ar  248  TYR248      0.1957
     74  OH         3.9640  -22.5490  -38.0050 O.3   248  TYR248     -0.2866
     75  N         12.8670  -24.8190  -37.7800 N.3   251  PHE251     -0.1241
     76  CA        12.3270  -25.0570  -39.1120 C.3   251  PHE251      0.1605
     77  C         13.0570  -24.2190  -40.1700 C.2   251  PHE251      0.2264
     78  O         13.4420  -24.7360  -41.2190 O.2   251  PHE251     -0.2867
     79  CB        10.8220  -24.7620  -39.1640 C.3   251  PHE251      0.0534
     80  CG         9.9620  -25.7830  -38.4590 C.ar  251  PHE251     -0.0203
     81  CD1       10.3780  -27.1030  -38.3160 C.ar  251  PHE251     -0.0042
     82  CD2        8.7100  -25.4220  -37.9700 C.ar  251  PHE251     -0.0042
     83  CE1        9.5720  -28.0390  -37.6720 C.ar  251  PHE251     -0.0003
     84  CE2        7.8950  -26.3500  -37.3360 C.ar  251  PHE251     -0.0003
     85  CZ         8.3240  -27.6610  -37.1850 C.ar  251  PHE251     -0.0000
     86  N          6.3890  -23.2920  -44.3470 N.3   268  MET268     -0.1245
     87  CA         6.6010  -23.4120  -42.9070 C.3   268  MET268      0.1570
     88  C          8.0840  -23.3270  -42.5060 C.2   268  MET268      0.2261
     89  O          8.4040  -22.8970  -41.3970 O.2   268  MET268     -0.2867
     90  CB         5.9800  -24.7150  -42.3880 C.3   268  MET268      0.0387
     91  CG         5.9390  -24.8510  -40.8640 C.3   268  MET268      0.0595
     92  SD         5.7260  -26.5510  -40.3000 S.3   268  MET268     -0.1393
     93  CE         7.3210  -27.2550  -40.7170 C.3   268  MET268      0.0692
     94  N         -0.9240  -21.0930  -40.6830 N.3   280  GLY280     -0.1210
     95  CA        -0.3170  -22.4140  -40.5640 C.3   280  GLY280      0.1956
     96  C         -0.6290  -23.0770  -39.2350 C.2   280  GLY280      0.2611
     97  O         -0.9450  -24.2710  -39.1750 O.2   280  GLY280     -0.2717
     98  N         -0.5600  -22.2900  -38.1650 N.am  281  GLN281     -0.1979
     99  CA        -0.8780  -22.7860  -36.8340 C.3   281  GLN281      0.1601
    100  C         -2.3600  -23.1540  -36.6900 C.2   281  GLN281      0.2287
    101  O         -2.6820  -24.2040  -36.1370 O.2   281  GLN281     -0.2864
    102  CB        -0.4070  -21.7900  -35.7690 C.3   281  GLN281      0.0394
    103  CG         1.1200  -21.8110  -35.5640 C.3   281  GLN281      0.0908
    104  CD         1.5910  -23.0890  -34.8960 C.2   281  GLN281      0.2608
    105  OE1        1.3380  -23.3080  -33.7170 O.2   281  GLN281     -0.2717
    106  NE2        2.2640  -23.9500  -35.6530 N.am  281  GLN281     -0.0878
    107  N         -2.7250  -26.4920  -38.3030 N.3   284  PHE284     -0.1241
    108  CA        -2.0900  -27.5350  -37.5040 C.3   284  PHE284      0.1605
    109  C         -2.9200  -27.8890  -36.2740 C.2   284  PHE284      0.2264
    110  O         -2.9250  -29.0440  -35.8460 O.2   284  PHE284     -0.2867
    111  CB        -0.6680  -27.1500  -37.0750 C.3   284  PHE284      0.0534
    112  CG        -0.0540  -28.1300  -36.1130 C.ar  284  PHE284     -0.0203
    113  CD1        0.5470  -29.2920  -36.5770 C.ar  284  PHE284     -0.0042
    114  CD2       -0.1230  -27.9150  -34.7370 C.ar  284  PHE284     -0.0042
    115  CE1        1.1010  -30.2230  -35.6850 C.ar  284  PHE284     -0.0003
    116  CE2        0.4170  -28.8360  -33.8400 C.ar  284  PHE284     -0.0003
    117  CZ         1.0350  -29.9940  -34.3170 C.ar  284  PHE284     -0.0000
@<TRIPOS>BOND
     1    86    87    1
     2    87    88    1
     3    87    90    1
     4    88    89    2
     5    90    91    1
     6    78    77    2
     7    91    92    1
     8    93    92    1
     9    94    95    1
    10    95    96    1
    11    77    76    1
    12    96    97    2
    13    96    98   am
    14    79    76    1
    15    79    80    1
    16    76    75    1
    17    72    70   ar
    18    72    73   ar
    19    80    81   ar
    20    80    82   ar
    21    81    83   ar
    22   107   108    1
    23    98    99    1
    24    70    68   ar
    25    74    73    1
    26    82    84   ar
    27    16    15    2
    28    83    85   ar
    29    15    14    1
    30    73    71   ar
    31   108   111    1
    32   108   109    1
    33    66    65    2
    34    84    85   ar
    35   111   112    1
    36    99   100    1
    37    99   102    1
    38    68    67    1
    39    68    69   ar
    40   100   101    2
    41   113   112   ar
    42   113   115   ar
    43    17    14    1
    44    17    18    1
    45    14    13    1
    46    65    64    1
    47    67    64    1
    48   109   110    2
    49    71    69   ar
    50   112   114   ar
    51    64    63    1
    52   102   103    1
    53   115   117   ar
    54   106   104   am
    55    19    18    1
    56   103   104    1
    57    58    57    2
    58    18    20    1
    59   104   105    2
    60    63    57   am
    61   114   116   ar
    62    57    56    1
    63   117   116   ar
    64    61    59    1
    65    56    59    1
    66    56    55    1
    67    59    60    1
    68    53    52    2
    69    52    51    1
    70    54    51    1
    71    60    62    1
    72    36    34    1
    73    35    34    1
    74     5     6    1
    75     5     2    1
    76    51    50    1
    77     8     6   ar
    78     8    10   ar
    79     1     2    1
    80     6     7   ar
    81    10    11   ar
    82    34    33    1
    83    27    26   ar
    84     2     3    1
    85     3     4    2
    86    48    47    1
    87     7     9   ar
    88    11    12    1
    89    11     9   ar
    90    26    28   ar
    91    26    25    1
    92    33    30    1
    93    25    22    1
    94    47    49    1
    95    47    44    1
    96    30    29    1
    97    30    31    1
    98    42    41    1
    99    24    23    2
   100    29    23   am
   101    23    22    1
   102    32    31    2
   103    22    21    1
   104    44    43    1
   105    44    45    1
   106    41    38    1
   107    43    39   am
   108    46    45    2
   109    39    38    1
   110    39    40    2
   111    38    37    1
