@<TRIPOS>MOLECULE
tmp/4mssB00.pdb
 182 170 0 0 0
SMALL
GASTEIGER

@<TRIPOS>ATOM
      1  N         55.0560  -16.8450   49.1630 N.3    32  ILE32      -0.1245
      2  CA        56.1800  -15.9230   49.2220 C.3    32  ILE32       0.1561
      3  C         57.2010  -16.5010   50.1860 C.2    32  ILE32       0.2260
      4  O         56.8540  -16.9550   51.2840 O.2    32  ILE32      -0.2867
      5  CB        55.7760  -14.5000   49.6490 C.3    32  ILE32       0.0252
      6  CG1       57.0190  -13.5990   49.7730 C.3    32  ILE32       0.0019
      7  CG2       55.0090  -14.4980   50.9600 C.3    32  ILE32       0.0019
      8  CD1       56.6900  -12.1160   49.8870 C.3    32  ILE32       0.0001
      9  N         61.0190  -16.3630   52.2140 N.3    34  PHE34      -0.1241
     10  CA        61.8360  -15.4680   53.0150 C.3    34  PHE34       0.1605
     11  C         63.1630  -16.1560   53.3330 C.2    34  PHE34       0.2264
     12  O         63.3810  -17.3130   52.9660 O.2    34  PHE34      -0.2867
     13  CB        61.1020  -15.0680   54.2960 C.3    34  PHE34       0.0534
     14  CG        59.9300  -14.1610   54.0380 C.ar   34  PHE34      -0.0203
     15  CD1       60.1400  -12.8600   53.6470 C.ar   34  PHE34      -0.0042
     16  CD2       58.6370  -14.6240   54.1330 C.ar   34  PHE34      -0.0042
     17  CE1       59.0670  -12.0110   53.3570 C.ar   34  PHE34      -0.0003
     18  CE2       57.5710  -13.7870   53.8690 C.ar   34  PHE34      -0.0003
     19  CZ        57.7870  -12.4800   53.4800 C.ar   34  PHE34      -0.0000
     20  N         61.3070  -11.7370   47.6560 N.3    63  ASP63      -0.1239
     21  CA        61.8770  -10.3910   47.5650 C.3    63  ASP63       0.1674
     22  C         63.3770  -10.4400   47.2570 C.2    63  ASP63       0.2266
     23  O         64.2120  -10.5390   48.1640 O.2    63  ASP63      -0.2867
     24  CB        61.6820   -9.6340   48.8590 C.3    63  ASP63       0.1410
     25  CG        60.2350   -9.5460   49.2550 C.2    63  ASP63       0.3668
     26  OD1       59.4100   -9.2540   48.3610 O.co2  63  ASP63      -0.2456
     27  OD2       59.9260   -9.7760   50.4520 O.co2  63  ASP63      -0.2456
     28  N         65.6110   -7.9240   45.5190 N.3    65  GLU65      -0.1245
     29  CA        65.8250   -6.6260   44.9630 C.3    65  GLU65       0.1567
     30  C         67.3290   -6.4430   44.7320 C.2    65  GLU65       0.2260
     31  O         67.7460   -5.9110   43.7130 O.2    65  GLU65      -0.2867
     32  CB        65.3180   -5.5680   45.9320 C.3    65  GLU65       0.0388
     33  CG        63.8130   -5.5480   46.1490 C.3    65  GLU65       0.1160
     34  CD        63.3870   -4.5390   47.1900 C.2    65  GLU65       0.3649
     35  OE1       64.1260   -3.5450   47.3880 O.co2  65  GLU65      -0.2457
     36  OE2       62.3290   -4.7560   47.8370 O.co2  65  GLU65      -0.2457
     37  N         67.7160   -5.9400   50.4930 N.3    69  VAL69      -0.1245
     38  CA        66.6130   -6.8770   50.3150 C.3    69  VAL69       0.1561
     39  C         66.9690   -7.9490   49.2970 C.2    69  VAL69       0.2260
     40  O         66.8300   -7.7520   48.0870 O.2    69  VAL69      -0.2867
     41  CB        65.3260   -6.1360   49.9040 C.3    69  VAL69       0.0252
     42  CG1       64.1430   -7.0670   49.8670 C.3    69  VAL69       0.0019
     43  CG2       65.0490   -5.0060   50.8570 C.3    69  VAL69       0.0019
     44  N         66.8930  -12.3660   49.8280 N.3    71  ARG71      -0.1245
     45  CA        66.7580  -13.4160   50.8450 C.3    71  ARG71       0.1563
     46  C         67.7920  -14.5200   50.7370 C.2    71  ARG71       0.2260
     47  O         68.1900  -15.0810   51.7510 O.2    71  ARG71      -0.2867
     48  CB        65.3660  -14.0300   50.7850 C.3    71  ARG71       0.0307
     49  CG        64.2080  -13.0140   50.7800 C.3    71  ARG71       0.0489
     50  CD        64.2550  -12.0250   51.9270 C.3    71  ARG71       0.2205
     51  NE        63.0660  -11.1800   51.9110 N.pl3  71  ARG71      -0.0865
     52  CZ        62.9240  -10.0140   52.5370 C.cat  71  ARG71       0.5346
     53  NH1       63.9060   -9.5010   53.2570 N.pl3  71  ARG71       0.1354
     54  NH2       61.7790   -9.3390   52.4180 N.pl3  71  ARG71       0.1354
     55  N         59.6250   -9.7860   43.6520 N.3   121  PHE121     -0.1241
     56  CA        58.9340   -8.5090   43.8140 C.3   121  PHE121      0.1605
     57  C         59.9370   -7.3650   43.6510 C.2   121  PHE121      0.2264
     58  O         60.4050   -6.7520   44.6180 O.2   121  PHE121     -0.2867
     59  CB        58.2080   -8.4280   45.1370 C.3   121  PHE121      0.0534
     60  CG        57.0030   -9.3290   45.2260 C.ar  121  PHE121     -0.0203
     61  CD1       55.9130   -9.1430   44.3910 C.ar  121  PHE121     -0.0042
     62  CD2       56.9680  -10.3660   46.1460 C.ar  121  PHE121     -0.0042
     63  CE1       54.8210   -9.9600   44.4640 C.ar  121  PHE121     -0.0003
     64  CE2       55.8670  -11.1940   46.2270 C.ar  121  PHE121     -0.0003
     65  CZ        54.7890  -10.9830   45.3860 C.ar  121  PHE121     -0.0000
     66  N         62.8480    3.2290   55.1770 N.3   134  VAL134     -0.1231
     67  CA        62.4690    1.8790   54.7580 C.3   134  VAL134      0.1692
     68  C         62.8150    1.6680   53.2890 C.2   134  VAL134      0.2591
     69  O         63.2610    0.5750   52.9000 O.2   134  VAL134     -0.2718
     70  CB        60.9700    1.5630   55.0640 C.3   134  VAL134      0.0266
     71  CG1       60.0430    2.4470   54.2760 C.3   134  VAL134      0.0020
     72  CG2       60.6370    0.0960   54.7760 C.3   134  VAL134      0.0020
     73  N         62.6440    2.7120   52.4750 N.am  135  ILE135     -0.1980
     74  CA        63.0380    2.6320   51.0640 C.3   135  ILE135      0.1595
     75  C         64.5600    2.8370   50.9570 C.2   135  ILE135      0.2287
     76  O         65.2940    1.9060   50.6160 O.2   135  ILE135     -0.2864
     77  CB        62.2300    3.6050   50.1680 C.3   135  ILE135      0.0276
     78  CG1       60.7280    3.3530   50.2890 C.3   135  ILE135      0.0022
     79  CG2       62.6710    3.4950   48.7000 C.3   135  ILE135      0.0022
     80  CD1       60.2760    1.8810   50.0800 C.3   135  ILE135      0.0001
     81  N         67.1180    1.3210   48.3030 N.3   138  ARG138     -0.1245
     82  CA        66.3090    0.4360   47.4590 C.3   138  ARG138      0.1563
     83  C         65.8160    1.1510   46.1910 C.2   138  ARG138      0.2260
     84  O         65.4880    0.5150   45.1940 O.2   138  ARG138     -0.2867
     85  CB        65.1160   -0.1030   48.2600 C.3   138  ARG138      0.0307
     86  CG        65.5300   -1.0530   49.4020 C.3   138  ARG138      0.0489
     87  CD        64.3700   -1.2890   50.3840 C.3   138  ARG138      0.2205
     88  NE        63.2840   -2.0520   49.7860 N.pl3 138  ARG138     -0.0865
     89  CZ        62.0440   -2.1280   50.2700 C.cat 138  ARG138      0.5346
     90  NH1       61.6860   -1.4500   51.3510 N.pl3 138  ARG138      0.1354
     91  NH2       61.1410   -2.8730   49.6420 N.pl3 138  ARG138      0.1354
     92  N         56.8900   -1.3540   42.6900 N.3   168  LYS168     -0.1231
     93  CA        56.3870   -0.9830   44.0300 C.3   168  LYS168      0.1693
     94  C         57.0450    0.3030   44.5650 C.2   168  LYS168      0.2592
     95  O         58.1360    0.6730   44.1040 O.2   168  LYS168     -0.2718
     96  CB        56.6310   -2.1370   45.0080 C.3   168  LYS168      0.0285
     97  CG        58.0880   -2.5100   45.1720 C.3   168  LYS168      0.0035
     98  CD        58.2530   -3.8980   45.8090 C.3   168  LYS168      0.0206
     99  CE        59.6380   -4.0870   46.4040 C.3   168  LYS168      0.1093
    100  NZ        59.7810   -5.4660   46.9960 N.3   168  LYS168     -0.1314
    101  N         56.4190    1.0210   45.5060 N.am  169  HIS169     -0.1976
    102  CA        55.0990    0.7500   46.0960 C.3   169  HIS169      0.1656
    103  C         54.1530    1.8600   45.6500 C.2   169  HIS169      0.2291
    104  O         54.2710    3.0110   46.0810 O.2   169  HIS169     -0.2864
    105  CB        55.2330    0.7350   47.6220 C.3   169  HIS169      0.0771
    106  CG        56.3010   -0.1990   48.1190 C.ar  169  HIS169      0.0820
    107  ND1       57.6480    0.0990   48.0510 N.ar  169  HIS169     -0.2267
    108  CD2       56.2180   -1.4340   48.6640 C.ar  169  HIS169      0.1154
    109  CE1       58.3420   -0.9080   48.5480 C.ar  169  HIS169      0.1986
    110  NE2       57.4970   -1.8540   48.9250 N.ar  169  HIS169     -0.2212
    111  N         56.2330    5.2880   47.7280 N.3   173  HIS173     -0.1241
    112  CA        56.5750    5.2570   49.1620 C.3   173  HIS173      0.1621
    113  C         57.8180    6.1100   49.4510 C.2   173  HIS173      0.2264
    114  O         58.2620    6.1750   50.5860 O.2   173  HIS173     -0.2867
    115  CB        56.8520    3.8080   49.5750 C.3   173  HIS173      0.0745
    116  CG        56.5430    3.4840   51.0110 C.ar  173  HIS173      0.0817
    117  ND1       57.0250    4.2240   52.0720 N.ar  173  HIS173     -0.2268
    118  CD2       55.8410    2.4590   51.5550 C.ar  173  HIS173      0.1154
    119  CE1       56.6040    3.6860   53.2060 C.ar  173  HIS173      0.1986
    120  NE2       55.8870    2.6110   52.9200 N.ar  173  HIS173     -0.2212
    121  N         55.9700    1.6720   56.8190 N.3   180  SER180     -0.1202
    122  CA        54.6680    1.0210   56.8750 C.3   180  SER180      0.2020
    123  C         54.6630   -0.3370   57.5900 C.2   180  SER180      0.2618
    124  O         53.5940   -0.8670   57.8550 O.2   180  SER180     -0.2717
    125  CB        54.0480    0.8870   55.4640 C.3   180  SER180      0.2103
    126  OG        55.0090    0.4680   54.4940 O.3   180  SER180     -0.2182
    127  N         55.8340   -0.9070   57.8820 N.am  181  HIS181     -0.1975
    128  CA        55.9140   -2.1450   58.6530 C.3   181  HIS181      0.1656
    129  C         55.4270   -1.9050   60.0850 C.2   181  HIS181      0.2291
    130  O         54.8660   -2.8040   60.7220 O.2   181  HIS181     -0.2864
    131  CB        57.3500   -2.6480   58.7610 C.3   181  HIS181      0.0771
    132  CG        57.8840   -3.2580   57.5080 C.ar  181  HIS181      0.0820
    133  ND1       58.5340   -2.5160   56.5450 N.ar  181  HIS181     -0.2267
    134  CD2       57.8530   -4.5290   57.0500 C.ar  181  HIS181      0.1154
    135  CE1       58.9040   -3.3110   55.5540 C.ar  181  HIS181      0.1986
    136  NE2       58.5100   -4.5370   55.8390 N.ar  181  HIS181     -0.2212
    137  N         52.6450   -3.6020   43.3540 N.3   213  ILE213     -0.1245
    138  CA        52.2620   -3.6350   44.7800 C.3   213  ILE213      0.1561
    139  C         51.9610   -2.1830   45.1790 C.2   213  ILE213      0.2260
    140  O         52.8070   -1.3130   45.0090 O.2   213  ILE213     -0.2867
    141  CB        53.3760   -4.1950   45.7310 C.3   213  ILE213      0.0252
    142  CG1       53.4700   -5.7210   45.6630 C.3   213  ILE213      0.0019
    143  CG2       53.0880   -3.8420   47.1940 C.3   213  ILE213      0.0019
    144  CD1       54.7720   -6.2640   46.2280 C.3   213  ILE213      0.0001
    145  N         50.4070   -5.0520   49.4130 N.3   251  ASP251     -0.1225
    146  CA        51.5480   -5.2340   50.3170 C.3   251  ASP251      0.1805
    147  C         51.0760   -6.0830   51.5020 C.2   251  ASP251      0.2597
    148  O         49.8870   -6.2820   51.7100 O.2   251  ASP251     -0.2718
    149  CB        52.1410   -3.9030   50.7360 C.3   251  ASP251      0.1424
    150  CG        53.6060   -4.0210   51.1480 C.2   251  ASP251      0.3668
    151  OD1       54.1080   -5.1570   51.2480 O.co2 251  ASP251     -0.2456
    152  OD2       54.2510   -2.9690   51.3770 O.co2 251  ASP251     -0.2456
    153  N         52.0200   -6.6510   52.2380 N.am  252  ASP252     -0.1974
    154  CA        51.7190   -7.5960   53.2950 C.3   252  ASP252      0.1709
    155  C         50.6940   -7.0310   54.2890 C.2   252  ASP252      0.2293
    156  O         50.9080   -5.9730   54.8880 O.2   252  ASP252     -0.2864
    157  CB        53.0430   -7.9560   53.9870 C.3   252  ASP252      0.1436
    158  CG        52.8820   -8.9010   55.1380 C.2   252  ASP252      0.3671
    159  OD1       51.9100   -9.6690   55.1670 O.co2 252  ASP252     -0.2456
    160  OD2       53.7750   -8.8950   56.0170 O.co2 252  ASP252     -0.2456
    161  N         51.5640   -6.1310   57.9700 N.3   255  MET255     -0.1245
    162  CA        52.2930   -4.9000   58.3490 C.3   255  MET255      0.1570
    163  C         51.4070   -3.9580   59.1610 C.2   255  MET255      0.2261
    164  O         50.2090   -3.9310   58.9760 O.2   255  MET255     -0.2867
    165  CB        52.7900   -4.1680   57.0880 C.3   255  MET255      0.0387
    166  CG        53.7600   -4.9810   56.2730 C.3   255  MET255      0.0595
    167  SD        54.1330   -4.3520   54.6050 S.3   255  MET255     -0.1393
    168  CE        54.9310   -2.7800   54.9690 C.3   255  MET255      0.0692
    169  N         48.8510  -10.4140   50.0410 N.3   280  LEU280     -0.1245
    170  CA        49.9310  -11.0590   50.7650 C.3   280  LEU280      0.1561
    171  C         49.5860  -11.1020   52.2530 C.2   280  LEU280      0.2260
    172  O         49.1720  -10.0990   52.8300 O.2   280  LEU280     -0.2867
    173  CB        51.2260  -10.2670   50.5910 C.3   280  LEU280      0.0270
    174  CG        52.0620  -10.5380   49.3300 C.3   280  LEU280      0.0019
    175  CD1       51.2500  -10.4400   48.0450 C.3   280  LEU280      0.0001
    176  CD2       53.2400   -9.5720   49.3010 C.3   280  LEU280      0.0001
    177  N         51.7880  -12.5120   55.4060 N.3   282  CYS282     -0.1235
    178  CA        53.0950  -13.0660   55.7120 C.3   282  CYS282      0.1677
    179  C         53.3220  -13.2100   57.2090 C.2   282  CYS282      0.2270
    180  O         52.8010  -12.4340   57.9990 O.2   282  CYS282     -0.2867
    181  CB        54.2030  -12.1550   55.1750 C.3   282  CYS282      0.0956
    182  SG        54.0570  -11.7670   53.4080 S.3   282  CYS282     -0.0801
@<TRIPOS>BOND
     1    92    93    1
     2   137   138    1
     3    57    56    1
     4    57    58    2
     5    55    56    1
     6    31    30    2
     7    56    59    1
     8    93    94    1
     9    93    96    1
    10    95    94    2
    11    61    63   ar
    12    61    60   ar
    13    63    65   ar
    14    94   101   am
    15    30    29    1
    16   138   139    1
    17   138   141    1
    18    29    28    1
    19    29    32    1
    20    96    97    1
    21   140   139    2
    22    59    60    1
    23    97    98    1
    24    84    83    2
    25    60    62   ar
    26    65    64   ar
    27   101   102    1
    28   103   104    2
    29   103   102    1
    30   142   141    1
    31   142   144    1
    32   141   143    1
    33    98    99    1
    34    32    33    1
    35   102   105    1
    36    62    64   ar
    37    33    34    1
    38    83    82    1
    39    99   100    1
    40    34    35   ar
    41    34    36   ar
    42    22    21    1
    43    22    23    2
    44    82    85    1
    45    82    81    1
    46    21    20    1
    47    21    24    1
    48   105   106    1
    49   111   112    1
    50   175   174    1
    51   107   106   ar
    52   107   109   ar
    53    40    39    2
    54   106   108   ar
    55    85    86    1
    56    26    25   ar
    57   109   110   ar
    58   108   110   ar
    59    79    77    1
    60    24    25    1
    61   112   113    1
    62   112   115    1
    63     1     2    1
    64     2     5    1
    65     2     3    1
    66    25    27   ar
    67    39    38    1
    68   176   174    1
    69   174   173    1
    70    86    87    1
    71   145   146    1
    72   113   114    2
    73   115   116    1
    74    91    89    1
    75     5     6    1
    76     5     7    1
    77     6     8    1
    78    88    89    2
    79    88    87    1
    80    44    45    1
    81    42    41    1
    82    41    38    1
    83    41    43    1
    84   169   170    1
    85    80    78    1
    86    77    78    1
    87    77    74    1
    88     3     4    2
    89    89    90    1
    90    38    37    1
    91   146   149    1
    92   146   147    1
    93   173   170    1
    94    76    75    2
    95   149   150    1
    96    46    45    1
    97    46    47    2
    98   170   171    1
    99    49    48    1
   100    49    50    1
   101    48    45    1
   102    75    74    1
   103   116   118   ar
   104   116   117   ar
   105    74    73    1
   106   150   151   ar
   107   150   152   ar
   108   147   148    2
   109   147   153   am
   110   118   120   ar
   111    51    50    1
   112    51    52    2
   113   117   119   ar
   114     9    10    1
   115   153   154    1
   116   171   172    2
   117    54    52    1
   118    73    68   am
   119    52    53    1
   120    69    68    2
   121   120   119   ar
   122    12    11    2
   123    10    11    1
   124    10    13    1
   125    68    67    1
   126   154   157    1
   127   154   155    1
   128    17    19   ar
   129    17    15   ar
   130   182   181    1
   131    19    18   ar
   132    15    14   ar
   133    18    16   ar
   134   157   158    1
   135    14    16   ar
   136    14    13    1
   137    71    70    1
   138   155   156    2
   139   126   125    1
   140   167   168    1
   141   167   166    1
   142    67    70    1
   143    67    66    1
   144    72    70    1
   145   158   159   ar
   146   158   160   ar
   147   181   178    1
   148   177   178    1
   149   125   122    1
   150   135   136   ar
   151   135   133   ar
   152   178   179    1
   153   136   134   ar
   154   166   165    1
   155   133   132   ar
   156   121   122    1
   157   122   123    1
   158   134   132   ar
   159   165   162    1
   160   179   180    2
   161   132   131    1
   162   123   124    2
   163   123   127   am
   164   127   128    1
   165   161   162    1
   166   162   163    1
   167   128   131    1
   168   128   129    1
   169   164   163    2
   170   129   130    2
