@<TRIPOS>MOLECULE
tmp/4msuB00.pdb
 214 206 0 0 0
SMALL
GASTEIGER

@<TRIPOS>ATOM
      1  N         28.4320  -32.8810   -3.9890 N.3     9  HIS9       -0.1241
      2  CA        29.1380  -31.9660   -4.9160 C.3     9  HIS9        0.1621
      3  C         28.3380  -31.5930   -6.1690 C.2     9  HIS9        0.2264
      4  O         28.7290  -30.6810   -6.8890 O.2     9  HIS9       -0.2867
      5  CB        30.4540  -32.6050   -5.3740 C.3     9  HIS9        0.0745
      6  CG        30.2420  -33.8780   -6.1240 C.ar    9  HIS9        0.0817
      7  ND1       30.1540  -33.9280   -7.5020 N.ar    9  HIS9       -0.2268
      8  CD2       30.0080  -35.1400   -5.6840 C.ar    9  HIS9        0.1154
      9  CE1       29.9170  -35.1740   -7.8810 C.ar    9  HIS9        0.1986
     10  NE2       29.8140  -35.9260   -6.7970 N.ar    9  HIS9       -0.2212
     11  N         25.5530  -22.1000  -12.2580 N.3    24  TYR24      -0.1227
     12  CA        25.7450  -23.5020  -12.5720 C.3    24  TYR24       0.1736
     13  C         26.7260  -23.5670  -13.7830 C.2    24  TYR24       0.2595
     14  O         27.7530  -24.2410  -13.6980 O.2    24  TYR24      -0.2718
     15  CB        24.3790  -24.1450  -12.8630 C.3    24  TYR24       0.0548
     16  CG        24.4230  -25.6000  -13.2120 C.ar   24  TYR24      -0.0200
     17  CD1       24.8290  -26.0060  -14.4690 C.ar   24  TYR24      -0.0009
     18  CD2       24.0480  -26.5770  -12.2970 C.ar   24  TYR24      -0.0009
     19  CE1       24.8840  -27.3440  -14.8070 C.ar   24  TYR24       0.0417
     20  CE2       24.1090  -27.9220  -12.6250 C.ar   24  TYR24       0.0417
     21  CZ        24.5300  -28.2960  -13.8970 C.ar   24  TYR24       0.1957
     22  OH        24.6200  -29.6210  -14.2910 O.3    24  TYR24      -0.2866
     23  N         26.4300  -22.8230  -14.8610 N.am   25  GLU25      -0.1979
     24  CA        27.3460  -22.6960  -16.0180 C.3    25  GLU25       0.1602
     25  C         28.7550  -22.4250  -15.5920 C.2    25  GLU25       0.2287
     26  O         29.6940  -23.1200  -16.0250 O.2    25  GLU25      -0.2864
     27  CB        26.9490  -21.5860  -17.0040 C.3    25  GLU25       0.0415
     28  CG        25.6040  -21.7580  -17.7260 C.3    25  GLU25       0.1163
     29  CD        25.4850  -23.0220  -18.5930 C.2    25  GLU25       0.3649
     30  OE1       24.4310  -23.1560  -19.2830 O.co2  25  GLU25      -0.2457
     31  OE2       26.4230  -23.8860  -18.6040 O.co2  25  GLU25      -0.2457
     32  N         30.4840  -25.3820  -14.5180 N.3    28  VAL28      -0.1231
     33  CA        30.7390  -26.4960  -15.4370 C.3    28  VAL28       0.1678
     34  C         32.1800  -26.3300  -15.8830 C.2    28  VAL28       0.2434
     35  O         32.6020  -25.2240  -16.2330 O.2    28  VAL28      -0.2733
     36  CB        29.8090  -26.5300  -16.6630 C.3    28  VAL28       0.0265
     37  CG1       30.2790  -27.5900  -17.6720 C.3    28  VAL28       0.0020
     38  CG2       28.3610  -26.7720  -16.2260 C.3    28  VAL28       0.0020
     39  N         32.9600  -27.4010  -15.8210 N.am   29  PRO29      -0.2729
     40  CA        34.3650  -27.2650  -16.2310 C.3    29  PRO29       0.1401
     41  C         34.5460  -27.0160  -17.7260 C.2    29  PRO29       0.2269
     42  O         33.7490  -27.5010  -18.5360 O.2    29  PRO29      -0.2865
     43  CB        34.9540  -28.6170  -15.8420 C.3    29  PRO29       0.0296
     44  CG        34.0450  -29.1100  -14.7700 C.3    29  PRO29       0.0237
     45  CD        32.7000  -28.6950  -15.1870 C.3    29  PRO29       0.0939
     46  N         36.4480  -28.1830  -19.9230 N.3    31  THR31      -0.1203
     47  CA        36.6030  -29.3950  -20.6780 C.3    31  THR31       0.1994
     48  C         35.2780  -30.0790  -20.8600 C.2    31  THR31       0.2618
     49  O         35.1210  -30.8410  -21.8310 O.2    31  THR31      -0.2717
     50  CB        37.6480  -30.3040  -20.0560 C.3    31  THR31       0.1784
     51  OG1       37.4710  -30.3900  -18.6330 O.3    31  THR31      -0.2211
     52  CG2       38.9970  -29.7170  -20.2960 C.3    31  THR31       0.0376
     53  N         34.2970  -29.7700  -19.9990 N.am   32  GLU32      -0.1965
     54  CA        32.9550  -30.3350  -20.1820 C.3    32  GLU32       0.1733
     55  C         31.9330  -29.4830  -20.8890 C.2    32  GLU32       0.2616
     56  O         30.9020  -30.0050  -21.3380 O.2    32  GLU32      -0.2715
     57  CB        32.3670  -30.7570  -18.8430 C.3    32  GLU32       0.0429
     58  CG        33.1630  -31.8410  -18.1640 C.3    32  GLU32       0.1163
     59  CD        33.0710  -33.1880  -18.8430 C.2    32  GLU32       0.3649
     60  OE1       31.9860  -33.5080  -19.3610 O.co2  32  GLU32      -0.2457
     61  OE2       34.0690  -33.9560  -18.8370 O.co2  32  GLU32      -0.2457
     62  N         32.1380  -28.1830  -20.9750 N.am   33  LYS33      -0.1963
     63  CA        31.0460  -27.3260  -21.4950 C.3    33  LYS33       0.1728
     64  C         30.5860  -27.7260  -22.8770 C.2    33  LYS33       0.2616
     65  O         31.2800  -28.4450  -23.5820 O.2    33  LYS33      -0.2715
     66  CB        31.4690  -25.8630  -21.6050 C.3    33  LYS33       0.0311
     67  CG        31.7320  -25.1670  -20.2890 C.3    33  LYS33       0.0038
     68  CD        32.0960  -23.7260  -20.5730 C.3    33  LYS33       0.0206
     69  CE        32.6020  -23.0000  -19.3510 C.3    33  LYS33       0.1093
     70  NZ        31.6300  -23.1130  -18.2120 N.3    33  LYS33      -0.1314
     71  N         29.4240  -27.2080  -23.2640 N.am   34  SER34      -0.1950
     72  CA        28.9650  -27.2620  -24.6400 C.3    34  SER34       0.1924
     73  C         29.6350  -26.1070  -25.3770 C.2    34  SER34       0.2314
     74  O         29.6670  -24.9880  -24.8760 O.2    34  SER34      -0.2863
     75  CB        27.4350  -27.1130  -24.7020 C.3    34  SER34       0.2116
     76  OG        26.9700  -26.8050  -26.0190 O.3    34  SER34      -0.2180
     77  N         40.8840  -33.2430  -18.2400 N.3   179  GLY179     -0.1225
     78  CA        39.9350  -32.6530  -17.2820 C.3   179  GLY179      0.1811
     79  C         40.4990  -32.2140  -15.9190 C.2   179  GLY179      0.2280
     80  O         39.8150  -31.5460  -15.1930 O.2   179  GLY179     -0.2866
     81  N         41.2490  -34.6720  -13.8790 N.3   181  SER181     -0.1217
     82  CA        40.1730  -35.6050  -13.6490 C.3   181  SER181      0.1889
     83  C         40.6140  -37.0090  -13.2130 C.2   181  SER181      0.2288
     84  O         39.9170  -37.6340  -12.4340 O.2   181  SER181     -0.2866
     85  CB        39.3800  -35.7740  -14.9410 C.3   181  SER181      0.2089
     86  OG        38.3070  -36.7290  -14.8370 O.3   181  SER181     -0.2183
     87  N         41.9190  -27.3800  -17.7490 N.3   207  ASN207     -0.1240
     88  CA        40.9860  -26.6120  -16.8930 C.3   207  ASN207      0.1653
     89  C         41.8030  -25.8590  -15.8920 C.2   207  ASN207      0.2266
     90  O         42.8830  -26.3020  -15.5250 O.2   207  ASN207     -0.2867
     91  CB        40.1440  -27.5110  -16.0520 C.3   207  ASN207      0.1155
     92  CG        39.0220  -28.1870  -16.7920 C.2   207  ASN207      0.2627
     93  OD1       38.2770  -27.5840  -17.5330 O.2   207  ASN207     -0.2716
     94  ND2       38.8200  -29.4330  -16.4680 N.am  207  ASN207     -0.0877
     95  N         38.5110  -25.6190  -11.2730 N.3   211  MET211     -0.1245
     96  CA        37.5130  -26.5220  -11.8270 C.3   211  MET211      0.1570
     97  C         38.0900  -27.9230  -11.8670 C.2   211  MET211      0.2261
     98  O         37.4920  -28.7910  -12.4550 O.2   211  MET211     -0.2867
     99  CB        37.1290  -26.1100  -13.2730 C.3   211  MET211      0.0387
    100  CG        36.3310  -24.8240  -13.4300 C.3   211  MET211      0.0595
    101  SD        36.4450  -24.0740  -15.0940 S.3   211  MET211     -0.1393
    102  CE        34.9330  -23.1360  -15.0700 C.3   211  MET211      0.0692
    103  N         38.5710  -31.6230  -10.7520 N.3   213  ARG213     -0.1231
    104  CA        37.6330  -32.5480  -10.1910 C.3   213  ARG213      0.1694
    105  C         37.7930  -32.5330   -8.6960 C.2   213  ARG213      0.2592
    106  O         38.9320  -32.5020   -8.1820 O.2   213  ARG213     -0.2718
    107  CB        37.9540  -33.9200  -10.6870 C.3   213  ARG213      0.0321
    108  CG        36.8410  -34.8820  -10.5120 C.3   213  ARG213      0.0489
    109  CD        36.7450  -35.8060  -11.6920 C.3   213  ARG213      0.2205
    110  NE        35.9030  -36.9450  -11.3270 N.pl3 213  ARG213     -0.0865
    111  CZ        36.0410  -38.1930  -11.7590 C.cat 213  ARG213      0.5346
    112  NH1       37.0180  -38.5250  -12.5980 N.pl3 213  ARG213      0.1354
    113  NH2       35.1900  -39.1270  -11.3420 N.pl3 213  ARG213      0.1354
    114  N         36.6650  -32.4720   -7.9970 N.am  214  ASN214     -0.1960
    115  CA        36.6900  -32.3420   -6.5250 C.3   214  ASN214      0.1819
    116  C         35.8120  -33.3320   -5.7700 C.2   214  ASN214      0.2621
    117  O         35.5830  -33.1550   -4.6050 O.2   214  ASN214     -0.2715
    118  CB        36.3130  -30.9100   -6.1530 C.3   214  ASN214      0.1195
    119  CG        36.6680  -30.5600   -4.7080 C.2   214  ASN214      0.2630
    120  OD1       37.8020  -30.7460   -4.2250 O.2   214  ASN214     -0.2716
    121  ND2       35.6800  -30.0470   -4.0060 N.am  214  ASN214     -0.0877
    122  N         35.3350  -34.3650   -6.4450 N.am  215  ASP215     -0.1971
    123  CA        34.5450  -35.4210   -5.8470 C.3   215  ASP215      0.1709
    124  C         35.4630  -36.4930   -5.3760 C.2   215  ASP215      0.2293
    125  O         36.5350  -36.6150   -5.9060 O.2   215  ASP215     -0.2864
    126  CB        33.5260  -36.0150   -6.8430 C.3   215  ASP215      0.1436
    127  CG        34.1750  -36.5990   -8.0660 C.2   215  ASP215      0.3671
    128  OD1       34.9760  -35.8570   -8.6660 O.co2 215  ASP215     -0.2456
    129  OD2       33.8710  -37.7530   -8.4420 O.co2 215  ASP215     -0.2456
    130  N         30.7270  -32.3360  -26.8900 N.3   253  SER253     -0.1217
    131  CA        30.8790  -31.9270  -25.5080 C.3   253  SER253      0.1889
    132  C         31.5620  -33.0280  -24.7640 C.2   253  SER253      0.2288
    133  O         31.1040  -34.1370  -24.8020 O.2   253  SER253     -0.2866
    134  CB        29.5120  -31.6490  -24.8930 C.3   253  SER253      0.2089
    135  OG        28.8840  -30.5230  -25.5180 O.3   253  SER253     -0.2183
    136  N         25.9320  -33.1400  -27.7300 N.3   488  HIS488     -0.1241
    137  CA        26.1710  -34.0910  -26.6650 C.3   488  HIS488      0.1621
    138  C         25.9770  -35.4970  -27.1960 C.2   488  HIS488      0.2264
    139  O         25.1390  -35.7380  -28.0850 O.2   488  HIS488     -0.2867
    140  CB        25.2250  -33.8290  -25.4810 C.3   488  HIS488      0.0745
    141  CG        25.3250  -32.4380  -24.9300 C.ar  488  HIS488      0.0817
    142  ND1       26.4130  -32.0090  -24.2070 N.ar  488  HIS488     -0.2268
    143  CD2       24.4820  -31.3770  -25.0100 C.ar  488  HIS488      0.1154
    144  CE1       26.2370  -30.7470  -23.8510 C.ar  488  HIS488      0.1986
    145  NE2       25.0720  -30.3420  -24.3220 N.ar  488  HIS488     -0.2212
    146  N         33.6310  -40.4950  -14.1470 N.3   498  LYS498     -0.1245
    147  CA        33.4110  -39.2840  -14.9130 C.3   498  LYS498      0.1561
    148  C         32.2620  -39.4630  -15.8860 C.2   498  LYS498      0.2260
    149  O         31.4910  -38.5770  -16.0490 O.2   498  LYS498     -0.2867
    150  CB        34.6760  -38.8770  -15.6640 C.3   498  LYS498      0.0271
    151  CG        34.4280  -37.8380  -16.7610 C.3   498  LYS498      0.0035
    152  CD        35.7280  -37.3270  -17.3590 C.3   498  LYS498      0.0206
    153  CE        36.3610  -38.4090  -18.2430 C.3   498  LYS498      0.1093
    154  NZ        37.7450  -38.0750  -18.5790 N.3   498  LYS498     -0.1314
    155  N         29.2140  -39.0140  -13.8480 N.3   501  TRP501     -0.1227
    156  CA        28.8470  -37.6220  -13.6180 C.3   501  TRP501      0.1737
    157  C         28.2660  -36.9410  -14.8280 C.2   501  TRP501      0.2595
    158  O         27.3730  -36.0890  -14.6740 O.2   501  TRP501     -0.2718
    159  CB        29.9730  -36.8320  -13.0000 C.3   501  TRP501      0.0564
    160  CG        30.3540  -37.4450  -11.6710 C.ar  501  TRP501      0.0003
    161  CD1       31.5640  -37.9290  -11.3150 C.ar  501  TRP501      0.0946
    162  CD2       29.4800  -37.6810  -10.5510 C.ar  501  TRP501      0.0152
    163  NE1       31.5130  -38.4570  -10.0450 N.ar  501  TRP501     -0.2442
    164  CE2       30.2450  -38.2990   -9.5490 C.ar  501  TRP501      0.0810
    165  CE3       28.1200  -37.4120  -10.2980 C.ar  501  TRP501      0.0012
    166  CZ2       29.7030  -38.6720   -8.3090 C.ar  501  TRP501      0.0191
    167  CZ3       27.5820  -37.7820   -9.0720 C.ar  501  TRP501      0.0001
    168  CH2       28.3780  -38.4150   -8.0980 C.ar  501  TRP501      0.0015
    169  N         28.6870  -37.3620  -16.0280 N.am  502  ARG502     -0.1980
    170  CA        28.2880  -36.6990  -17.2770 C.3   502  ARG502      0.1597
    171  C         26.8810  -37.0960  -17.6330 C.2   502  ARG502      0.2287
    172  O         26.0920  -36.2990  -18.0960 O.2   502  ARG502     -0.2864
    173  CB        29.2720  -37.0040  -18.4370 C.3   502  ARG502      0.0334
    174  CG        29.0380  -36.1370  -19.7080 C.3   502  ARG502      0.0492
    175  CD        30.0230  -36.4210  -20.8670 C.3   502  ARG502      0.2205
    176  NE        31.4010  -36.1520  -20.4690 N.pl3 502  ARG502     -0.0865
    177  CZ        32.5000  -36.7920  -20.8760 C.cat 502  ARG502      0.5346
    178  NH1       32.4320  -37.7970  -21.7500 N.pl3 502  ARG502      0.1354
    179  NH2       33.6870  -36.4480  -20.3500 N.pl3 502  ARG502      0.1354
    180  N         24.7360  -35.0900  -15.3140 N.3   505  ALA505     -0.1231
    181  CA        24.5640  -33.7250  -15.8140 C.3   505  ALA505      0.1694
    182  C         23.6520  -33.6400  -17.0530 C.2   505  ALA505      0.2591
    183  O         22.9190  -32.6630  -17.2340 O.2   505  ALA505     -0.2718
    184  CB        25.8900  -33.0670  -16.0740 C.3   505  ALA505      0.0304
    185  N         23.6690  -34.6720  -17.8780 N.am  506  MET506     -0.1979
    186  CA        22.8770  -34.6500  -19.1110 C.3   506  MET506      0.1605
    187  C         21.4050  -34.9120  -18.7950 C.2   506  MET506      0.2287
    188  O         20.5100  -34.4180  -19.4760 O.2   506  MET506     -0.2864
    189  CB        23.4290  -35.6700  -20.1470 C.3   506  MET506      0.0413
    190  CG        24.6640  -35.1600  -20.9060 C.3   506  MET506      0.0598
    191  SD        25.2120  -36.2300  -22.2510 S.3   506  MET506     -0.1393
    192  CE        25.2530  -37.8260  -21.4520 C.3   506  MET506      0.0692
    193  N         20.3770  -31.3880  -17.7720 N.3   509  ARG509     -0.1231
    194  CA        20.2430  -30.3830  -18.8160 C.3   509  ARG509      0.1694
    195  C         19.0290  -30.6840  -19.6970 C.2   509  ARG509      0.2592
    196  O         18.2860  -29.7870  -20.0350 O.2   509  ARG509     -0.2718
    197  CB        21.5360  -30.2000  -19.6350 C.3   509  ARG509      0.0321
    198  CG        21.4270  -29.2430  -20.8390 C.3   509  ARG509      0.0489
    199  CD        21.6910  -27.7690  -20.5300 C.3   509  ARG509      0.2205
    200  NE        22.9980  -27.5930  -19.8900 N.pl3 509  ARG509     -0.0865
    201  CZ        23.5280  -26.4180  -19.5520 C.cat 509  ARG509      0.5346
    202  NH1       22.8840  -25.2820  -19.8100 N.pl3 509  ARG509      0.1354
    203  NH2       24.7130  -26.3810  -18.9460 N.pl3 509  ARG509      0.1354
    204  N         18.8120  -31.9360  -20.0550 N.am  510  PHE510     -0.1976
    205  CA        17.7430  -32.2550  -21.0140 C.3   510  PHE510      0.1639
    206  C         16.3580  -32.3970  -20.3650 C.2   510  PHE510      0.2290
    207  O         15.3490  -32.2010  -21.0620 O.2   510  PHE510     -0.2864
    208  CB        18.0950  -33.5220  -21.8600 C.3   510  PHE510      0.0560
    209  CG        19.1220  -33.2680  -22.9410 C.ar  510  PHE510     -0.0200
    210  CD1       18.7530  -32.7090  -24.1410 C.ar  510  PHE510     -0.0042
    211  CD2       20.4700  -33.5570  -22.7320 C.ar  510  PHE510     -0.0042
    212  CE1       19.6920  -32.4550  -25.1100 C.ar  510  PHE510     -0.0003
    213  CE2       21.4110  -33.3070  -23.6970 C.ar  510  PHE510     -0.0003
    214  CZ        21.0220  -32.7620  -24.8890 C.ar  510  PHE510     -0.0000
@<TRIPOS>BOND
     1   139   138    2
     2   136   137    1
     3   138   137    1
     4   130   131    1
     5   137   140    1
     6    76    75    1
     7   135   134    1
     8   131   134    1
     9   131   132    1
    10   140   141    1
    11    73    74    2
    12    73    72    1
    13   212   214   ar
    14   212   210   ar
    15   143   141   ar
    16   143   145   ar
    17   141   142   ar
    18   214   213   ar
    19   133   132    2
    20    75    72    1
    21    72    71    1
    22   145   144   ar
    23   142   144   ar
    24   210   209   ar
    25   213   211   ar
    26    65    64    2
    27    71    64   am
    28   209   211   ar
    29   209   208    1
    30    64    63    1
    31   191   192    1
    32   191   190    1
    33   208   205    1
    34    49    48    2
    35   178   177    1
    36    66    63    1
    37    66    67    1
    38    63    62    1
    39    56    55    2
    40   207   206    2
    41   205   206    1
    42   205   204    1
    43    62    55   am
    44   190   189    1
    45    55    54    1
    46   177   176    2
    47   177   179    1
    48   175   176    1
    49   175   174    1
    50    48    47    1
    51    48    53   am
    52   198   199    1
    53   198   197    1
    54    47    50    1
    55    47    46    1
    56    68    67    1
    57    68    69    1
    58   199   200    1
    59    52    50    1
    60    54    53    1
    61    54    57    1
    62   189   186    1
    63    50    51    1
    64   204   195   am
    65   196   195    2
    66   200   201    2
    67   202   201    1
    68   174   173    1
    69   195   194    1
    70   197   194    1
    71   201   203    1
    72   188   187    2
    73    60    59   ar
    74    69    70    1
    75    30    29   ar
    76   186   187    1
    77   186   185    1
    78    57    58    1
    79    59    61   ar
    80    59    58    1
    81   194   193    1
    82    31    29   ar
    83    29    28    1
    84   154   153    1
    85    42    41    2
    86   173   170    1
    87   153   152    1
    88    77    78    1
    89   172   171    2
    90   185   182   am
    91    87    88    1
    92    28    27    1
    93    41    40    1
    94    37    36    1
    95   171   170    1
    96    93    92    2
    97   152   151    1
    98    78    79    1
    99   170   169    1
   100   183   182    2
   101   182   181    1
   102    27    24    1
   103    88    91    1
   104    88    89    1
   105    92    94   am
   106    92    91    1
   107   151   150    1
   108    36    38    1
   109    36    33    1
   110    35    34    2
   111    40    43    1
   112    40    39    1
   113   184   181    1
   114   149   148    2
   115   169   157   am
   116    26    25    2
   117    24    25    1
   118    24    23    1
   119    79    80    2
   120    89    90    2
   121   148   147    1
   122    34    39   am
   123    34    33    1
   124    43    44    1
   125    39    45    1
   126   181   180    1
   127   150   147    1
   128    33    32    1
   129    45    44    1
   130   101   102    1
   131   101   100    1
   132    85    86    1
   133    85    82    1
   134   147   146    1
   135    23    13   am
   136   157   158    2
   137   157   156    1
   138    19    17   ar
   139    19    21   ar
   140    17    16   ar
   141    22    21    1
   142    21    20   ar
   143    81    82    1
   144   155   156    1
   145    13    14    2
   146    13    12    1
   147    82    83    1
   148   156   159    1
   149   100    99    1
   150    99    96    1
   151    83    84    2
   152    16    15    1
   153    16    18   ar
   154   159   160    1
   155    15    12    1
   156    20    18   ar
   157   112   111    1
   158    12    11    1
   159    98    97    2
   160    97    96    1
   161    96    95    1
   162   111   113    1
   163   111   110    2
   164   109   110    1
   165   109   108    1
   166   160   161   ar
   167   160   162   ar
   168   161   163   ar
   169   103   104    1
   170   107   108    1
   171   107   104    1
   172   162   165   ar
   173   162   164   ar
   174   165   167   ar
   175   104   105    1
   176   163   164   ar
   177   164   166   ar
   178   167   168   ar
   179   105   106    2
   180   105   114   am
   181   128   127   ar
   182   129   127   ar
   183   166   168   ar
   184   127   126    1
   185   114   115    1
   186     9     7   ar
   187     9    10   ar
   188     7     6   ar
   189     4     3    2
   190   126   123    1
   191    10     8   ar
   192   115   118    1
   193   115   116    1
   194   122   123    1
   195   122   116   am
   196     3     2    1
   197   118   119    1
   198     6     8   ar
   199     6     5    1
   200   125   124    2
   201   123   124    1
   202   116   117    2
   203     5     2    1
   204     2     1    1
   205   119   120    2
   206   119   121   am
