@<TRIPOS>MOLECULE
tmp/4msuB01.pdb
 158 148 0 0 0
SMALL
GASTEIGER

@<TRIPOS>ATOM
      1  N         45.3290  -41.7030  -18.7190 N.3   105  GLY105     -0.1210
      2  CA        44.3330  -42.7160  -18.9970 C.3   105  GLY105      0.1956
      3  C         43.7250  -42.4430  -20.3310 C.2   105  GLY105      0.2612
      4  O         43.7550  -41.3070  -20.7880 O.2   105  GLY105     -0.2717
      5  N         43.2150  -43.4690  -20.9970 N.am  106  GLY106     -0.1942
      6  CA        42.5690  -43.2410  -22.2790 C.3   106  GLY106      0.2014
      7  C         43.5660  -42.4820  -23.1400 C.2   106  GLY106      0.2640
      8  O         44.7810  -42.7650  -23.1070 O.2   106  GLY106     -0.2714
      9  N         43.0640  -41.4810  -23.8680 N.am  107  THR107     -0.1936
     10  CA        43.8330  -40.8400  -24.9140 C.3   107  THR107      0.2028
     11  C         44.9740  -40.1230  -24.2930 C.2   107  THR107      0.2642
     12  O         46.0260  -40.0200  -24.9030 O.2   107  THR107     -0.2714
     13  CB        42.9920  -39.8930  -25.7640 C.3   107  THR107      0.1808
     14  OG1       41.8620  -40.6030  -26.2370 O.3   107  THR107     -0.2208
     15  CG2       43.7440  -39.4130  -26.9900 C.3   107  THR107      0.0379
     16  N         44.8310  -39.6630  -23.0640 N.am  108  SER108     -0.1949
     17  CA        45.9880  -39.0010  -22.4550 C.3   108  SER108      0.1924
     18  C         47.1120  -39.9770  -22.3650 C.2   108  SER108      0.2314
     19  O         48.2410  -39.6010  -22.5940 O.2   108  SER108     -0.2863
     20  CB        45.6960  -38.3600  -21.1120 C.3   108  SER108      0.2116
     21  OG        44.7940  -37.2490  -21.2830 O.3   108  SER108     -0.2180
     22  N         47.4050  -42.7650  -24.3950 N.3   110  ARG110     -0.1245
     23  CA        47.8340  -43.0010  -25.7550 C.3   110  ARG110      0.1563
     24  C         48.8360  -41.9380  -26.2050 C.2   110  ARG110      0.2260
     25  O         49.8400  -42.2650  -26.8520 O.2   110  ARG110     -0.2867
     26  CB        46.6530  -43.0450  -26.6910 C.3   110  ARG110      0.0307
     27  CG        45.7070  -44.1810  -26.3850 C.3   110  ARG110      0.0489
     28  CD        44.7530  -44.3560  -27.5430 C.3   110  ARG110      0.2205
     29  NE        43.3620  -44.3290  -27.1300 N.pl3 110  ARG110     -0.0865
     30  CZ        42.7270  -45.3210  -26.5070 C.cat 110  ARG110      0.5346
     31  NH1       43.3530  -46.4570  -26.2060 N.pl3 110  ARG110      0.1354
     32  NH2       41.4430  -45.1690  -26.1760 N.pl3 110  ARG110      0.1354
     33  N         37.8840  -47.9180  -20.6220 N.3   148  GLU148     -0.1245
     34  CA        37.6120  -46.6660  -19.9180 C.3   148  GLU148      0.1567
     35  C         37.5180  -46.8620  -18.3990 C.2   148  GLU148      0.2260
     36  O         37.7050  -45.9460  -17.6580 O.2   148  GLU148     -0.2867
     37  CB        36.3460  -46.0270  -20.4430 C.3   148  GLU148      0.0388
     38  CG        36.4200  -45.6160  -21.9060 C.3   148  GLU148      0.1160
     39  CD        37.0390  -44.2420  -22.0220 C.2   148  GLU148      0.3649
     40  OE1       38.2770  -44.1050  -21.9360 O.co2 148  GLU148     -0.2457
     41  OE2       36.2620  -43.2950  -22.1630 O.co2 148  GLU148     -0.2457
     42  N         40.9100  -45.9790  -15.2650 N.3   151  GLU151     -0.1245
     43  CA        41.4490  -44.6760  -14.7960 C.3   151  GLU151      0.1567
     44  C         41.0360  -44.3110  -13.3540 C.2   151  GLU151      0.2260
     45  O         41.5820  -43.3200  -12.7530 O.2   151  GLU151     -0.2867
     46  CB        41.0600  -43.5480  -15.7870 C.3   151  GLU151      0.0388
     47  CG        39.5650  -43.2940  -16.0720 C.3   151  GLU151      0.1160
     48  CD        39.2850  -41.9150  -16.7130 C.2   151  GLU151      0.3649
     49  OE1       39.4860  -41.7500  -17.9590 O.co2 151  GLU151     -0.2457
     50  OE2       38.8970  -40.9690  -15.9590 O.co2 151  GLU151     -0.2457
     51  N         49.1660  -36.4570  -17.0200 N.3   176  ILE176     -0.1231
     52  CA        48.3090  -35.8220  -18.0160 C.3   176  ILE176      0.1692
     53  C         46.8500  -36.2180  -17.8340 C.2   176  ILE176      0.2593
     54  O         46.4750  -37.3960  -17.9440 O.2   176  ILE176     -0.2718
     55  CB        48.7160  -36.2390  -19.4520 C.3   176  ILE176      0.0266
     56  CG1       50.1700  -35.8920  -19.7630 C.3   176  ILE176      0.0019
     57  CG2       47.7980  -35.5770  -20.4710 C.3   176  ILE176      0.0020
     58  CD1       50.7680  -36.8400  -20.7860 C.3   176  ILE176      0.0001
     59  N         46.0090  -35.2230  -17.6050 N.am  177  SER177     -0.1938
     60  CA        44.6130  -35.4590  -17.5310 C.3   177  SER177      0.2055
     61  C         43.9470  -34.1910  -17.9940 C.2   177  SER177      0.2643
     62  O         43.9880  -33.1340  -17.3400 O.2   177  SER177     -0.2714
     63  CB        44.1640  -35.8220  -16.0890 C.3   177  SER177      0.2130
     64  OG        42.8030  -36.2140  -16.1200 O.3   177  SER177     -0.2179
     65  N         43.3330  -34.3140  -19.1510 N.am  178  VAL178     -0.1963
     66  CA        42.7440  -33.1850  -19.7810 C.3   178  VAL178      0.1727
     67  C         41.8260  -32.4940  -18.8000 C.2   178  VAL178      0.2616
     68  O         41.9770  -31.3000  -18.5560 O.2   178  VAL178     -0.2715
     69  CB        41.9710  -33.5970  -21.0290 C.3   178  VAL178      0.0290
     70  CG1       41.1280  -32.4300  -21.5180 C.3   178  VAL178      0.0023
     71  CG2       42.9650  -34.0200  -22.1090 C.3   178  VAL178      0.0023
     72  N         40.8840  -33.2430  -18.2400 N.am  179  GLY179     -0.1955
     73  CA        39.9350  -32.6530  -17.2820 C.3   179  GLY179      0.1869
     74  C         40.4990  -32.2140  -15.9190 C.2   179  GLY179      0.2309
     75  O         39.8150  -31.5460  -15.1930 O.2   179  GLY179     -0.2863
     76  N         41.2490  -34.6720  -13.8790 N.3   181  SER181     -0.1202
     77  CA        40.1730  -35.6050  -13.6490 C.3   181  SER181      0.2020
     78  C         40.6140  -37.0090  -13.2130 C.2   181  SER181      0.2618
     79  O         39.9170  -37.6340  -12.4340 O.2   181  SER181     -0.2717
     80  CB        39.3800  -35.7740  -14.9410 C.3   181  SER181      0.2103
     81  OG        38.3070  -36.7290  -14.8370 O.3   181  SER181     -0.2182
     82  N         41.7070  -37.5570  -13.7410 N.am  182  ALA182     -0.1979
     83  CA        41.9120  -38.9910  -13.5770 C.3   182  ALA182      0.1597
     84  C         42.4880  -39.3850  -12.2030 C.2   182  ALA182      0.2287
     85  O         43.5570  -38.9310  -11.7770 O.2   182  ALA182     -0.2864
     86  CB        42.7500  -39.5550  -14.6720 C.3   182  ALA182      0.0319
     87  N         32.7100  -32.7330  -24.1800 N.3   254  GLY254     -0.1210
     88  CA        33.4060  -33.6920  -23.3880 C.3   254  GLY254      0.1956
     89  C         34.2360  -34.7170  -24.1270 C.2   254  GLY254      0.2613
     90  O         34.8040  -35.6000  -23.4830 O.2   254  GLY254     -0.2717
     91  N         34.3060  -34.6570  -25.4640 N.am  255  SER255     -0.1938
     92  CA        35.1310  -35.6320  -26.1790 C.3   255  SER255      0.2055
     93  C         36.5920  -35.2180  -26.1630 C.2   255  SER255      0.2644
     94  O         37.1240  -34.7430  -27.1570 O.2   255  SER255     -0.2714
     95  CB        34.6430  -35.8420  -27.5980 C.3   255  SER255      0.2130
     96  OG        35.2730  -37.0250  -28.0390 O.3   255  SER255     -0.2179
     97  N         37.2430  -35.3710  -25.0140 N.am  256  SER256     -0.1935
     98  CA        38.5830  -34.8290  -24.8420 C.3   256  SER256      0.2055
     99  C         39.6730  -35.6200  -25.6140 C.2   256  SER256      0.2642
    100  O         40.8800  -35.3110  -25.5120 O.2   256  SER256     -0.2714
    101  CB        38.9450  -34.8080  -23.3520 C.3   256  SER256      0.2130
    102  OG        39.0040  -36.1480  -22.8810 O.3   256  SER256     -0.2179
    103  N         39.2790  -36.6790  -26.3140 N.am  257  ARG257     -0.1977
    104  CA        40.2140  -37.3100  -27.2410 C.3   257  ARG257      0.1597
    105  C         40.5750  -36.3130  -28.3550 C.2   257  ARG257      0.2287
    106  O         41.6060  -36.4660  -28.9610 O.2   257  ARG257     -0.2864
    107  CB        39.6580  -38.5910  -27.8560 C.3   257  ARG257      0.0334
    108  CG        38.6530  -38.3110  -28.9820 C.3   257  ARG257      0.0492
    109  CD        37.7940  -39.5230  -29.2370 C.3   257  ARG257      0.2205
    110  NE        37.1150  -39.3890  -30.4910 N.pl3 257  ARG257     -0.0865
    111  CZ        37.6000  -39.8060  -31.6570 C.cat 257  ARG257      0.5346
    112  NH1       38.7620  -40.4550  -31.7050 N.pl3 257  ARG257      0.1354
    113  NH2       36.8890  -39.6000  -32.7860 N.pl3 257  ARG257      0.1354
    114  N         33.8410  -46.5940  -27.6470 N.3   349  HIS349     -0.1226
    115  CA        33.2250  -46.0340  -26.4420 C.3   349  HIS349      0.1752
    116  C         32.5890  -44.6670  -26.6250 C.2   349  HIS349      0.2596
    117  O         31.5740  -44.3640  -25.9990 O.2   349  HIS349     -0.2718
    118  CB        34.2100  -46.0170  -25.2850 C.3   349  HIS349      0.0759
    119  CG        35.4900  -45.2740  -25.5520 C.ar  349  HIS349      0.0818
    120  ND1       36.6940  -45.9170  -25.7440 N.ar  349  HIS349     -0.2268
    121  CD2       35.7610  -43.9490  -25.6120 C.ar  349  HIS349      0.1154
    122  CE1       37.6520  -45.0250  -25.8990 C.ar  349  HIS349      0.1986
    123  NE2       37.1130  -43.8220  -25.8180 N.ar  349  HIS349     -0.2212
    124  N         33.1700  -43.8630  -27.4990 N.am  350  THR350     -0.1953
    125  CA        32.6770  -42.5270  -27.7920 C.3   350  THR350      0.1897
    126  C         31.3560  -42.5380  -28.5030 C.2   350  THR350      0.2313
    127  O         30.5100  -41.7110  -28.2170 O.2   350  THR350     -0.2863
    128  CB        33.6700  -41.7580  -28.6680 C.3   350  THR350      0.1794
    129  OG1       34.9300  -41.6570  -27.9860 O.3   350  THR350     -0.2208
    130  CG2       33.1560  -40.3690  -28.9720 C.3   350  THR350      0.0378
    131  N         33.0410  -45.3450  -16.3820 N.3   496  ASN496     -0.1240
    132  CA        33.8210  -44.8960  -15.2300 C.3   496  ASN496      0.1653
    133  C         33.1330  -43.7430  -14.4880 C.2   496  ASN496      0.2266
    134  O         32.0660  -43.2810  -14.9120 O.2   496  ASN496     -0.2867
    135  CB        35.2170  -44.4770  -15.6810 C.3   496  ASN496      0.1155
    136  CG        35.2090  -43.3050  -16.6650 C.2   496  ASN496      0.2627
    137  OD1       34.4070  -42.3670  -16.5750 O.2   496  ASN496     -0.2716
    138  ND2       36.1590  -43.3410  -17.5910 N.am  496  ASN496     -0.0877
    139  N         33.6310  -40.4950  -14.1470 N.3   498  LYS498     -0.1245
    140  CA        33.4110  -39.2840  -14.9130 C.3   498  LYS498      0.1561
    141  C         32.2620  -39.4630  -15.8860 C.2   498  LYS498      0.2260
    142  O         31.4910  -38.5770  -16.0490 O.2   498  LYS498     -0.2867
    143  CB        34.6760  -38.8770  -15.6640 C.3   498  LYS498      0.0271
    144  CG        34.4280  -37.8380  -16.7610 C.3   498  LYS498      0.0035
    145  CD        35.7280  -37.3270  -17.3590 C.3   498  LYS498      0.0206
    146  CE        36.3610  -38.4090  -18.2430 C.3   498  LYS498      0.1093
    147  NZ        37.7450  -38.0750  -18.5790 N.3   498  LYS498     -0.1314
    148  N         28.6870  -37.3620  -16.0280 N.3   502  ARG502     -0.1245
    149  CA        28.2880  -36.6990  -17.2770 C.3   502  ARG502      0.1563
    150  C         26.8810  -37.0960  -17.6330 C.2   502  ARG502      0.2260
    151  O         26.0920  -36.2990  -18.0960 O.2   502  ARG502     -0.2867
    152  CB        29.2720  -37.0040  -18.4370 C.3   502  ARG502      0.0307
    153  CG        29.0380  -36.1370  -19.7080 C.3   502  ARG502      0.0489
    154  CD        30.0230  -36.4210  -20.8670 C.3   502  ARG502      0.2205
    155  NE        31.4010  -36.1520  -20.4690 N.pl3 502  ARG502     -0.0865
    156  CZ        32.5000  -36.7920  -20.8760 C.cat 502  ARG502      0.5346
    157  NH1       32.4320  -37.7970  -21.7500 N.pl3 502  ARG502      0.1354
    158  NH2       33.6870  -36.4480  -20.3500 N.pl3 502  ARG502      0.1354
@<TRIPOS>BOND
     1   113   111    1
     2   112   111    1
     3   111   110    2
     4   110   109    1
     5   109   108    1
     6   108   107    1
     7   130   128    1
     8   106   105    2
     9   128   129    1
    10   128   125    1
    11   126   127    2
    12   126   125    1
    13   105   104    1
    14    96    95    1
    15   107   104    1
    16   125   124    1
    17   114   115    1
    18    95    92    1
    19    28    29    1
    20    28    27    1
    21   124   116   am
    22   104   103    1
    23    94    93    2
    24    29    30    2
    25    15    13    1
    26    25    24    2
    27    26    27    1
    28    26    23    1
    29   116   115    1
    30   116   117    2
    31    30    31    1
    32    30    32    1
    33   115   118    1
    34   103    99   am
    35    14    13    1
    36    24    23    1
    37    92    93    1
    38    92    91    1
    39    93    97   am
    40   122   123   ar
    41   122   120   ar
    42   123   121   ar
    43    13    10    1
    44    23    22    1
    45   120   119   ar
    46    99   100    2
    47    99    98    1
    48   121   119   ar
    49   119   118    1
    50    91    89   am
    51    97    98    1
    52    10    11    1
    53    10     9    1
    54    12    11    2
    55    98   101    1
    56    11    16   am
    57    87    88    1
    58    89    90    2
    59    89    88    1
    60     9     7   am
    61   101   102    1
    62     7     8    2
    63     7     6    1
    64    16    17    1
    65    19    18    2
    66    17    18    1
    67    17    20    1
    68     6     5    1
    69    41    39   ar
    70    71    69    1
    71    39    40   ar
    72    39    38    1
    73    38    37    1
    74   157   156    1
    75    70    69    1
    76    21    20    1
    77    69    66    1
    78     5     3   am
    79   156   155    2
    80   156   158    1
    81   154   155    1
    82   154   153    1
    83     4     3    2
    84    58    56    1
    85    33    34    1
    86    57    55    1
    87    37    34    1
    88     3     2    1
    89    34    35    1
    90    66    65    1
    91    66    67    1
    92    56    55    1
    93   153   152    1
    94    55    52    1
    95    65    61   am
    96     2     1    1
    97    67    68    2
    98    67    72   am
    99   147   146    1
   100   152   149    1
   101    35    36    2
   102   146   145    1
   103    72    73    1
   104   151   150    2
   105    52    53    1
   106    52    51    1
   107    61    60    1
   108    61    62    2
   109    49    48   ar
   110    54    53    2
   111    53    59   am
   112   150   149    1
   113    59    60    1
   114   138   136   am
   115    60    63    1
   116   145   144    1
   117    73    74    1
   118   149   148    1
   119   144   143    1
   120    48    47    1
   121    48    50   ar
   122   136   137    2
   123   136   135    1
   124   131   132    1
   125    64    63    1
   126    47    46    1
   127   142   141    2
   128    74    75    2
   129   141   140    1
   130    46    43    1
   131   135   132    1
   132   143   140    1
   133    42    43    1
   134   132   133    1
   135    80    81    1
   136    80    77    1
   137   140   139    1
   138   134   133    2
   139    43    44    1
   140    86    83    1
   141    76    77    1
   142    82    83    1
   143    82    78   am
   144    77    78    1
   145    83    84    1
   146    44    45    2
   147    78    79    2
   148    84    85    2
