@<TRIPOS>MOLECULE
tmp/4mt4B02.pdb
 81 79 0 0 0
SMALL
GASTEIGER

@<TRIPOS>ATOM
      1  N        -12.2910   41.1660   -1.9410 N.3    87  GLY87      -0.1210
      2  CA       -13.1570   41.1760   -0.7790 C.3    87  GLY87       0.1956
      3  C        -13.6780   39.7790   -0.5220 C.2    87  GLY87       0.2613
      4  O        -13.8580   38.9990   -1.4560 O.2    87  GLY87      -0.2717
      5  N        -13.9120   39.4540    0.7440 N.am   88  SER88      -0.1938
      6  CA       -14.3850   38.1240    1.1060 C.3    88  SER88       0.2055
      7  C        -15.3130   38.1490    2.3150 C.2    88  SER88       0.2642
      8  O        -15.1650   38.9760    3.2140 O.2    88  SER88      -0.2714
      9  CB       -13.2030   37.1940    1.3840 C.3    88  SER88       0.2130
     10  OG       -12.4890   37.6070    2.5370 O.3    88  SER88      -0.2179
     11  N        -16.2740   37.2320    2.3200 N.am   89  ALA89      -0.1977
     12  CA       -17.1870   37.0630    3.4390 C.3    89  ALA89       0.1597
     13  C        -17.6060   35.6030    3.5150 C.2    89  ALA89       0.2287
     14  O        -17.9600   35.0020    2.5030 O.2    89  ALA89      -0.2864
     15  CB       -18.3990   37.9690    3.2930 C.3    89  ALA89       0.0319
     16  N        -15.0450   38.3650    7.3260 N.3   116  MET116     -0.1230
     17  CA       -15.3150   39.4590    6.3940 C.3   116  MET116      0.1705
     18  C        -14.1490   40.4430    6.3790 C.2   116  MET116      0.2632
     19  O        -13.7270   40.9180    7.4320 O.2   116  MET116     -0.2714
     20  CB       -16.6050   40.1940    6.7700 C.3   116  MET116      0.0401
     21  CG       -16.8920   41.4120    5.9060 C.3   116  MET116      0.0596
     22  SD       -18.1970   42.4720    6.5560 S.3   116  MET116     -0.1393
     23  CE       -19.5660   41.3220    6.6490 C.3   116  MET116      0.0692
     24  N        -13.6300   40.7470    5.1920 N.am  117  GLY117     -0.1718
     25  CA       -12.5500   41.7120    5.0750 C.2   117  GLY117      0.1480
     26  C        -11.8930   41.8030    3.7090 C.2   117  GLY117      0.2820
     27  O        -12.2790   41.1030    2.7730 O.2   117  GLY117     -0.2669
     28  N        -10.8960   42.6780    3.5960 N.am  118  LEU118     -0.1943
     29  CA       -10.1340   42.8280    2.3590 C.3   118  LEU118      0.1599
     30  C         -8.9400   41.8800    2.3350 C.2   118  LEU118      0.2287
     31  O         -8.3260   41.6170    3.3680 O.2   118  LEU118     -0.2864
     32  CB        -9.6460   44.2690    2.1800 C.3   118  LEU118      0.0297
     33  CG       -10.6740   45.3940    2.0140 C.3   118  LEU118      0.0022
     34  CD1      -11.9180   44.9150    1.2720 C.3   118  LEU118      0.0001
     35  CD2      -11.0340   46.0160    3.3560 C.3   118  LEU118      0.0001
     36  N         -7.4060   42.3130    6.2030 N.3   306  LEU306     -0.1231
     37  CA        -7.9230   43.3510    7.0840 C.3   306  LEU306      0.1696
     38  C         -9.4410   43.2690    7.1270 C.2   306  LEU306      0.2632
     39  O        -10.1130   43.5770    6.1440 O.2   306  LEU306     -0.2714
     40  CB        -7.4810   44.7400    6.6250 C.3   306  LEU306      0.0284
     41  CG        -8.0310   45.8920    7.4710 C.3   306  LEU306      0.0019
     42  CD1       -7.5440   45.7910    8.9120 C.3   306  LEU306      0.0001
     43  CD2       -7.6660   47.2380    6.8660 C.3   306  LEU306      0.0001
     44  N         -9.9800   42.8460    8.2650 N.am  307  GLY307     -0.1718
     45  CA       -11.4170   42.7150    8.3950 C.2   307  GLY307      0.1480
     46  C        -11.9080   42.2480    9.7490 C.2   307  GLY307      0.2820
     47  O        -11.4790   42.7530   10.7860 O.2   307  GLY307     -0.2669
     48  N        -12.8170   41.2770    9.7360 N.am  308  PHE308     -0.1939
     49  CA       -13.5010   40.8550   10.9520 C.3   308  PHE308      0.1642
     50  C        -13.6170   39.3370   11.0850 C.2   308  PHE308      0.2290
     51  O        -13.6540   38.6120   10.0890 O.2   308  PHE308     -0.2864
     52  CB       -14.9000   41.4770   11.0070 C.3   308  PHE308      0.0560
     53  CG       -14.9070   42.9790   10.9220 C.ar  308  PHE308     -0.0200
     54  CD1      -14.7920   43.7530   12.0650 C.ar  308  PHE308     -0.0042
     55  CD2      -15.0380   43.6180    9.6980 C.ar  308  PHE308     -0.0042
     56  CE1      -14.8000   45.1330   11.9900 C.ar  308  PHE308     -0.0003
     57  CE2      -15.0460   44.9990    9.6170 C.ar  308  PHE308     -0.0003
     58  CZ       -14.9270   45.7570   10.7660 C.ar  308  PHE308     -0.0000
     59  N        -12.4600   42.9880   15.1560 N.3   322  LYS322     -0.1245
     60  CA       -11.4420   43.5060   14.2460 C.3   322  LYS322      0.1561
     61  C        -10.1940   42.6320   14.2700 C.2   322  LYS322      0.2260
     62  O         -9.7110   42.2500   15.3370 O.2   322  LYS322     -0.2867
     63  CB       -11.0750   44.9490   14.5970 C.3   322  LYS322      0.0271
     64  CG       -12.1500   45.9620   14.2470 C.3   322  LYS322      0.0035
     65  CD       -11.6040   47.3810   14.2610 C.3   322  LYS322      0.0206
     66  CE       -11.1760   47.8030   15.6570 C.3   322  LYS322      0.1093
     67  NZ       -10.6920   49.2110   15.6770 N.3   322  LYS322     -0.1314
     68  N         -6.4270   41.4240   11.7400 N.3   324  TRP324     -0.1241
     69  CA        -5.5820   41.5280   10.5590 C.3   324  TRP324      0.1605
     70  C         -4.4310   40.5370   10.6260 C.2   324  TRP324      0.2264
     71  O         -4.0760   40.0550   11.7020 O.2   324  TRP324     -0.2867
     72  CB        -5.0410   42.9560   10.3860 C.3   324  TRP324      0.0550
     73  CG        -4.3070   43.5180   11.5760 C.ar  324  TRP324      0.0003
     74  CD1       -4.7850   44.4250   12.4760 C.ar  324  TRP324      0.0946
     75  CD2       -2.9620   43.2240   11.9820 C.ar  324  TRP324      0.0152
     76  NE1       -3.8280   44.7080   13.4190 N.ar  324  TRP324     -0.2442
     77  CE2       -2.6990   43.9840   13.1390 C.ar  324  TRP324      0.0810
     78  CE3       -1.9560   42.3900   11.4820 C.ar  324  TRP324      0.0012
     79  CZ2       -1.4760   43.9330   13.8040 C.ar  324  TRP324      0.0191
     80  CZ3       -0.7440   42.3400   12.1440 C.ar  324  TRP324      0.0001
     81  CH2       -0.5140   43.1070   13.2920 C.ar  324  TRP324      0.0015
@<TRIPOS>BOND
     1     1     2    1
     2     4     3    2
     3     2     3    1
     4     3     5   am
     5     5     6    1
     6     6     9    1
     7     6     7    1
     8    34    33    1
     9     9    10    1
    10    33    32    1
    11    33    35    1
    12    32    29    1
    13     7    11   am
    14     7     8    2
    15    11    12    1
    16    30    29    1
    17    30    31    2
    18    29    28    1
    19    14    13    2
    20    27    26    2
    21    15    12    1
    22    12    13    1
    23    28    26   am
    24    26    25    1
    25    25    24    2
    26    24    18    1
    27    21    22    1
    28    21    20    1
    29    39    38    2
    30    36    37    1
    31    18    17    1
    32    18    19    2
    33    17    20    1
    34    17    16    1
    35    22    23    1
    36    40    37    1
    37    40    41    1
    38    43    41    1
    39    37    38    1
    40    38    44    1
    41    41    42    1
    42    44    45    2
    43    45    46    1
    44    57    55   ar
    45    57    58   ar
    46    55    53   ar
    47    48    46   am
    48    48    49    1
    49    46    47    2
    50    51    50    2
    51    72    69    1
    52    72    73    1
    53    69    70    1
    54    69    68    1
    55    70    71    2
    56    58    56   ar
    57    53    52    1
    58    53    54   ar
    59    49    52    1
    60    49    50    1
    61    78    75   ar
    62    78    80   ar
    63    73    75   ar
    64    73    74   ar
    65    75    77   ar
    66    56    54   ar
    67    80    81   ar
    68    74    76   ar
    69    77    76   ar
    70    77    79   ar
    71    81    79   ar
    72    60    61    1
    73    60    63    1
    74    60    59    1
    75    64    65    1
    76    64    63    1
    77    65    66    1
    78    61    62    2
    79    66    67    1
