@<TRIPOS>MOLECULE
tmp/4mt4B01.pdb
 85 84 0 0 0
SMALL
GASTEIGER

@<TRIPOS>ATOM
      1  N         -6.2380   42.9060   -4.9920 N.3    85  PHE85      -0.1241
      2  CA        -7.0930   43.1340   -3.8340 C.3    85  PHE85       0.1605
      3  C         -8.4690   42.5110   -4.0380 C.2    85  PHE85       0.2264
      4  O         -9.1220   42.7390   -5.0570 O.2    85  PHE85      -0.2867
      5  CB        -7.2280   44.6300   -3.5470 C.3    85  PHE85       0.0534
      6  CG        -5.9460   45.2820   -3.1190 C.ar   85  PHE85      -0.0203
      7  CD1       -5.5430   45.2460   -1.7950 C.ar   85  PHE85      -0.0042
      8  CD2       -5.1440   45.9340   -4.0420 C.ar   85  PHE85      -0.0042
      9  CE1       -4.3640   45.8450   -1.3980 C.ar   85  PHE85      -0.0003
     10  CE2       -3.9640   46.5350   -3.6520 C.ar   85  PHE85      -0.0003
     11  CZ        -3.5730   46.4900   -2.3280 C.ar   85  PHE85      -0.0000
     12  N        -10.8960   42.6780    3.5960 N.3   118  LEU118     -0.1231
     13  CA       -10.1340   42.8280    2.3590 C.3   118  LEU118      0.1693
     14  C         -8.9400   41.8800    2.3350 C.2   118  LEU118      0.2592
     15  O         -8.3260   41.6170    3.3680 O.2   118  LEU118     -0.2718
     16  CB        -9.6460   44.2690    2.1800 C.3   118  LEU118      0.0284
     17  CG       -10.6740   45.3940    2.0140 C.3   118  LEU118      0.0019
     18  CD1      -11.9180   44.9150    1.2720 C.3   118  LEU118      0.0001
     19  CD2      -11.0340   46.0160    3.3560 C.3   118  LEU118      0.0001
     20  N         -8.6070   41.3780    1.1500 N.am  119  ASN119     -0.1960
     21  CA        -7.4830   40.4610    1.0090 C.3   119  ASN119      0.1819
     22  C         -6.3850   40.9980    0.0970 C.2   119  ASN119      0.2621
     23  O         -6.6590   41.5610   -0.9610 O.2   119  ASN119     -0.2715
     24  CB        -7.9670   39.1070    0.4860 C.3   119  ASN119      0.1195
     25  CG        -8.9450   38.4360    1.4280 C.2   119  ASN119      0.2630
     26  OD1      -10.1560   38.4670    1.2090 O.2   119  ASN119     -0.2716
     27  ND2       -8.4240   37.8280    2.4880 N.am  119  ASN119     -0.0877
     28  N         -5.1400   40.8190    0.5220 N.am  120  LEU120     -0.1977
     29  CA        -3.9880   41.1800   -0.2910 C.3   120  LEU120      0.1596
     30  C         -3.2810   39.9280   -0.7920 C.2   120  LEU120      0.2287
     31  O         -3.0170   39.0070   -0.0260 O.2   120  LEU120     -0.2864
     32  CB        -3.0130   42.0510    0.5030 C.3   120  LEU120      0.0297
     33  CG        -1.6150   42.2260   -0.1000 C.3   120  LEU120      0.0022
     34  CD1       -1.6510   43.1720   -1.2900 C.3   120  LEU120      0.0001
     35  CD2       -0.6180   42.7010    0.9490 C.3   120  LEU120      0.0001
     36  N         -2.1460   39.3670    2.8150 N.3   304  GLY304     -0.1210
     37  CA        -2.5750   40.2860    3.8520 C.3   304  GLY304      0.1956
     38  C         -4.0810   40.2920    4.0160 C.2   304  GLY304      0.2612
     39  O         -4.8200   40.1620    3.0390 O.2   304  GLY304     -0.2717
     40  N         -4.5340   40.4370    5.2570 N.am  305  LEU305     -0.1965
     41  CA        -5.9600   40.4830    5.5530 C.3   305  LEU305      0.1728
     42  C         -6.2880   41.6510    6.4740 C.2   305  LEU305      0.2616
     43  O         -5.5380   41.9490    7.4020 O.2   305  LEU305     -0.2715
     44  CB        -6.4230   39.1690    6.1880 C.3   305  LEU305      0.0311
     45  CG        -7.8470   39.1380    6.7540 C.3   305  LEU305      0.0022
     46  CD1       -8.8780   39.2190    5.6380 C.3   305  LEU305      0.0001
     47  CD2       -8.0750   37.9010    7.6100 C.3   305  LEU305      0.0001
     48  N         -7.4060   42.3130    6.2030 N.am  306  LEU306     -0.1977
     49  CA        -7.9230   43.3510    7.0840 C.3   306  LEU306      0.1596
     50  C         -9.4410   43.2690    7.1270 C.2   306  LEU306      0.2287
     51  O        -10.1130   43.5770    6.1440 O.2   306  LEU306     -0.2864
     52  CB        -7.4810   44.7400    6.6250 C.3   306  LEU306      0.0297
     53  CG        -8.0310   45.8920    7.4710 C.3   306  LEU306      0.0022
     54  CD1       -7.5440   45.7910    8.9120 C.3   306  LEU306      0.0001
     55  CD2       -7.6660   47.2380    6.8660 C.3   306  LEU306      0.0001
     56  N         -6.4270   41.4240   11.7400 N.3   324  TRP324     -0.1227
     57  CA        -5.5820   41.5280   10.5590 C.3   324  TRP324      0.1737
     58  C         -4.4310   40.5370   10.6260 C.2   324  TRP324      0.2595
     59  O         -4.0760   40.0550   11.7020 O.2   324  TRP324     -0.2718
     60  CB        -5.0410   42.9560   10.3860 C.3   324  TRP324      0.0564
     61  CG        -4.3070   43.5180   11.5760 C.ar  324  TRP324      0.0003
     62  CD1       -4.7850   44.4250   12.4760 C.ar  324  TRP324      0.0946
     63  CD2       -2.9620   43.2240   11.9820 C.ar  324  TRP324      0.0152
     64  NE1       -3.8280   44.7080   13.4190 N.ar  324  TRP324     -0.2442
     65  CE2       -2.6990   43.9840   13.1390 C.ar  324  TRP324      0.0810
     66  CE3       -1.9560   42.3900   11.4820 C.ar  324  TRP324      0.0012
     67  CZ2       -1.4760   43.9330   13.8040 C.ar  324  TRP324      0.0191
     68  CZ3       -0.7440   42.3400   12.1440 C.ar  324  TRP324      0.0001
     69  CH2       -0.5140   43.1070   13.2920 C.ar  324  TRP324      0.0015
     70  N         -3.8580   40.2300    9.4660 N.am  325  ASN325     -0.1960
     71  CA        -2.6410   39.4330    9.3980 C.3   325  ASN325      0.1819
     72  C         -1.8340   39.7520    8.1450 C.2   325  ASN325      0.2621
     73  O         -2.3730   40.2360    7.1500 O.2   325  ASN325     -0.2715
     74  CB        -2.9610   37.9350    9.4520 C.3   325  ASN325      0.1195
     75  CG        -3.8000   37.4680    8.2790 C.2   325  ASN325      0.2630
     76  OD1       -5.0160   37.3300    8.3930 O.2   325  ASN325     -0.2716
     77  ND2       -3.1530   37.2100    7.1470 N.am  325  ASN325     -0.0877
     78  N         -0.5360   39.4860    8.2090 N.am  326  ILE326     -0.1977
     79  CA         0.3480   39.6650    7.0690 C.3   326  ILE326      0.1596
     80  C          1.2900   38.4680    7.0160 C.2   326  ILE326      0.2287
     81  O          1.7950   38.0230    8.0470 O.2   326  ILE326     -0.2864
     82  CB         1.1380   40.9960    7.1570 C.3   326  ILE326      0.0276
     83  CG1        2.0860   41.1470    5.9650 C.3   326  ILE326      0.0022
     84  CG2        1.8950   41.0940    8.4790 C.3   326  ILE326      0.0022
     85  CD1        2.8510   42.4550    5.9580 C.3   326  ILE326      0.0001
@<TRIPOS>BOND
     1     4     3    2
     2     1     2    1
     3     8    10   ar
     4     8     6   ar
     5     3     2    1
     6     2     5    1
     7    10    11   ar
     8     5     6    1
     9     6     7   ar
    10    11     9   ar
    11     7     9   ar
    12    34    33    1
    13    23    22    2
    14    30    29    1
    15    30    31    2
    16    29    32    1
    17    29    28    1
    18    33    32    1
    19    33    35    1
    20    22    28   am
    21    22    21    1
    22    24    21    1
    23    24    25    1
    24    21    20    1
    25    20    14   am
    26    26    25    2
    27    18    17    1
    28    25    27   am
    29    17    16    1
    30    17    19    1
    31    16    13    1
    32    14    13    1
    33    14    15    2
    34    13    12    1
    35    36    37    1
    36    39    38    2
    37    37    38    1
    38    38    40   am
    39    40    41    1
    40    41    44    1
    41    41    42    1
    42    46    45    1
    43    85    83    1
    44    83    82    1
    45    51    50    2
    46    44    45    1
    47    48    42   am
    48    48    49    1
    49    42    43    2
    50    52    49    1
    51    52    53    1
    52    45    47    1
    53    55    53    1
    54    80    79    1
    55    80    81    2
    56    79    82    1
    57    79    78    1
    58    49    50    1
    59    77    75   am
    60    73    72    2
    61    82    84    1
    62    53    54    1
    63    72    78   am
    64    72    71    1
    65    75    76    2
    66    75    74    1
    67    71    74    1
    68    71    70    1
    69    70    58   am
    70    60    57    1
    71    60    61    1
    72    57    58    1
    73    57    56    1
    74    58    59    2
    75    66    63   ar
    76    66    68   ar
    77    61    63   ar
    78    61    62   ar
    79    63    65   ar
    80    68    69   ar
    81    62    64   ar
    82    65    64   ar
    83    65    67   ar
    84    69    67   ar
