@<TRIPOS>MOLECULE
tmp/4mt9B00.pdb
 186 185 0 0 0
SMALL
GASTEIGER

@<TRIPOS>ATOM
      1  N         21.3830   38.7330   -2.5250 N.3    80  HIS80      -0.1226
      2  CA        22.5860   39.4910   -2.2410 C.3    80  HIS80       0.1752
      3  C         23.2750   39.7820   -3.5620 C.2    80  HIS80       0.2597
      4  O         23.4650   38.8920   -4.3960 O.2    80  HIS80      -0.2718
      5  CB        23.5630   38.7470   -1.3650 C.3    80  HIS80       0.0759
      6  CG        24.8950   39.4300   -1.2600 C.ar   80  HIS80       0.0818
      7  ND1       25.1010   40.5500   -0.4830 N.ar   80  HIS80      -0.2268
      8  CD2       26.0650   39.2050   -1.9080 C.ar   80  HIS80       0.1154
      9  CE1       26.3390   40.9860   -0.6590 C.ar   80  HIS80       0.1986
     10  NE2       26.9420   40.1860   -1.5200 N.ar   80  HIS80      -0.2212
     11  N         23.6410   41.0420   -3.7490 N.am   81  GLY81      -0.1942
     12  CA        24.3420   41.4380   -4.9510 C.3    81  GLY81       0.2014
     13  C         25.5490   42.2600   -4.5460 C.2    81  GLY81       0.2640
     14  O         25.4350   43.1590   -3.7040 O.2    81  GLY81      -0.2714
     15  N         26.7040   41.9400   -5.1220 N.am   82  SER82      -0.1936
     16  CA        27.9300   42.6740   -4.8480 C.3    82  SER82       0.2040
     17  C         28.9570   42.2750   -5.8940 C.2    82  SER82       0.2485
     18  O         28.7600   41.3170   -6.6380 O.2    82  SER82      -0.2729
     19  CB        28.4710   42.3530   -3.4440 C.3    82  SER82       0.2129
     20  OG        29.0410   41.0660   -3.4000 O.3    82  SER82      -0.2179
     21  N         30.0740   43.0050   -5.9590 N.am   83  PRO83      -0.2715
     22  CA        31.1230   42.7020   -6.9330 C.3    83  PRO83       0.1536
     23  C         32.0090   41.5180   -6.5480 C.2    83  PRO83       0.2598
     24  O         32.9970   41.2360   -7.2280 O.2    83  PRO83      -0.2715
     25  CB        31.9320   44.0180   -6.9830 C.3    83  PRO83       0.0310
     26  CG        30.9250   45.0620   -6.5900 C.3    83  PRO83       0.0237
     27  CD        30.2280   44.3800   -5.4430 C.3    83  PRO83       0.0939
     28  N         31.6550   40.8140   -5.4770 N.am   84  PHE84      -0.1974
     29  CA        32.4810   39.7050   -5.0020 C.3    84  PHE84       0.1639
     30  C         31.8680   38.3190   -5.1450 C.2    84  PHE84       0.2290
     31  O         32.3160   37.3820   -4.4930 O.2    84  PHE84      -0.2864
     32  CB        32.8330   39.9510   -3.5270 C.3    84  PHE84       0.0560
     33  CG        33.3950   41.3160   -3.2750 C.ar   84  PHE84      -0.0200
     34  CD1       34.7310   41.5830   -3.5310 C.ar   84  PHE84      -0.0042
     35  CD2       32.5580   42.3610   -2.8960 C.ar   84  PHE84      -0.0042
     36  CE1       35.2400   42.8730   -3.4290 C.ar   84  PHE84      -0.0003
     37  CE2       33.0510   43.6670   -2.7890 C.ar   84  PHE84      -0.0003
     38  CZ        34.4000   43.9210   -3.0610 C.ar   84  PHE84      -0.0000
     39  N         34.1800   35.2700   -5.4760 N.3    87  ALA87      -0.1231
     40  CA        34.8780   34.9370   -4.2440 C.3    87  ALA87       0.1694
     41  C         33.9370   34.2610   -3.2580 C.2    87  ALA87       0.2591
     42  O         34.3100   33.2990   -2.5860 O.2    87  ALA87      -0.2718
     43  CB        35.4580   36.1860   -3.6250 C.3    87  ALA87       0.0304
     44  N         32.7150   34.7750   -3.1830 N.am   88  ILE88      -0.1980
     45  CA        31.7050   34.2540   -2.2820 C.3    88  ILE88       0.1595
     46  C         31.3160   32.8140   -2.5730 C.2    88  ILE88       0.2287
     47  O         31.2030   32.0150   -1.6600 O.2    88  ILE88      -0.2864
     48  CB        30.4350   35.1350   -2.3180 C.3    88  ILE88       0.0276
     49  CG1       30.8050   36.5780   -1.9210 C.3    88  ILE88       0.0022
     50  CG2       29.3820   34.5860   -1.3790 C.3    88  ILE88       0.0022
     51  CD1       29.6920   37.5720   -2.1240 C.3    88  ILE88       0.0001
     52  N         34.7240   30.7510   -1.6040 N.3    91  LYS91      -0.1231
     53  CA        35.1710   30.8670   -0.2210 C.3    91  LYS91       0.1693
     54  C         34.0650   31.1450    0.7890 C.2    91  LYS91       0.2593
     55  O         34.2910   31.0700    1.9890 O.2    91  LYS91      -0.2718
     56  CB        36.2040   31.9820   -0.1340 C.3    91  LYS91       0.0285
     57  CG        37.4140   31.7970   -1.0520 C.3    91  LYS91       0.0035
     58  CD        38.0850   33.1140   -1.3610 C.3    91  LYS91       0.0206
     59  CE        39.2290   32.9340   -2.3400 C.3    91  LYS91       0.1093
     60  NZ        39.6520   34.2240   -2.9670 N.3    91  LYS91      -0.1314
     61  N         32.8750   31.4740    0.2990 N.am   92  GLY92      -0.1942
     62  CA        31.7590   31.7850    1.1720 C.3    92  GLY92       0.2014
     63  C         31.8180   33.2400    1.6170 C.2    92  GLY92       0.2639
     64  O         32.7840   33.9360    1.3360 O.2    92  GLY92      -0.2714
     65  N         30.7760   33.7070    2.2970 N.am   93  PHE93      -0.1959
     66  CA        30.7270   35.0770    2.8060 C.3    93  PHE93       0.1771
     67  C         31.7780   35.1910    3.9080 C.2    93  PHE93       0.2619
     68  O         32.0920   34.2040    4.5610 O.2    93  PHE93      -0.2715
     69  CB        29.3460   35.3700    3.3600 C.3    93  PHE93       0.0574
     70  CG        28.2930   35.5290    2.3010 C.ar   93  PHE93      -0.0200
     71  CD1       28.1800   36.7220    1.5850 C.ar   93  PHE93      -0.0042
     72  CD2       27.4270   34.4860    2.0030 C.ar   93  PHE93      -0.0042
     73  CE1       27.2160   36.8730    0.5910 C.ar   93  PHE93      -0.0003
     74  CE2       26.4620   34.6280    1.0110 C.ar   93  PHE93      -0.0003
     75  CZ        26.3580   35.8220    0.3060 C.ar   93  PHE93      -0.0000
     76  N         32.3130   36.3860    4.1270 N.am   94  ASP94      -0.1971
     77  CA        33.3550   36.5550    5.1320 C.3    94  ASP94       0.1709
     78  C         33.3150   37.9610    5.7290 C.2    94  ASP94       0.2293
     79  O         33.6630   38.9420    5.0630 O.2    94  ASP94      -0.2864
     80  CB        34.7300   36.2790    4.4560 C.3    94  ASP94       0.1436
     81  CG        35.8860   36.2190    5.4480 C.2    94  ASP94       0.3671
     82  OD1       35.6890   36.4680    6.6630 O.co2  94  ASP94      -0.2456
     83  OD2       37.0080   35.9180    4.9900 O.co2  94  ASP94      -0.2456
     84  N         35.8070   40.8630    5.4600 N.3    97  HIS97      -0.1226
     85  CA        35.8250   41.7850    4.3340 C.3    97  HIS97       0.1752
     86  C         34.7100   42.8120    4.4770 C.2    97  HIS97       0.2595
     87  O         34.5150   43.6530    3.5970 O.2    97  HIS97      -0.2718
     88  CB        35.6430   41.0540    3.0040 C.3    97  HIS97       0.0759
     89  CG        36.8480   40.2930    2.5550 C.ar   97  HIS97       0.0818
     90  ND1       36.9540   38.9250    2.6850 N.ar   97  HIS97      -0.2268
     91  CD2       38.0060   40.7070    1.9880 C.ar   97  HIS97       0.1154
     92  CE1       38.1240   38.5310    2.2210 C.ar   97  HIS97       0.1986
     93  NE2       38.7810   39.5920    1.7920 N.ar   97  HIS97      -0.2212
     94  N         33.9640   42.7400    5.5720 N.am   98  ALA98      -0.1980
     95  CA        32.8830   43.6930    5.7970 C.3    98  ALA98       0.1597
     96  C         33.4630   44.8380    6.6300 C.2    98  ALA98       0.2287
     97  O         34.2090   44.5980    7.5690 O.2    98  ALA98      -0.2864
     98  CB        31.7470   43.0200    6.5690 C.3    98  ALA98       0.0319
     99  N         28.8240   44.1640    8.5350 N.3   107  GLY107     -0.1210
    100  CA        28.1440   42.9110    8.3380 C.3   107  GLY107      0.1956
    101  C         27.9580   42.5830    6.8750 C.2   107  GLY107      0.2612
    102  O         28.4970   43.2540    6.0030 O.2   107  GLY107     -0.2717
    103  N         27.1830   41.5440    6.6050 N.am  108  ILE108     -0.1965
    104  CA        26.9010   41.1120    5.2380 C.3   108  ILE108      0.1727
    105  C         25.4090   41.3620    5.0500 C.2   108  ILE108      0.2616
    106  O         24.6000   40.8570    5.8160 O.2   108  ILE108     -0.2715
    107  CB        27.1990   39.6140    5.0770 C.3   108  ILE108      0.0290
    108  CG1       28.5980   39.2960    5.6330 C.3   108  ILE108      0.0022
    109  CG2       27.1390   39.2280    3.6150 C.3   108  ILE108      0.0023
    110  CD1       28.8460   37.8310    5.8550 C.3   108  ILE108      0.0001
    111  N         25.0600   42.1540    4.0400 N.am  109  TYR109     -0.1960
    112  CA        23.6730   42.5450    3.7790 C.3   109  TYR109      0.1771
    113  C         22.9050   41.7620    2.7000 C.2   109  TYR109      0.2620
    114  O         23.4540   41.3940    1.6500 O.2   109  TYR109     -0.2715
    115  CB        23.6260   44.0400    3.4140 C.3   109  TYR109      0.0574
    116  CG        24.1230   45.0020    4.4780 C.ar  109  TYR109     -0.0198
    117  CD1       25.4110   44.8970    4.9950 C.ar  109  TYR109     -0.0009
    118  CD2       23.3150   46.0470    4.9340 C.ar  109  TYR109     -0.0009
    119  CE1       25.8930   45.8170    5.9400 C.ar  109  TYR109      0.0417
    120  CE2       23.7820   46.9720    5.8800 C.ar  109  TYR109      0.0417
    121  CZ        25.0730   46.8500    6.3740 C.ar  109  TYR109      0.1957
    122  OH        25.5520   47.7770    7.2680 O.3   109  TYR109     -0.2866
    123  N         21.6200   41.5520    2.9690 N.am  110  PHE110     -0.1960
    124  CA        20.7210   40.8290    2.0780 C.3   110  PHE110      0.1771
    125  C         19.3920   41.5790    1.9830 C.2   110  PHE110      0.2619
    126  O         19.0760   42.3960    2.8450 O.2   110  PHE110     -0.2715
    127  CB        20.4680   39.3850    2.6510 C.3   110  PHE110      0.0574
    128  CG        21.7140   38.5700    2.7930 C.ar  110  PHE110     -0.0200
    129  CD1       22.1020   37.7030    1.7850 C.ar  110  PHE110     -0.0042
    130  CD2       22.5150   38.6840    3.9310 C.ar  110  PHE110     -0.0042
    131  CE1       23.2800   36.9490    1.9010 C.ar  110  PHE110     -0.0003
    132  CE2       23.6820   37.9470    4.0620 C.ar  110  PHE110     -0.0003
    133  CZ        24.0690   37.0720    3.0420 C.ar  110  PHE110     -0.0000
    134  N         18.6090   41.2960    0.9500 N.am  111  ALA111     -0.1977
    135  CA        17.3160   41.9550    0.7920 C.3   111  ALA111      0.1597
    136  C         16.3060   40.9640    0.2380 C.2   111  ALA111      0.2287
    137  O         16.6760   40.0270   -0.4810 O.2   111  ALA111     -0.2864
    138  CB        17.4420   43.1510   -0.1550 C.3   111  ALA111      0.0319
    139  N         16.4570   45.5390   -5.0850 N.3   116  LYS116     -0.1231
    140  CA        17.3100   46.2220   -4.1220 C.3   116  LYS116      0.1693
    141  C         18.7500   45.7210   -4.2750 C.2   116  LYS116      0.2592
    142  O         19.6840   46.5160   -4.3650 O.2   116  LYS116     -0.2718
    143  CB        16.8380   45.9910   -2.6670 C.3   116  LYS116      0.0285
    144  CG        17.8340   46.4690   -1.6120 C.3   116  LYS116      0.0035
    145  CD        18.2120   47.9360   -1.7490 C.3   116  LYS116      0.0206
    146  CE        17.1140   48.8950   -1.3290 C.3   116  LYS116      0.1093
    147  NZ        15.8290   48.7250   -2.0920 N.3   116  LYS116     -0.1314
    148  N         18.9290   44.4060   -4.3040 N.am  117  SER117     -0.1952
    149  CA        20.2560   43.8270   -4.4540 C.3   117  SER117      0.1924
    150  C         20.8840   44.1680   -5.7990 C.2   117  SER117      0.2314
    151  O         22.1070   44.2110   -5.9310 O.2   117  SER117     -0.2863
    152  CB        20.1870   42.2720   -4.2780 C.3   117  SER117      0.2116
    153  OG        19.9210   41.9340   -2.9390 O.3   117  SER117     -0.2180
    154  N         23.3310   46.9520   -5.9860 N.3   120  TYR120     -0.1241
    155  CA        24.6640   46.7280   -5.4210 C.3   120  TYR120      0.1605
    156  C         25.5740   45.8560   -6.2550 C.2   120  TYR120      0.2264
    157  O         26.7420   45.6490   -5.9040 O.2   120  TYR120     -0.2867
    158  CB        24.5370   46.0830   -4.0110 C.3   120  TYR120      0.0534
    159  CG        23.9270   47.0170   -3.0080 C.ar  120  TYR120     -0.0201
    160  CD1       24.7040   47.9800   -2.3770 C.ar  120  TYR120     -0.0009
    161  CD2       22.5630   46.9900   -2.7450 C.ar  120  TYR120     -0.0009
    162  CE1       24.1420   48.9110   -1.5180 C.ar  120  TYR120      0.0417
    163  CE2       21.9830   47.9040   -1.8860 C.ar  120  TYR120      0.0417
    164  CZ        22.7800   48.8690   -1.2720 C.ar  120  TYR120      0.1957
    165  OH        22.2140   49.8050   -0.4400 O.3   120  TYR120     -0.2866
    166  N         28.5980   47.6310   -7.0540 N.3   123  GLY123     -0.1210
    167  CA        29.1900   48.3620   -5.9490 C.3   123  GLY123      0.1956
    168  C         28.1830   49.2320   -5.2210 C.2   123  GLY123      0.2611
    169  O         27.0210   49.3000   -5.6100 O.2   123  GLY123     -0.2717
    170  N         28.6240   49.8770   -4.1410 N.am  124  ILE124     -0.1979
    171  CA        27.7350   50.7290   -3.3600 C.3   124  ILE124      0.1595
    172  C         27.1920   51.8050   -4.2980 C.2   124  ILE124      0.2287
    173  O         27.9410   52.4500   -5.0350 O.2   124  ILE124     -0.2864
    174  CB        28.4710   51.4060   -2.1920 C.3   124  ILE124      0.0276
    175  CG1       29.0220   50.3390   -1.2290 C.3   124  ILE124      0.0022
    176  CG2       27.5200   52.3450   -1.4510 C.3   124  ILE124      0.0022
    177  CD1       27.9700   49.3810   -0.6800 C.3   124  ILE124      0.0001
    178  N         16.0310   45.3970    5.1420 N.3   179  GLU179     -0.1245
    179  CA        17.4050   44.9750    4.8870 C.3   179  GLU179      0.1567
    180  C         17.7610   43.9830    5.9900 C.2   179  GLU179      0.2260
    181  O         17.4170   44.1930    7.1490 O.2   179  GLU179     -0.2867
    182  CB        18.3740   46.1560    4.9800 C.3   179  GLU179      0.0388
    183  CG        18.3570   47.1100    3.8240 C.3   179  GLU179      0.1160
    184  CD        19.1870   48.3480    4.0770 C.2   179  GLU179      0.3649
    185  OE1       20.3680   48.2170    4.4780 O.co2 179  GLU179     -0.2457
    186  OE2       18.6600   49.4720    3.8820 O.co2 179  GLU179     -0.2457
@<TRIPOS>BOND
     1    24    23    2
     2   166   167    1
     3    25    22    1
     4    25    26    1
     5    22    23    1
     6    22    21    1
     7    18    17    2
     8    26    27    1
     9    23    28   am
    10   156   157    2
    11   156   155    1
    12   154   155    1
    13    21    17   am
    14    21    27    1
    15   167   168    1
    16   151   150    2
    17    17    16    1
    18   150   149    1
    19   169   168    2
    20    28    29    1
    21    39    40    1
    22   155   158    1
    23   168   170   am
    24    30    29    1
    25    30    31    2
    26    15    16    1
    27    15    13   am
    28   139   140    1
    29   173   172    2
    30    29    32    1
    31    12    13    1
    32    12    11    1
    33    16    19    1
    34    13    14    2
    35   149   148    1
    36   149   152    1
    37     4     3    2
    38   142   141    2
    39   148   141   am
    40   172   171    1
    41   152   153    1
    42   141   140    1
    43    40    43    1
    44    40    41    1
    45   170   171    1
    46   140   143    1
    47   158   159    1
    48    11     3   am
    49     3     2    1
    50    34    36   ar
    51    34    33   ar
    52    32    33    1
    53    19    20    1
    54    36    38   ar
    55   171   174    1
    56    33    35   ar
    57    41    44   am
    58    41    42    2
    59    44    45    1
    60    38    37   ar
    61   159   161   ar
    62   159   160   ar
    63    60    59    1
    64    35    37   ar
    65   161   163   ar
    66   143   144    1
    67    46    45    1
    68    46    47    2
    69     1     2    1
    70   160   162   ar
    71    59    58    1
    72    48    45    1
    73    48    49    1
    74    48    50    1
    75     2     5    1
    76   174   176    1
    77   174   175    1
    78    51    49    1
    79   147   146    1
    80     8    10   ar
    81     8     6   ar
    82   163   164   ar
    83   145   144    1
    84   145   146    1
    85    52    53    1
    86    10     9   ar
    87   162   164   ar
    88     5     6    1
    89    58    57    1
    90   164   165    1
    91     6     7   ar
    92   175   177    1
    93    57    56    1
    94     9     7   ar
    95   137   136    2
    96    53    56    1
    97    53    54    1
    98   138   135    1
    99   136   135    1
   100    61    54   am
   101    61    62    1
   102    75    73   ar
   103    75    74   ar
   104    73    71   ar
   105    54    55    2
   106   135   134    1
   107   134   125   am
   108    74    72   ar
   109    62    63    1
   110    64    63    2
   111    71    70   ar
   112    63    65   am
   113   114   113    2
   114   129   131   ar
   115   129   128   ar
   116    93    91   ar
   117    93    92   ar
   118   131   133   ar
   119   125   124    1
   120   125   126    2
   121    91    89   ar
   122    72    70   ar
   123   124   127    1
   124   124   123    1
   125    92    90   ar
   126    65    66    1
   127    70    69    1
   128    89    90   ar
   129    89    88    1
   130   127   128    1
   131   113   123   am
   132   113   112    1
   133   128   130   ar
   134    66    69    1
   135    66    67    1
   136    88    85    1
   137   133   132   ar
   138   115   112    1
   139   115   116    1
   140    87    86    2
   141   109   107    1
   142   112   111    1
   143   183   184    1
   144   183   182    1
   145   186   184   ar
   146    67    76   am
   147    67    68    2
   148   130   132   ar
   149   111   105   am
   150   184   185   ar
   151    76    77    1
   152    85    86    1
   153    85    84    1
   154    80    77    1
   155    80    81    1
   156    86    94   am
   157   116   118   ar
   158   116   117   ar
   159   179   182    1
   160   179   178    1
   161   179   180    1
   162   118   120   ar
   163    83    81   ar
   164   117   119   ar
   165   105   104    1
   166   105   106    2
   167    79    78    2
   168   107   104    1
   169   107   108    1
   170    77    78    1
   171   104   103    1
   172    81    82   ar
   173    94    95    1
   174   108   110    1
   175    95    98    1
   176    95    96    1
   177   120   121   ar
   178   119   121   ar
   179   180   181    2
   180   102   101    2
   181   121   122    1
   182   103   101   am
   183    96    97    2
   184   101   100    1
   185   100    99    1
