@<TRIPOS>MOLECULE
tmp/4mtaA00.pdb
 150 140 0 0 0
SMALL
GASTEIGER

@<TRIPOS>ATOM
      1  N         79.0820   37.9090    4.4350 N.3    12  LEU12      -0.1245
      2  CA        77.6720   37.7670    4.7870 C.3    12  LEU12       0.1561
      3  C         77.4610   36.4680    5.5560 C.2    12  LEU12       0.2260
      4  O         76.6000   36.3950    6.4290 O.2    12  LEU12      -0.2867
      5  CB        76.7860   37.8030    3.5260 C.3    12  LEU12       0.0270
      6  CG        76.7480   39.1330    2.7690 C.3    12  LEU12       0.0019
      7  CD1       75.9980   39.0010    1.4650 C.3    12  LEU12       0.0001
      8  CD2       76.1840   40.2740    3.6410 C.3    12  LEU12       0.0001
      9  N         78.4330   25.6950    1.9820 N.3    17  PHE17      -0.1241
     10  CA        78.3730   26.3130    0.6510 C.3    17  PHE17       0.1605
     11  C         79.6480   27.0590    0.2530 C.2    17  PHE17       0.2264
     12  O         79.8690   27.2630   -0.9380 O.2    17  PHE17      -0.2867
     13  CB        77.1890   27.2870    0.5710 C.3    17  PHE17       0.0534
     14  CG        77.1620   28.3190    1.6800 C.ar   17  PHE17      -0.0203
     15  CD1       77.8490   29.5230    1.5510 C.ar   17  PHE17      -0.0042
     16  CD2       76.4080   28.1070    2.8330 C.ar   17  PHE17      -0.0042
     17  CE1       77.8230   30.4670    2.5750 C.ar   17  PHE17      -0.0003
     18  CE2       76.3650   29.0660    3.8430 C.ar   17  PHE17      -0.0003
     19  CZ        77.0580   30.2460    3.7000 C.ar   17  PHE17      -0.0000
     20  N         80.4020   33.6710    1.4020 N.3    20  VAL20      -0.1245
     21  CA        79.6840   34.6400    0.5950 C.3    20  VAL20       0.1561
     22  C         79.9230   36.0330    1.1690 C.2    20  VAL20       0.2260
     23  O         79.8540   36.2350    2.3820 O.2    20  VAL20      -0.2867
     24  CB        78.1970   34.2610    0.3530 C.3    20  VAL20       0.0252
     25  CG1       77.4420   34.0520    1.6590 C.3    20  VAL20       0.0019
     26  CG2       77.4840   35.2800   -0.5260 C.3    20  VAL20       0.0019
     27  N         76.5130   39.5460   -4.3760 N.3    33  ALA33      -0.1245
     28  CA        77.0260   38.6510   -3.3680 C.3    33  ALA33       0.1562
     29  C         78.0810   37.8730   -4.1120 C.2    33  ALA33       0.2260
     30  O         77.8770   37.4610   -5.2480 O.2    33  ALA33      -0.2867
     31  CB        75.9340   37.7340   -2.8230 C.3    33  ALA33       0.0290
     32  N         80.2750   34.7240   -3.9280 N.3    35  LYS35      -0.1245
     33  CA        80.3640   33.4170   -3.3050 C.3    35  LYS35       0.1561
     34  C         81.6280   32.6920   -3.7730 C.2    35  LYS35       0.2260
     35  O         81.8360   32.4970   -4.9670 O.2    35  LYS35      -0.2867
     36  CB        79.1060   32.6140   -3.6300 C.3    35  LYS35       0.0271
     37  CG        79.0690   31.2360   -3.0090 C.3    35  LYS35       0.0035
     38  CD        77.8950   30.4270   -3.5170 C.3    35  LYS35       0.0206
     39  CE        77.8680   29.1590   -2.7230 C.3    35  LYS35       0.1093
     40  NZ        76.6380   28.3520   -2.9330 N.3    35  LYS35      -0.1314
     41  N         76.6460   23.5730   -9.4700 N.3    57  GLU57      -0.1245
     42  CA        75.9910   24.7700   -8.9700 C.3    57  GLU57       0.1567
     43  C         75.8930   25.8270  -10.0660 C.2    57  GLU57       0.2260
     44  O         74.8210   26.3970  -10.2580 O.2    57  GLU57      -0.2867
     45  CB        76.7660   25.3100   -7.7770 C.3    57  GLU57       0.0388
     46  CG        76.0350   26.4280   -7.0790 C.3    57  GLU57       0.1160
     47  CD        76.7640   27.0490   -5.9060 C.2    57  GLU57       0.3649
     48  OE1       77.7400   26.4600   -5.3790 O.co2  57  GLU57      -0.2457
     49  OE2       76.3410   28.1570   -5.5200 O.co2  57  GLU57      -0.2457
     50  N         72.5150   27.1260  -11.7080 N.3    61  LEU61      -0.1245
     51  CA        72.1730   28.5430  -11.6250 C.3    61  LEU61       0.1561
     52  C         71.8950   29.1110  -12.9990 C.2    61  LEU61       0.2260
     53  O         70.9720   29.8970  -13.1480 O.2    61  LEU61      -0.2867
     54  CB        73.2680   29.3390  -10.9050 C.3    61  LEU61       0.0270
     55  CG        73.2650   29.2210   -9.3830 C.3    61  LEU61       0.0019
     56  CD1       74.5950   29.6790   -8.8010 C.3    61  LEU61       0.0001
     57  CD2       72.1440   30.0230   -8.7760 C.3    61  LEU61       0.0001
     58  N         67.7400   33.0570   -6.9300 N.3    72  ILE72      -0.1245
     59  CA        68.9590   33.8850   -7.0250 C.3    72  ILE72       0.1561
     60  C         69.4880   33.8610   -8.4590 C.2    72  ILE72       0.2260
     61  O         69.4710   32.8120   -9.1180 O.2    72  ILE72      -0.2867
     62  CB        70.0450   33.4880   -5.9770 C.3    72  ILE72       0.0252
     63  CG1       71.0590   34.6270   -5.7140 C.3    72  ILE72       0.0019
     64  CG2       70.7590   32.1770   -6.2950 C.3    72  ILE72       0.0019
     65  CD1       70.5400   35.7280   -4.8410 C.3    72  ILE72       0.0001
     66  N         76.5240   36.7820   -7.6230 N.3    88  LEU88      -0.1231
     67  CA        75.1040   36.6080   -7.5420 C.3    88  LEU88       0.1693
     68  C         74.4780   37.9330   -7.2850 C.2    88  LEU88       0.2592
     69  O         75.0840   38.7760   -6.6370 O.2    88  LEU88      -0.2718
     70  CB        74.7830   35.6520   -6.3740 C.3    88  LEU88       0.0284
     71  CG        75.4200   34.2740   -6.4750 C.3    88  LEU88       0.0019
     72  CD1       75.4740   33.6140   -5.1160 C.3    88  LEU88       0.0001
     73  CD2       74.7110   33.4130   -7.5130 C.3    88  LEU88       0.0001
     74  N         73.2330   38.1030   -7.7340 N.am   89  GLU89      -0.1966
     75  CA        72.4770   39.3130   -7.4540 C.3    89  GLU89       0.1733
     76  C         72.3110   39.4450   -5.9350 C.2    89  GLU89       0.2616
     77  O         72.3710   38.4550   -5.2120 O.2    89  GLU89      -0.2715
     78  CB        71.1020   39.2700   -8.1490 C.3    89  GLU89       0.0429
     79  CG        70.0900   38.3450   -7.4760 C.3    89  GLU89       0.1163
     80  CD        68.6860   38.3640   -8.0500 C.2    89  GLU89       0.3649
     81  OE1       68.1070   39.4640   -8.2100 O.co2  89  GLU89      -0.2457
     82  OE2       68.1370   37.2630   -8.2760 O.co2  89  GLU89      -0.2457
     83  N         72.1680   40.6560   -5.4500 N.am   90  ARG90      -0.1964
     84  CA        71.9760   40.8520   -4.0280 C.3    90  ARG90       0.1714
     85  C         70.8460   41.8330   -3.8140 C.2    90  ARG90       0.2458
     86  O         71.0240   43.0300   -4.0660 O.2    90  ARG90      -0.2730
     87  CB        73.2760   41.3040   -3.3230 C.3    90  ARG90       0.0347
     88  CG        73.1010   41.6750   -1.8610 C.3    90  ARG90       0.0492
     89  CD        74.3970   41.7700   -1.0830 C.3    90  ARG90       0.2205
     90  NE        75.2720   42.8480   -1.5590 N.pl3  90  ARG90      -0.0865
     91  CZ        75.1040   44.1380   -1.2820 C.cat  90  ARG90       0.5346
     92  NH1       74.0820   44.5390   -0.5320 N.pl3  90  ARG90       0.1354
     93  NH2       75.9510   45.0380   -1.7570 N.pl3  90  ARG90       0.1354
     94  N         69.6630   41.3400   -3.3620 N.am   91  PRO91      -0.2727
     95  CA        68.5690   42.2680   -3.0030 C.3    91  PRO91       0.1402
     96  C         69.0300   43.1160   -1.8170 C.2    91  PRO91       0.2269
     97  O         69.8460   42.6630   -1.0040 O.2    91  PRO91      -0.2865
     98  CB        67.4280   41.3310   -2.5790 C.3    91  PRO91       0.0296
     99  CG        67.8090   39.9730   -3.1440 C.3    91  PRO91       0.0237
    100  CD        69.2970   39.9420   -3.0530 C.3    91  PRO91       0.0939
    101  N         67.9930   42.9830    2.5800 N.3    94  VAL94      -0.1245
    102  CA        67.6710   41.5630    2.5000 C.3    94  VAL94       0.1561
    103  C         67.8360   40.9350    3.8850 C.2    94  VAL94       0.2260
    104  O         68.5840   41.4600    4.7210 O.2    94  VAL94      -0.2867
    105  CB        68.5550   40.8800    1.4140 C.3    94  VAL94       0.0252
    106  CG1       69.9860   40.6150    1.8920 C.3    94  VAL94       0.0019
    107  CG2       67.9230   39.6210    0.8800 C.3    94  VAL94       0.0019
    108  N         68.1340   29.0360    3.1680 N.3   140  ASN140     -0.1240
    109  CA        68.3140   29.1750    1.7250 C.3   140  ASN140      0.1653
    110  C         67.2500   30.0090    1.0550 C.2   140  ASN140      0.2266
    111  O         67.0700   29.9480   -0.1580 O.2   140  ASN140     -0.2867
    112  CB        68.4600   27.8160    1.0740 C.3   140  ASN140      0.1155
    113  CG        69.7720   27.2220    1.4740 C.2   140  ASN140      0.2627
    114  OD1       70.7170   27.9450    1.7780 O.2   140  ASN140     -0.2716
    115  ND2       69.8720   25.9180    1.4750 N.am  140  ASN140     -0.0877
    116  N         65.9920   34.0040    0.8630 N.3   142  LEU142     -0.1245
    117  CA        66.2100   35.4050    1.1540 C.3   142  LEU142      0.1561
    118  C         64.9190   36.1450    0.9900 C.2   142  LEU142      0.2260
    119  O         64.1640   35.8750    0.0580 O.2   142  LEU142     -0.2867
    120  CB        67.2340   36.0390    0.2010 C.3   142  LEU142      0.0270
    121  CG        68.6870   35.6390    0.3100 C.3   142  LEU142      0.0019
    122  CD1       69.4810   36.4130   -0.6880 C.3   142  LEU142      0.0001
    123  CD2       69.2450   35.8630    1.7300 C.3   142  LEU142      0.0001
    124  N         68.1040   30.5620   -2.7130 N.3   153  ILE153     -0.1231
    125  CA        69.5580   30.6550   -2.9380 C.3   153  ILE153      0.1692
    126  C         70.2210   29.3070   -2.6580 C.2   153  ILE153      0.2592
    127  O         69.5650   28.3880   -2.1910 O.2   153  ILE153     -0.2718
    128  CB        70.1980   31.7630   -2.0390 C.3   153  ILE153      0.0266
    129  CG1       70.1360   31.3840   -0.5290 C.3   153  ILE153      0.0019
    130  CG2       69.5800   33.1340   -2.3300 C.3   153  ILE153      0.0020
    131  CD1       70.9300   32.2650    0.4690 C.3   153  ILE153      0.0001
    132  N         71.5390   29.2360   -2.8660 N.am  154  ASP154     -0.1960
    133  CA        72.4150   28.0940   -2.6100 C.3   154  ASP154      0.1840
    134  C         71.9800   26.8130   -3.3070 C.2   154  ASP154      0.2622
    135  O         71.4190   25.9090   -2.7010 O.2   154  ASP154     -0.2715
    136  CB        72.6610   27.8680   -1.1160 C.3   154  ASP154      0.1450
    137  CG        73.8250   26.9290   -0.8260 C.2   154  ASP154      0.3671
    138  OD1       74.5830   26.6000   -1.7760 O.co2 154  ASP154     -0.2456
    139  OD2       73.9630   26.5010    0.3410 O.co2 154  ASP154     -0.2456
    140  N         72.3600   26.7190   -4.5630 N.am  155  PHE155     -0.1974
    141  CA        72.1010   25.5860   -5.4320 C.3   155  PHE155      0.1639
    142  C         73.2790   24.6190   -5.3910 C.2   155  PHE155      0.2290
    143  O         73.3690   23.7430   -6.2480 O.2   155  PHE155     -0.2864
    144  CB        71.8600   26.0960   -6.8640 C.3   155  PHE155      0.0560
    145  CG        70.4660   26.6450   -7.0170 C.ar  155  PHE155     -0.0200
    146  CD1       70.1240   27.8850   -6.4790 C.ar  155  PHE155     -0.0042
    147  CD2       69.4670   25.8850   -7.6150 C.ar  155  PHE155     -0.0042
    148  CE1       68.8130   28.3630   -6.5600 C.ar  155  PHE155     -0.0003
    149  CE2       68.1600   26.3740   -7.7060 C.ar  155  PHE155     -0.0003
    150  CZ        67.8440   27.6050   -7.1790 C.ar  155  PHE155     -0.0000
@<TRIPOS>BOND
     1    53    52    2
     2    52    51    1
     3    50    51    1
     4    51    54    1
     5    54    55    1
     6    44    43    2
     7    43    42    1
     8    41    42    1
     9    55    56    1
    10    55    57    1
    11    61    60    2
    12    42    45    1
    13    60    59    1
    14    82    80   ar
    15    81    80   ar
    16    78    79    1
    17    78    75    1
    18    80    79    1
    19    45    46    1
    20    74    75    1
    21    74    68   am
    22   149   147   ar
    23   149   150   ar
    24    66    67    1
    25   147   145   ar
    26    67    68    1
    27    67    70    1
    28    73    71    1
    29    75    76    1
    30    68    69    2
    31   150   148   ar
    32    46    47    1
    33    59    58    1
    34    59    62    1
    35   145   144    1
    36   145   146   ar
    37   144   141    1
    38   148   146   ar
    39    71    70    1
    40    71    72    1
    41    64    62    1
    42   143   142    2
    43    62    63    1
    44    76    83   am
    45    76    77    2
    46    47    49   ar
    47    47    48   ar
    48    63    65    1
    49    83    84    1
    50   141   142    1
    51   141   140    1
    52    30    29    2
    53    35    34    2
    54   140   134   am
    55    27    28    1
    56    29    28    1
    57    86    85    2
    58    84    85    1
    59    84    87    1
    60    32    33    1
    61    85    94   am
    62    34    33    1
    63    36    33    1
    64    36    37    1
    65    38    37    1
    66    38    39    1
    67    28    31    1
    68    94   100    1
    69    94    95    1
    70    87    88    1
    71   134   135    2
    72   134   133    1
    73    99   100    1
    74    99    98    1
    75    95    98    1
    76    95    96    1
    77   125   124    1
    78   125   126    1
    79   125   128    1
    80    40    39    1
    81   132   126   am
    82   132   133    1
    83   126   127    2
    84   133   136    1
    85   130   128    1
    86   128   129    1
    87    88    89    1
    88    96    97    2
    89   138   137   ar
    90    93    91    1
    91    90    91    2
    92    90    89    1
    93    91    92    1
    94   136   137    1
    95    12    11    2
    96   137   139   ar
    97   122   121    1
    98   129   131    1
    99    26    24    1
   100   111   110    2
   101   119   118    2
   102   120   121    1
   103   120   117    1
   104    11    10    1
   105   121   123    1
   106    24    21    1
   107    24    25    1
   108    13    10    1
   109    13    14    1
   110    21    22    1
   111    21    20    1
   112    10     9    1
   113   116   117    1
   114   107   105    1
   115   118   117    1
   116   110   109    1
   117   112   113    1
   118   112   109    1
   119    22    23    2
   120   105   106    1
   121   105   102    1
   122     7     6    1
   123   113   115   am
   124   113   114    2
   125    15    14   ar
   126    15    17   ar
   127    14    16   ar
   128   109   108    1
   129   102   101    1
   130   102   103    1
   131    17    19   ar
   132     6     5    1
   133     6     8    1
   134    16    18   ar
   135     5     2    1
   136    19    18   ar
   137   103   104    2
   138     1     2    1
   139     2     3    1
   140     3     4    2
