@<TRIPOS>MOLECULE
tmp/4mtbA00.pdb
 160 157 0 0 0
SMALL
GASTEIGER

@<TRIPOS>ATOM
      1  N        -18.0840   23.6110   -9.0750 N.3    40  HIS40      -0.1241
      2  CA       -17.1110   24.6690   -8.7890 C.3    40  HIS40       0.1621
      3  C        -16.0620   24.8240   -9.8970 C.2    40  HIS40       0.2264
      4  O        -15.2730   25.7580   -9.8670 O.2    40  HIS40      -0.2867
      5  CB       -16.4610   24.5390   -7.3880 C.3    40  HIS40       0.0745
      6  CG       -15.3650   23.5090   -7.2880 C.ar   40  HIS40       0.0817
      7  ND1      -15.5580   22.2260   -6.8100 N.ar   40  HIS40      -0.2268
      8  CD2      -14.0430   23.6070   -7.5710 C.ar   40  HIS40       0.1154
      9  CE1      -14.4020   21.5790   -6.8350 C.ar   40  HIS40       0.1986
     10  NE2      -13.4680   22.3990   -7.2740 N.ar   40  HIS40      -0.2212
     11  N        -21.6420   28.7480   -1.7710 N.3    79  ASN79      -0.1225
     12  CA       -21.2130   29.0670   -0.4130 C.3    79  ASN79       0.1785
     13  C        -20.8880   27.8430    0.4180 C.2    79  ASN79       0.2598
     14  O        -20.0290   27.9150    1.3020 O.2    79  ASN79      -0.2718
     15  CB       -22.2470   29.9240    0.3140 C.3    79  ASN79       0.1169
     16  CG       -22.4520   31.2550   -0.3460 C.2    79  ASN79       0.2627
     17  OD1      -21.4950   31.9770   -0.6350 O.2    79  ASN79      -0.2716
     18  ND2      -23.7040   31.5970   -0.5980 N.am   79  ASN79      -0.0877
     19  N        -21.6020   26.7400    0.1690 N.am   80  THR80      -0.1939
     20  CA       -21.4430   25.5210    0.9650 C.3    80  THR80       0.2028
     21  C        -20.9400   24.3280    0.1720 C.2    80  THR80       0.2642
     22  O        -20.7000   23.2640    0.7390 O.2    80  THR80      -0.2714
     23  CB       -22.8010   25.1150    1.5480 C.3    80  THR80       0.1808
     24  OG1      -23.6660   24.8160    0.4490 O.3    80  THR80      -0.2208
     25  CG2      -23.3980   26.2280    2.4060 C.3    80  THR80       0.0379
     26  N        -20.8000   24.5100   -1.1450 N.am   81  LEU81      -0.1977
     27  CA       -20.4860   23.4430   -2.0980 C.3    81  LEU81       0.1596
     28  C        -21.5110   22.3020   -2.0980 C.2    81  LEU81       0.2287
     29  O        -21.2350   21.2190   -2.6060 O.2    81  LEU81      -0.2864
     30  CB       -19.0360   22.9320   -1.9740 C.3    81  LEU81       0.0297
     31  CG       -18.0460   23.8080   -2.7370 C.3    81  LEU81       0.0022
     32  CD1      -17.9490   25.2190   -2.2070 C.3    81  LEU81       0.0001
     33  CD2      -16.6760   23.2010   -2.7740 C.3    81  LEU81       0.0001
     34  N        -20.4570   21.1240   10.9000 N.3   154  GLY154     -0.1210
     35  CA       -21.2400   22.1850   10.3070 C.3   154  GLY154      0.1956
     36  C        -21.1310   22.2970    8.7950 C.2   154  GLY154      0.2611
     37  O        -21.6910   23.2470    8.2470 O.2   154  GLY154     -0.2717
     38  N        -20.4360   21.3700    8.1200 N.am  155  GLN155     -0.1979
     39  CA       -20.1820   21.5180    6.6700 C.3   155  GLN155      0.1601
     40  C        -20.5120   20.3300    5.7680 C.2   155  GLN155      0.2287
     41  O        -20.5050   20.4640    4.5470 O.2   155  GLN155     -0.2864
     42  CB       -18.7400   21.9640    6.4250 C.3   155  GLN155      0.0394
     43  CG       -18.3520   23.2710    7.0950 C.3   155  GLN155      0.0908
     44  CD       -16.9310   23.5850    6.7160 C.2   155  GLN155      0.2608
     45  OE1      -16.6780   24.2110    5.6960 O.2   155  GLN155     -0.2717
     46  NE2      -15.9800   23.0560    7.4860 N.am  155  GLN155     -0.0878
     47  N         -4.1360   12.1650   -0.2790 N.3   171  ASP171     -0.1225
     48  CA        -5.3700   12.9280   -0.4890 C.3   171  ASP171      0.1805
     49  C         -5.3710   13.4480   -1.9300 C.2   171  ASP171      0.2598
     50  O         -4.3430   13.4240   -2.6270 O.2   171  ASP171     -0.2718
     51  CB        -5.3770   14.1050    0.4950 C.3   171  ASP171      0.1424
     52  CG        -6.7400   14.7370    0.7250 C.2   171  ASP171      0.3668
     53  OD1       -7.7850   14.2680    0.2050 O.co2 171  ASP171     -0.2456
     54  OD2       -6.7520   15.7590    1.4840 O.co2 171  ASP171     -0.2456
     55  N         -6.5330   13.9220   -2.3790 N.am  172  SER172     -0.1938
     56  CA        -6.5880   14.7650   -3.5750 C.3   172  SER172      0.2055
     57  C         -6.3210   16.2280   -3.1650 C.2   172  SER172      0.2643
     58  O         -6.1820   16.5360   -1.9660 O.2   172  SER172     -0.2714
     59  CB        -7.9260   14.6210   -4.2960 C.3   172  SER172      0.2130
     60  OG        -9.0230   14.9860   -3.4690 O.3   172  SER172     -0.2179
     61  N         -6.2420   17.1230   -4.1470 N.am  173  CYS173     -0.1953
     62  CA        -5.8090   18.4740   -3.8530 C.3   173  CYS173      0.1843
     63  C         -6.2760   19.4150   -4.9760 C.2   173  CYS173      0.2625
     64  O         -6.9120   18.9930   -5.9520 O.2   173  CYS173     -0.2714
     65  CB        -4.2770   18.5000   -3.6450 C.3   173  CYS173      0.0997
     66  SG        -3.6350   19.9720   -2.7810 S.3   173  CYS173     -0.0797
     67  N         -5.9880   20.7000   -4.8310 N.am  174  GLN174     -0.1977
     68  CA        -6.3060   21.6680   -5.8760 C.3   174  GLN174      0.1601
     69  C         -5.8060   21.1820   -7.2310 C.2   174  GLN174      0.2287
     70  O         -4.6990   20.6270   -7.3480 O.2   174  GLN174     -0.2864
     71  CB        -5.7100   23.0560   -5.5620 C.3   174  GLN174      0.0394
     72  CG        -6.5390   23.9070   -4.5790 C.3   174  GLN174      0.0908
     73  CD        -6.5380   23.3780   -3.1570 C.2   174  GLN174      0.2608
     74  OE1       -5.5300   22.8570   -2.6660 O.2   174  GLN174     -0.2717
     75  NE2       -7.6790   23.5020   -2.4840 N.am  174  GLN174     -0.0878
     76  N         -9.8620   18.8440   -8.6420 N.3   177  SER177     -0.1217
     77  CA       -11.2660   19.2710   -8.7050 C.3   177  SER177      0.1889
     78  C        -12.0130   18.7310   -9.8930 C.2   177  SER177      0.2288
     79  O        -11.5410   18.8760  -11.0190 O.2   177  SER177     -0.2866
     80  CB       -11.3060   20.7920   -8.8570 C.3   177  SER177      0.2089
     81  OG       -11.0130   21.4560   -7.6410 O.3   177  SER177     -0.2183
     82  N        -14.2250   14.9490   -7.0780 N.3   191  VAL191     -0.1231
     83  CA       -13.3430   15.7360   -6.2120 C.3   191  VAL191      0.1692
     84  C        -13.9750   17.0960   -5.9840 C.2   191  VAL191      0.2593
     85  O        -14.1640   17.8580   -6.9330 O.2   191  VAL191     -0.2718
     86  CB       -11.9430   15.8650   -6.8230 C.3   191  VAL191      0.0266
     87  CG1      -11.0690   16.7380   -5.9140 C.3   191  VAL191      0.0020
     88  CG2      -11.2840   14.4930   -7.0800 C.3   191  VAL191      0.0020
     89  N        -14.2690   17.4130   -4.7180 N.am  192  SER192     -0.1938
     90  CA       -15.0170   18.6240   -4.3820 C.3   192  SER192      0.2055
     91  C        -14.2350   19.5940   -3.4820 C.2   192  SER192      0.2643
     92  O        -13.8570   20.6630   -3.9400 O.2   192  SER192     -0.2714
     93  CB       -16.3830   18.2360   -3.8030 C.3   192  SER192      0.2130
     94  OG       -17.1850   19.3760   -3.5260 O.3   192  SER192     -0.2179
     95  N        -13.9550   19.2460   -2.2260 N.am  193  TRP193     -0.1959
     96  CA       -13.3240   20.2280   -1.3300 C.3   193  TRP193      0.1771
     97  C        -12.5990   19.5470   -0.1820 C.2   193  TRP193      0.2620
     98  O        -12.5740   18.3080   -0.0750 O.2   193  TRP193     -0.2715
     99  CB       -14.3560   21.2370   -0.8320 C.3   193  TRP193      0.0590
    100  CG       -15.4650   20.7380    0.0310 C.ar  193  TRP193      0.0006
    101  CD1      -16.6800   20.2420   -0.3770 C.ar  193  TRP193      0.0946
    102  CD2      -15.5190   20.7720    1.4650 C.ar  193  TRP193      0.0152
    103  NE1      -17.4840   19.9720    0.7110 N.ar  193  TRP193     -0.2442
    104  CE2      -16.7820   20.2700    1.8540 C.ar  193  TRP193      0.0810
    105  CE3      -14.6240   21.1910    2.4670 C.ar  193  TRP193      0.0012
    106  CZ2      -17.1640   20.1730    3.1970 C.ar  193  TRP193      0.0191
    107  CZ3      -15.0080   21.0670    3.8090 C.ar  193  TRP193      0.0001
    108  CH2      -16.2490   20.5510    4.1500 C.ar  193  TRP193      0.0015
    109  N        -12.0030   20.3600    0.6710 N.am  194  GLY194     -0.1940
    110  CA       -11.3440   19.8700    1.8700 C.3   194  GLY194      0.2014
    111  C        -10.5670   21.0060    2.4850 C.2   194  GLY194      0.2640
    112  O        -10.4070   22.0420    1.8680 O.2   194  GLY194     -0.2714
    113  N        -10.0800   20.8100    3.7010 N.am  195  SER195     -0.1935
    114  CA        -9.2400   21.8100    4.3590 C.3   195  SER195      0.2055
    115  C         -7.7760   21.4580    4.1000 C.2   195  SER195      0.2644
    116  O         -7.2990   20.4130    4.5510 O.2   195  SER195     -0.2714
    117  CB        -9.5140   21.8690    5.8660 C.3   195  SER195      0.2130
    118  OG        -8.6170   22.7760    6.4780 O.3   195  SER195     -0.2179
    119  N         -7.0660   22.3230    3.3720 N.am  196  GLY196     -0.1939
    120  CA        -5.7230   22.0000    2.9160 C.3   196  GLY196      0.2014
    121  C         -5.7480   20.7560    2.0420 C.2   196  GLY196      0.2639
    122  O         -6.7400   20.4690    1.3700 O.2   196  GLY196     -0.2714
    123  N         -4.6420   20.0150    2.0530 N.am  197  CYS197     -0.1967
    124  CA        -4.5440   18.7490    1.3560 C.3   197  CYS197      0.1712
    125  C         -3.6950   17.8280    2.1910 C.2   197  CYS197      0.2296
    126  O         -2.6130   18.2190    2.6240 O.2   197  CYS197     -0.2864
    127  CB        -3.8910   18.8980   -0.0250 C.3   197  CYS197      0.0983
    128  SG        -4.7610   20.0620   -1.0830 S.3   197  CYS197     -0.0798
    129  N         -8.2850   15.8920    8.2760 N.3   202  LYS202     -0.1245
    130  CA        -8.9490   16.7150    7.2740 C.3   202  LYS202      0.1561
    131  C         -8.9910   15.9300    5.9620 C.2   202  LYS202      0.2260
    132  O         -8.2550   16.2170    5.0280 O.2   202  LYS202     -0.2867
    133  CB        -8.1910   18.0390    7.1050 C.3   202  LYS202      0.0271
    134  CG        -8.2130   18.8550    8.3670 C.3   202  LYS202      0.0035
    135  CD        -7.2310   19.9910    8.2920 C.3   202  LYS202      0.0206
    136  CE        -7.3620   20.9670    9.4610 C.3   202  LYS202      0.1093
    137  NZ        -6.2410   21.9320    9.4760 N.3   202  LYS202     -0.1314
    138  N        -10.4420   14.1960    2.3230 N.3   204  GLY204     -0.1210
    139  CA       -11.0890   14.7730    1.1560 C.3   204  GLY204      0.1956
    140  C        -12.5960   14.6460    1.2550 C.2   204  GLY204      0.2612
    141  O        -13.1120   13.6480    1.7810 O.2   204  GLY204     -0.2717
    142  N        -13.2930   15.6610    0.7410 N.am  205  VAL205     -0.1965
    143  CA       -14.7440   15.6590    0.6290 C.3   205  VAL205      0.1727
    144  C        -15.1440   15.5900   -0.8580 C.2   205  VAL205      0.2616
    145  O        -14.5950   16.3170   -1.6970 O.2   205  VAL205     -0.2715
    146  CB       -15.4140   16.8640    1.3360 C.3   205  VAL205      0.0290
    147  CG1      -16.9000   16.6240    1.4100 C.3   205  VAL205      0.0023
    148  CG2      -14.8400   17.0860    2.7250 C.3   205  VAL205      0.0023
    149  N        -16.1080   14.7180   -1.1510 N.am  206  TYR206     -0.1974
    150  CA       -16.4610   14.3300   -2.5060 C.3   206  TYR206      0.1639
    151  C        -17.9450   14.4220   -2.7110 C.2   206  TYR206      0.2290
    152  O        -18.7330   14.0900   -1.8210 O.2   206  TYR206     -0.2864
    153  CB       -15.9780   12.8770   -2.7480 C.3   206  TYR206      0.0560
    154  CG       -14.4680   12.8020   -2.6040 C.ar  206  TYR206     -0.0198
    155  CD1      -13.6460   13.1870   -3.6520 C.ar  206  TYR206     -0.0009
    156  CD2      -13.8640   12.4350   -1.3990 C.ar  206  TYR206     -0.0009
    157  CE1      -12.2690   13.1830   -3.5270 C.ar  206  TYR206      0.0417
    158  CE2      -12.4750   12.4110   -1.2790 C.ar  206  TYR206      0.0417
    159  CZ       -11.6960   12.8080   -2.3440 C.ar  206  TYR206      0.1957
    160  OH       -10.3240   12.8370   -2.2480 O.3   206  TYR206     -0.2866
@<TRIPOS>BOND
     1    79    78    2
     2     3     4    2
     3     3     2    1
     4    78    77    1
     5     1     2    1
     6    80    77    1
     7    80    81    1
     8     2     5    1
     9    77    76    1
    10     8     6   ar
    11     8    10   ar
    12     5     6    1
    13    70    69    2
    14     6     7   ar
    15    10     9   ar
    16    69    68    1
    17    88    86    1
    18    82    83    1
    19    85    84    2
    20     9     7   ar
    21    86    83    1
    22    86    87    1
    23    83    84    1
    24    84    89   am
    25    64    63    2
    26    68    71    1
    27    68    67    1
    28    71    72    1
    29    63    67   am
    30    63    62    1
    31    89    90    1
    32    72    73    1
    33    90    93    1
    34    90    91    1
    35    59    56    1
    36    59    60    1
    37    61    62    1
    38    61    57   am
    39    92    91    2
    40    62    65    1
    41    93    94    1
    42   155   157   ar
    43   155   154   ar
    44    65    66    1
    45    56    57    1
    46    56    55    1
    47   157   159   ar
    48    91    95   am
    49    57    58    2
    50    73    74    2
    51    73    75   am
    52    66   128    1
    53    33    31    1
    54   153   154    1
    55   153   150    1
    56    31    32    1
    57    31    30    1
    58   151   150    1
    59   151   152    2
    60    50    49    2
    61    29    28    2
    62   154   156   ar
    63   150   149    1
    64    55    49   am
    65   159   160    1
    66   159   158   ar
    67    95    96    1
    68    27    28    1
    69    27    30    1
    70    27    26    1
    71    49    48    1
    72    11    12    1
    73   145   144    2
    74   156   158   ar
    75    96    99    1
    76    96    97    1
    77   149   144   am
    78    26    21   am
    79   128   127    1
    80   144   143    1
    81    99   100    1
    82    17    16    2
    83    18    16   am
    84    48    47    1
    85    48    51    1
    86    12    15    1
    87    12    13    1
    88   101   100   ar
    89   101   103   ar
    90    16    15    1
    91    97    98    2
    92    97   109   am
    93   127   124    1
    94   100   102   ar
    95    19    13   am
    96    19    20    1
    97    21    22    2
    98    21    20    1
    99    53    52   ar
   100    13    14    2
   101    24    23    1
   102    51    52    1
   103   143   142    1
   104   143   146    1
   105   109   110    1
   106   103   104   ar
   107    52    54   ar
   108   142   140   am
   109    20    23    1
   110   139   140    1
   111   139   138    1
   112   140   141    2
   113   146   147    1
   114   146   148    1
   115   124   123    1
   116   124   125    1
   117   122   121    2
   118   102   104   ar
   119   102   105   ar
   120    23    25    1
   121   104   106   ar
   122   112   111    2
   123   110   111    1
   124   121   123   am
   125   121   120    1
   126   125   126    2
   127   105   107   ar
   128   111   113   am
   129   120   119    1
   130   106   108   ar
   131   119   115   am
   132   113   114    1
   133   107   108   ar
   134   115   114    1
   135   115   116    2
   136   114   117    1
   137    41    40    2
   138   132   131    2
   139    45    44    2
   140    40    39    1
   141   117   118    1
   142   131   130    1
   143    42    39    1
   144    42    43    1
   145    39    38    1
   146    44    43    1
   147    44    46   am
   148   133   130    1
   149   133   134    1
   150   130   129    1
   151    38    36   am
   152    37    36    2
   153   135   134    1
   154   135   136    1
   155    36    35    1
   156   136   137    1
   157    35    34    1
