@<TRIPOS>MOLECULE
tmp/4mtlB00.pdb
 187 183 0 0 0
SMALL
GASTEIGER

@<TRIPOS>ATOM
      1  N          4.3590   18.9070   10.5640 N.3    45  ALA45      -0.1231
      2  CA         5.7610   19.1360   10.8900 C.3    45  ALA45       0.1694
      3  C          6.3170   20.4890   10.4660 C.2    45  ALA45       0.2592
      4  O          5.9240   21.0590    9.4270 O.2    45  ALA45      -0.2718
      5  CB         6.5730   18.0760   10.2660 C.3    45  ALA45       0.0304
      6  N          7.2590   20.9700   11.2660 N.am   46  VAL46      -0.1966
      7  CA         7.9530   22.2570   10.9820 C.3    46  VAL46       0.1727
      8  C          9.4200   22.1350   11.2530 C.2    46  VAL46       0.2616
      9  O          9.8730   21.2030   11.9520 O.2    46  VAL46      -0.2715
     10  CB         7.4160   23.4740   11.7840 C.3    46  VAL46       0.0290
     11  CG1        5.9700   23.6590   11.5690 C.3    46  VAL46       0.0023
     12  CG2        7.7140   23.3550   13.2890 C.3    46  VAL46       0.0023
     13  N         10.1650   23.0890   10.6850 N.am   47  VAL47      -0.1963
     14  CA        11.5980   23.2170   10.8940 C.3    47  VAL47       0.1727
     15  C         11.8160   23.9780   12.2190 C.2    47  VAL47       0.2616
     16  O         11.2610   25.0440   12.4070 O.2    47  VAL47      -0.2715
     17  CB        12.2670   23.9440    9.7170 C.3    47  VAL47       0.0290
     18  CG1       13.7370   24.2720   10.0170 C.3    47  VAL47       0.0023
     19  CG2       12.2100   23.0750    8.4660 C.3    47  VAL47       0.0023
     20  N         12.6470   23.4250   13.0680 N.am   48  TRP48      -0.1974
     21  CA        12.9820   23.9970   14.3850 C.3    48  TRP48       0.1640
     22  C         14.3490   24.7330   14.2980 C.2    48  TRP48       0.2290
     23  O         15.1970   24.4630   13.4330 O.2    48  TRP48      -0.2864
     24  CB        13.0200   22.8460   15.4090 C.3    48  TRP48       0.0576
     25  CG        11.7050   22.3050   15.7570 C.ar   48  TRP48       0.0006
     26  CD1       10.8410   21.6360   14.9330 C.ar   48  TRP48       0.0946
     27  CD2       11.0800   22.3650   17.0170 C.ar   48  TRP48       0.0152
     28  NE1        9.6840   21.3320   15.6200 N.ar   48  TRP48      -0.2442
     29  CE2        9.8360   21.7240   16.9110 C.ar   48  TRP48       0.0810
     30  CE3       11.4640   22.8720   18.2620 C.ar   48  TRP48       0.0012
     31  CZ2        8.9650   21.6210   17.9930 C.ar   48  TRP48       0.0191
     32  CZ3       10.5990   22.7690   19.3210 C.ar   48  TRP48       0.0001
     33  CH2        9.3730   22.1590   19.1910 C.ar   48  TRP48       0.0015
     34  N         17.6830   22.7710   13.8020 N.3    51  ALA51      -0.1245
     35  CA        18.0070   22.4470   12.3890 C.3    51  ALA51       0.1562
     36  C         18.7910   23.5290   11.6620 C.2    51  ALA51       0.2260
     37  O         19.7480   23.2300   10.9600 O.2    51  ALA51      -0.2867
     38  CB        16.7560   22.1190   11.6140 C.3    51  ALA51       0.0290
     39  N         19.6580   10.3160   10.7940 N.3    74  GLU74      -0.1245
     40  CA        19.0810   11.4280   11.5440 C.3    74  GLU74       0.1567
     41  C         17.9170   10.9210   12.3560 C.2    74  GLU74       0.2260
     42  O         17.0130   10.2760   11.8100 O.2    74  GLU74      -0.2867
     43  CB        18.6730   12.6080   10.6630 C.3    74  GLU74       0.0388
     44  CG        18.1920   13.7730   11.5150 C.3    74  GLU74       0.1160
     45  CD        17.7810   15.0040   10.7710 C.2    74  GLU74       0.3649
     46  OE1       17.6770   14.9760    9.5080 O.co2  74  GLU74      -0.2457
     47  OE2       17.4730   16.0100   11.4670 O.co2  74  GLU74      -0.2457
     48  N         14.6320   11.8760   14.7300 N.3    76  GLY76      -0.1210
     49  CA        13.7050   13.0250   14.8630 C.3    76  GLY76       0.1956
     50  C         13.8940   14.0290   13.7560 C.2    76  GLY76       0.2612
     51  O         13.8870   15.2210   14.0120 O.2    76  GLY76      -0.2717
     52  N         14.0000   13.5230   12.5170 N.am   77  ALA77      -0.1965
     53  CA        14.3210   14.3450   11.3310 C.3    77  ALA77       0.1728
     54  C         13.2750   15.4200   10.9850 C.2    77  ALA77       0.2617
     55  O         13.5940   16.4550   10.3060 O.2    77  ALA77      -0.2715
     56  CB        14.5820   13.4770   10.1490 C.3    77  ALA77       0.0334
     57  N         12.0320   15.2330   11.4310 N.am   78  GLY78      -0.1941
     58  CA        11.0030   16.2320   11.1870 C.3    78  GLY78       0.1998
     59  C         10.7770   16.3660    9.6770 C.2    78  GLY78       0.2480
     60  O         10.7780   15.3910    8.9610 O.2    78  GLY78      -0.2729
     61  N         10.6530   17.6130    9.1990 N.am   79  PRO79      -0.2726
     62  CA        10.3940   17.8460    7.7540 C.3    79  PRO79       0.1402
     63  C         11.5850   17.5340    6.8690 C.2    79  PRO79       0.2269
     64  O         11.4340   17.4390    5.6500 O.2    79  PRO79      -0.2865
     65  CB         9.9760   19.2970    7.6780 C.3    79  PRO79       0.0296
     66  CG        10.3520   19.9280    8.9390 C.3    79  PRO79       0.0237
     67  CD        10.6560   18.8580    9.9810 C.3    79  PRO79       0.0939
     68  N         15.0180   19.0730    6.8580 N.3    81  LEU81      -0.1231
     69  CA        16.0310   20.0050    6.3690 C.3    81  LEU81       0.1693
     70  C         17.4790   19.5170    6.5620 C.2    81  LEU81       0.2591
     71  O         18.3060   19.6100    5.6510 O.2    81  LEU81      -0.2718
     72  CB        15.8430   21.3970    6.9920 C.3    81  LEU81       0.0284
     73  CG        16.7860   22.5050    6.5840 C.3    81  LEU81       0.0019
     74  CD1       16.6400   22.8350    5.1090 C.3    81  LEU81       0.0001
     75  CD2       16.5100   23.7430    7.4500 C.3    81  LEU81       0.0001
     76  N         17.7970   19.0140    7.7490 N.am   82  VAL82      -0.1980
     77  CA        19.1510   18.5520    8.0290 C.3    82  VAL82       0.1595
     78  C         19.5360   17.3730    7.0860 C.2    82  VAL82       0.2287
     79  O         20.6250   17.3120    6.5760 O.2    82  VAL82      -0.2864
     80  CB        19.2600   18.1400    9.5090 C.3    82  VAL82       0.0276
     81  CG1       20.5000   17.3370    9.7530 C.3    82  VAL82       0.0022
     82  CG2       19.2490   19.3910   10.4240 C.3    82  VAL82       0.0022
     83  N         11.8630    9.1970   11.9180 N.3    97  ASP97      -0.1225
     84  CA        10.9150    9.8730   12.7750 C.3    97  ASP97       0.1805
     85  C          9.7220    8.9640   13.0850 C.2    97  ASP97       0.2597
     86  O          9.7370    7.7590   12.8020 O.2    97  ASP97      -0.2718
     87  CB        10.4700   11.2520   12.1570 C.3    97  ASP97       0.1424
     88  CG        10.1640   12.3180   13.2150 C.2    97  ASP97       0.3668
     89  OD1        9.1410   12.1640   13.9640 O.co2  97  ASP97      -0.2456
     90  OD2       10.9070   13.3480   13.2650 O.co2  97  ASP97      -0.2456
     91  N          8.6960    9.5490   13.6720 N.am   98  LEU98      -0.1979
     92  CA         7.4120    8.9100   14.0060 C.3    98  LEU98       0.1596
     93  C          6.5850    8.7830   12.7160 C.2    98  LEU98       0.2287
     94  O          6.8300    9.5160   11.7540 O.2    98  LEU98      -0.2864
     95  CB         6.6620    9.7700   15.0030 C.3    98  LEU98       0.0297
     96  CG         7.3130    9.9470   16.3690 C.3    98  LEU98       0.0022
     97  CD1        6.5260   10.8930   17.2190 C.3    98  LEU98       0.0001
     98  CD2        7.4580    8.5700   17.0280 C.3    98  LEU98       0.0001
     99  N          5.1800   11.6660   10.3030 N.3   101  VAL101     -0.1245
    100  CA         6.1990   12.6300    9.7910 C.3   101  VAL101      0.1561
    101  C          6.8240   12.1310    8.4900 C.2   101  VAL101      0.2260
    102  O          7.2920   12.9580    7.6590 O.2   101  VAL101     -0.2867
    103  CB         7.2580   12.8790   10.8760 C.3   101  VAL101      0.0252
    104  CG1        8.4630   13.6390   10.3260 C.3   101  VAL101      0.0019
    105  CG2        6.6150   13.6010   12.0760 C.3   101  VAL101      0.0019
    106  N         11.6120    5.3000   13.0390 N.3   126  LEU126     -0.1231
    107  CA        12.4150    4.9220   14.1990 C.3   126  LEU126      0.1693
    108  C         11.7890    5.6190   15.4080 C.2   126  LEU126      0.2592
    109  O         11.9310    6.8350   15.5990 O.2   126  LEU126     -0.2718
    110  CB        13.8860    5.2740   14.0170 C.3   126  LEU126      0.0284
    111  CG        14.8310    4.6190   15.0430 C.3   126  LEU126      0.0019
    112  CD1       16.2970    4.7640   14.5900 C.3   126  LEU126      0.0001
    113  CD2       14.6800    5.1900   16.4440 C.3   126  LEU126      0.0001
    114  N         11.0500    4.8370   16.1890 N.am  127  VAL127     -0.1966
    115  CA        10.4280    5.3080   17.4400 C.3   127  VAL127      0.1727
    116  C         11.4520    5.0970   18.5030 C.2   127  VAL127      0.2616
    117  O         11.9680    3.9790   18.6730 O.2   127  VAL127     -0.2715
    118  CB         9.0960    4.5480   17.7480 C.3   127  VAL127      0.0290
    119  CG1        8.4570    5.0820   19.0540 C.3   127  VAL127      0.0023
    120  CG2        8.1170    4.6540   16.5660 C.3   127  VAL127      0.0023
    121  N         11.8130    6.1420   19.2160 N.am  128  TRP128     -0.1974
    122  CA        12.9350    6.0440   20.1610 C.3   128  TRP128      0.1640
    123  C         12.7550    4.9250   21.1670 C.2   128  TRP128      0.2290
    124  O         11.6970    4.7210   21.7540 O.2   128  TRP128     -0.2864
    125  CB        13.2560    7.3530   20.8620 C.3   128  TRP128      0.0576
    126  CG        13.4780    8.4680   19.9190 C.ar  128  TRP128      0.0006
    127  CD1       13.8850    8.3960   18.5940 C.ar  128  TRP128      0.0946
    128  CD2       13.2610    9.8310   20.1850 C.ar  128  TRP128      0.0152
    129  NE1       13.9370    9.6380   18.0420 N.ar  128  TRP128     -0.2442
    130  CE2       13.5620   10.5500   18.9880 C.ar  128  TRP128      0.0810
    131  CE3       12.8320   10.5360   21.3030 C.ar  128  TRP128      0.0012
    132  CZ2       13.4130   11.9300   18.8890 C.ar  128  TRP128      0.0191
    133  CZ3       12.7070   11.9570   21.1940 C.ar  128  TRP128      0.0001
    134  CH2       12.9920   12.6130   20.0280 C.ar  128  TRP128      0.0015
    135  N         18.5960   17.2930   15.8490 N.3   149  SER149     -0.1202
    136  CA        18.3800   18.7290   16.1000 C.3   149  SER149      0.2020
    137  C         17.0530   18.9660   16.7670 C.2   149  SER149      0.2619
    138  O         15.9690   18.4870   16.2770 O.2   149  SER149     -0.2717
    139  CB        18.5400   19.5350   14.8150 C.3   149  SER149      0.2103
    140  OG        17.5870   19.2370   13.8120 O.3   149  SER149     -0.2182
    141  N         17.1010   19.6260   17.9250 N.am  150  ASP150     -0.1959
    142  CA        15.8780   19.9550   18.6910 C.3   150  ASP150      0.1840
    143  C         15.0060   18.7080   18.9670 C.2   150  ASP150      0.2621
    144  O         13.8040   18.7400   18.9170 O.2   150  ASP150     -0.2715
    145  CB        15.1090   21.0970   18.0210 C.3   150  ASP150      0.1450
    146  CG        15.4730   22.4680   18.5970 C.2   150  ASP150      0.3671
    147  OD1       16.0020   22.5130   19.7320 O.co2 150  ASP150     -0.2456
    148  OD2       15.1990   23.5070   17.9460 O.co2 150  ASP150     -0.2456
    149  N         15.6910   17.5980   19.2770 N.am  151  VAL151     -0.1977
    150  CA        15.0520   16.3790   19.6790 C.3   151  VAL151      0.1596
    151  C         14.8320   16.3690   21.2080 C.2   151  VAL151      0.2287
    152  O         14.1430   15.4970   21.6900 O.2   151  VAL151     -0.2864
    153  CB        15.8750   15.1230   19.2410 C.3   151  VAL151      0.0276
    154  CG1       15.7570   14.9190   17.7270 C.3   151  VAL151      0.0022
    155  CG2       17.3130   15.1920   19.6600 C.3   151  VAL151      0.0022
    156  N          8.8160   14.9080   25.5130 N.3   156  TYR156     -0.1227
    157  CA         9.2580   13.6800   24.7970 C.3   156  TYR156      0.1736
    158  C          9.7520   12.6420   25.8350 C.2   156  TYR156      0.2595
    159  O          9.9520   12.9300   27.0520 O.2   156  TYR156     -0.2718
    160  CB        10.3630   13.9490   23.7690 C.3   156  TYR156      0.0548
    161  CG        10.0510   14.9410   22.6720 C.ar  156  TYR156     -0.0200
    162  CD1        8.7300   15.2660   22.3340 C.ar  156  TYR156     -0.0009
    163  CD2       11.1050   15.6000   21.9800 C.ar  156  TYR156     -0.0009
    164  CE1        8.4590   16.2170   21.3600 C.ar  156  TYR156      0.0417
    165  CE2       10.8380   16.5560   20.9780 C.ar  156  TYR156      0.0417
    166  CZ         9.5290   16.8890   20.7070 C.ar  156  TYR156      0.1957
    167  OH         9.2560   17.8690   19.7500 O.3   156  TYR156     -0.2866
    168  N          9.9300   11.4210   25.3330 N.am  157  PHE157     -0.1976
    169  CA        10.4650   10.3340   26.1610 C.3   157  PHE157      0.1639
    170  C         11.9850   10.3680   26.1090 C.2   157  PHE157      0.2290
    171  O         12.6260    9.8030   25.2040 O.2   157  PHE157     -0.2864
    172  CB         9.8940    8.9910   25.7160 C.3   157  PHE157      0.0560
    173  CG         8.3770    8.8890   25.8860 C.ar  157  PHE157     -0.0200
    174  CD1        7.8230    8.9280   27.1330 C.ar  157  PHE157     -0.0042
    175  CD2        7.5540    8.7890   24.7950 C.ar  157  PHE157     -0.0042
    176  CE1        6.4200    8.8530   27.3050 C.ar  157  PHE157     -0.0003
    177  CE2        6.1490    8.6940   24.9390 C.ar  157  PHE157     -0.0003
    178  CZ         5.5950    8.7530   26.1860 C.ar  157  PHE157     -0.0000
    179  N         14.3160    7.3240   26.5580 N.3   160  LYS160     -0.1245
    180  CA        14.2520    6.5610   25.3170 C.3   160  LYS160      0.1561
    181  C         15.1050    7.2250   24.2440 C.2   160  LYS160      0.2260
    182  O         15.8010    6.5550   23.4840 O.2   160  LYS160     -0.2867
    183  CB        12.7840    6.3450   24.8810 C.3   160  LYS160      0.0271
    184  CG        11.9570    5.5840   25.9300 C.3   160  LYS160      0.0035
    185  CD        10.4820    5.5650   25.5820 C.3   160  LYS160      0.0206
    186  CE        10.0070    4.3090   24.8890 C.3   160  LYS160      0.1093
    187  NZ         8.5900    4.5630   24.4720 N.3   160  LYS160     -0.1314
@<TRIPOS>BOND
     1    74    73    1
     2    64    63    2
     3    71    70    2
     4    69    70    1
     5    69    68    1
     6    69    72    1
     7    70    76   am
     8    79    78    2
     9    73    72    1
    10    73    75    1
    11    63    62    1
    12    78    77    1
    13   102   101    2
    14    65    62    1
    15    65    66    1
    16    76    77    1
    17    62    61    1
    18    77    80    1
    19    19    17    1
    20   101   100    1
    21    66    67    1
    22    60    59    2
    23    61    59   am
    24    61    67    1
    25     4     3    2
    26    46    45   ar
    27    80    81    1
    28    80    82    1
    29    59    58    1
    30    17    18    1
    31    17    14    1
    32   100    99    1
    33   100   103    1
    34    56    53    1
    35     5     2    1
    36    55    54    2
    37   104   103    1
    38     3     2    1
    39     3     6   am
    40     1     2    1
    41    43    44    1
    42    43    40    1
    43    13    14    1
    44    13     8   am
    45    45    47   ar
    46    45    44    1
    47    39    40    1
    48   103   105    1
    49    14    15    1
    50    37    36    2
    51     7     8    1
    52     7     6    1
    53     7    10    1
    54    54    53    1
    55    54    57   am
    56    58    57    1
    57     8     9    2
    58    53    52    1
    59    40    41    1
    60    11    10    1
    61    38    35    1
    62    36    35    1
    63    94    93    2
    64    10    12    1
    65    42    41    2
    66    83    84    1
    67    87    84    1
    68    87    88    1
    69    15    16    2
    70    15    20   am
    71    35    34    1
    72    52    50   am
    73    93    92    1
    74    84    85    1
    75    86    85    2
    76   106   107    1
    77    20    21    1
    78    85    91   am
    79    88    90   ar
    80    88    89   ar
    81    23    22    2
    82    91    92    1
    83    50    51    2
    84    50    49    1
    85   140   139    1
    86    92    95    1
    87   110   107    1
    88   110   111    1
    89   107   108    1
    90    22    21    1
    91    21    24    1
    92   112   111    1
    93    48    49    1
    94   139   136    1
    95    26    28   ar
    96    26    25   ar
    97    95    96    1
    98   111   113    1
    99   108   109    2
   100   108   114   am
   101    24    25    1
   102    28    29   ar
   103    25    27   ar
   104   135   136    1
   105   136   137    1
   106   114   115    1
   107   138   137    2
   108    96    98    1
   109    96    97    1
   110   120   118    1
   111   137   141   am
   112    29    27   ar
   113    29    31   ar
   114    27    30   ar
   115   115   118    1
   116   115   116    1
   117   154   153    1
   118   118   119    1
   119   141   142    1
   120   148   146   ar
   121    31    33   ar
   122   145   146    1
   123   145   142    1
   124   129   127   ar
   125   129   130   ar
   126    30    32   ar
   127   116   117    2
   128   116   121   am
   129   127   126   ar
   130   146   147   ar
   131   142   143    1
   132   132   130   ar
   133   132   134   ar
   134   144   143    2
   135   143   149   am
   136   130   128   ar
   137    33    32   ar
   138   121   122    1
   139   153   155    1
   140   153   150    1
   141   149   150    1
   142   150   151    1
   143   167   166    1
   144   126   128   ar
   145   126   125    1
   146   134   133   ar
   147   122   125    1
   148   122   123    1
   149   128   131   ar
   150   166   165   ar
   151   166   164   ar
   152   165   163   ar
   153   123   124    2
   154   133   131   ar
   155   151   152    2
   156   164   162   ar
   157   163   161   ar
   158   162   161   ar
   159   161   160    1
   160   182   181    2
   161   160   157    1
   162   181   180    1
   163   187   186    1
   164   175   177   ar
   165   175   173   ar
   166   157   156    1
   167   157   158    1
   168   183   180    1
   169   183   184    1
   170   186   185    1
   171   177   178   ar
   172   171   170    2
   173   180   179    1
   174   168   158   am
   175   168   169    1
   176   185   184    1
   177   172   173    1
   178   172   169    1
   179   158   159    2
   180   173   174   ar
   181   170   169    1
   182   178   176   ar
   183   174   176   ar
