@<TRIPOS>MOLECULE
tmp/4mttA00.pdb
 79 77 0 0 0
SMALL
GASTEIGER

@<TRIPOS>ATOM
      1  N         -2.7620  -23.9620    2.9480 N.3    68  GLN68      -0.1231
      2  CA        -2.3590  -24.2050    1.5640 C.3    68  GLN68       0.1698
      3  C         -2.3590  -25.7070    1.2820 C.2    68  GLN68       0.2593
      4  O         -1.9920  -26.5150    2.1340 O.2    68  GLN68      -0.2718
      5  CB        -0.9460  -23.6690    1.2950 C.3    68  GLN68       0.0381
      6  CG        -0.7550  -22.1740    1.5340 C.3    68  GLN68       0.0905
      7  CD        -1.2180  -21.3180    0.3880 C.2    68  GLN68       0.2608
      8  OE1       -1.9950  -21.7390   -0.4750 O.2    68  GLN68      -0.2717
      9  NE2       -0.7550  -20.0860    0.3590 N.am   68  GLN68      -0.0878
     10  N         -2.7510  -26.0600    0.0820 N.am   69  GLY69      -0.1942
     11  CA        -2.7270  -27.4380   -0.3810 C.3    69  GLY69       0.2014
     12  C         -1.7600  -27.5880   -1.5420 C.2    69  GLY69       0.2638
     13  O         -0.9000  -26.7270   -1.7580 O.2    69  GLY69      -0.2714
     14  N         -1.8990  -28.6630   -2.3060 N.am   70  ASP70      -0.1971
     15  CA        -1.0360  -28.8520   -3.4750 C.3    70  ASP70       0.1709
     16  C         -1.7840  -28.8650   -4.8200 C.2    70  ASP70       0.2293
     17  O         -1.2100  -29.2190   -5.8440 O.2    70  ASP70      -0.2864
     18  CB        -0.1330  -30.0780   -3.2940 C.3    70  ASP70       0.1436
     19  CG        -0.8700  -31.3860   -3.1420 C.2    70  ASP70       0.3671
     20  OD1       -0.2000  -32.4140   -2.9780 O.co2  70  ASP70      -0.2456
     21  OD2       -2.1360  -31.3790   -3.2140 O.co2  70  ASP70      -0.2456
     22  N         -3.7770  -26.0120   -6.1420 N.3    72  TYR72      -0.1227
     23  CA        -3.5220  -24.7170   -6.7820 C.3    72  TYR72       0.1736
     24  C         -2.0460  -24.6260   -7.0960 C.2    72  TYR72       0.2596
     25  O         -1.2070  -24.9990   -6.2710 O.2    72  TYR72      -0.2718
     26  CB        -3.9580  -23.5330   -5.8890 C.3    72  TYR72       0.0548
     27  CG        -3.5050  -22.2080   -6.4610 C.ar   72  TYR72      -0.0200
     28  CD1       -4.0450  -21.7210   -7.6460 C.ar   72  TYR72      -0.0009
     29  CD2       -2.4440  -21.5050   -5.8910 C.ar   72  TYR72      -0.0009
     30  CE1       -3.5960  -20.5340   -8.2140 C.ar   72  TYR72       0.0417
     31  CE2       -1.9750  -20.3160   -6.4600 C.ar   72  TYR72       0.0417
     32  CZ        -2.5680  -19.8260   -7.6140 C.ar   72  TYR72       0.1957
     33  OH        -2.1410  -18.6620   -8.2120 O.3    72  TYR72      -0.2866
     34  N         -1.7270  -24.1670   -8.2980 N.am   73  GLY73      -0.1957
     35  CA        -0.3380  -24.0850   -8.7110 C.3    73  GLY73       0.1869
     36  C          0.3320  -22.7520   -8.4860 C.2    73  GLY73       0.2309
     37  O          1.0440  -22.5690   -7.4970 O.2    73  GLY73      -0.2863
     38  N          7.4850  -16.3970   -3.8390 N.3   114  GLU114     -0.1245
     39  CA         6.4130  -16.7300   -2.9410 C.3   114  GLU114      0.1567
     40  C          5.9540  -15.4060   -2.3700 C.2   114  GLU114      0.2260
     41  O          6.7840  -14.5800   -1.9460 O.2   114  GLU114     -0.2867
     42  CB         6.8990  -17.6240   -1.7980 C.3   114  GLU114      0.0388
     43  CG         6.6280  -19.0950   -2.0240 C.3   114  GLU114      0.1160
     44  CD         6.8410  -19.9820   -0.8100 C.2   114  GLU114      0.3649
     45  OE1        6.7180  -19.4930    0.3380 O.co2 114  GLU114     -0.2457
     46  OE2        7.1000  -21.1890   -1.0160 O.co2 114  GLU114     -0.2457
     47  N          1.6870  -14.8690    1.7710 N.3   117  ASP117     -0.1225
     48  CA         0.8250  -15.9850    2.1550 C.3   117  ASP117      0.1805
     49  C          1.3370  -17.3640    1.7570 C.2   117  ASP117      0.2598
     50  O          0.7150  -18.3670    2.1240 O.2   117  ASP117     -0.2718
     51  CB        -0.5830  -15.7810    1.6050 C.3   117  ASP117      0.1424
     52  CG        -1.2500  -14.6560    2.3220 C.2   117  ASP117      0.3668
     53  OD1       -1.8870  -14.9190    3.3540 O.co2 117  ASP117     -0.2456
     54  OD2       -1.0610  -13.4980    1.9020 O.co2 117  ASP117     -0.2456
     55  N          2.4470  -17.4060    1.0250 N.am  118  GLY118     -0.1942
     56  CA         3.0160  -18.6590    0.5530 C.3   118  GLY118      0.2014
     57  C          2.6130  -19.0270   -0.8630 C.2   118  GLY118      0.2639
     58  O          3.1060  -20.0330   -1.3720 O.2   118  GLY118     -0.2714
     59  N          1.7680  -18.1870   -1.5500 N.am  119  TYR119     -0.1959
     60  CA         1.3670  -18.4410   -2.9500 C.3   119  TYR119      0.1771
     61  C          2.5440  -18.2920   -3.9040 C.2   119  TYR119      0.2619
     62  O          3.2900  -17.3220   -3.8040 O.2   119  TYR119     -0.2715
     63  CB         0.2100  -17.5280   -3.4180 C.3   119  TYR119      0.0574
     64  CG        -1.0860  -17.7510   -2.6790 C.ar  119  TYR119     -0.0198
     65  CD1       -1.8100  -18.9380   -2.8290 C.ar  119  TYR119     -0.0009
     66  CD2       -1.6120  -16.7660   -1.8500 C.ar  119  TYR119     -0.0009
     67  CE1       -3.0030  -19.1490   -2.1370 C.ar  119  TYR119      0.0417
     68  CE2       -2.7900  -16.9740   -1.1400 C.ar  119  TYR119      0.0417
     69  CZ        -3.4920  -18.1580   -1.2980 C.ar  119  TYR119      0.1957
     70  OH        -4.6760  -18.3150   -0.6270 O.3   119  TYR119     -0.2866
     71  N          2.6960  -19.2470   -4.8450 N.am  120  LYS120     -0.1977
     72  CA         3.7810  -19.2500   -5.8310 C.3   120  LYS120      0.1596
     73  C          3.5100  -18.2760   -6.9700 C.2   120  LYS120      0.2287
     74  O          2.4070  -18.2390   -7.5380 O.2   120  LYS120     -0.2864
     75  CB         3.9540  -20.6440   -6.4400 C.3   120  LYS120      0.0298
     76  CG         4.8680  -21.5840   -5.6770 C.3   120  LYS120      0.0038
     77  CD         5.3630  -22.6980   -6.6130 C.3   120  LYS120      0.0206
     78  CE         6.2870  -23.6870   -5.9410 C.3   120  LYS120      0.1093
     79  NZ         6.6880  -24.7830   -6.8680 N.3   120  LYS120     -0.1314
@<TRIPOS>BOND
     1    35    36    1
     2    35    34    1
     3    36    37    2
     4    34    24   am
     5    30    28   ar
     6    30    32   ar
     7    33    32    1
     8    28    27   ar
     9    32    31   ar
    10    74    73    2
    11    24    23    1
    12    24    25    2
    13    73    72    1
    14    79    78    1
    15    23    22    1
    16    23    26    1
    17    77    78    1
    18    77    76    1
    19    27    29   ar
    20    27    26    1
    21    31    29   ar
    22    75    72    1
    23    75    76    1
    24    17    16    2
    25    72    71    1
    26    71    61   am
    27    16    15    1
    28    61    62    2
    29    61    60    1
    30    38    39    1
    31    15    18    1
    32    15    14    1
    33    63    60    1
    34    63    64    1
    35    18    19    1
    36    21    19   ar
    37    19    20   ar
    38    60    59    1
    39    39    40    1
    40    39    42    1
    41    65    64   ar
    42    65    67   ar
    43    64    66   ar
    44    40    41    2
    45    14    12   am
    46    67    69   ar
    47    43    42    1
    48    43    44    1
    49    66    68   ar
    50    13    12    2
    51    59    57   am
    52    12    11    1
    53    58    57    2
    54    69    68   ar
    55    69    70    1
    56    46    44   ar
    57    57    56    1
    58    44    45   ar
    59     8     7    2
    60    11    10    1
    61    10     3   am
    62     9     7   am
    63     7     6    1
    64    56    55    1
    65    55    49   am
    66     3     2    1
    67     3     4    2
    68     5     6    1
    69     5     2    1
    70     2     1    1
    71    51    48    1
    72    51    52    1
    73    49    50    2
    74    49    48    1
    75    47    48    1
    76    54    52   ar
    77    52    53   ar
