@<TRIPOS>MOLECULE
tmp/4mtyA01.pdb
 104 109 0 0 0
SMALL
GASTEIGER

@<TRIPOS>ATOM
      1  N         13.4850    0.6630    5.9180 N.3     1  HIS1       -0.1226
      2  CA        12.6050   -0.3530    6.5670 C.3     1  HIS1        0.1752
      3  C         11.5220    0.3560    7.3540 C.2     1  HIS1        0.2596
      4  O         11.5940    1.5830    7.5560 O.2     1  HIS1       -0.2718
      5  CB        13.4110   -1.2790    7.4660 C.3     1  HIS1        0.0759
      6  CG        14.5070   -1.9930    6.7610 C.ar    1  HIS1        0.0818
      7  ND1       14.3470   -2.7430    5.6140 N.ar    1  HIS1       -0.2268
      8  CD2       15.8150   -2.0440    7.0820 C.ar    1  HIS1        0.1154
      9  CE1       15.5240   -3.2160    5.2430 C.ar    1  HIS1        0.1986
     10  NE2       16.4430   -2.7940    6.1100 N.ar    1  HIS1       -0.2212
     11  N         10.5040   -0.3790    7.7770 N.am    2  HIS2       -0.1961
     12  CA         9.4320    0.2220    8.4940 C.3     2  HIS2        0.1787
     13  C          8.8500   -0.8570    9.3820 C.2     2  HIS2        0.2620
     14  O          9.0160   -2.0640    9.1500 O.2     2  HIS2       -0.2715
     15  CB         8.3250    0.7110    7.5420 C.3     2  HIS2        0.0785
     16  CG         7.5600   -0.3770    6.8530 C.ar    2  HIS2        0.0821
     17  ND1        8.1570   -1.2020    5.9160 N.ar    2  HIS2       -0.2267
     18  CD2        6.2290   -0.6800    6.9430 C.ar    2  HIS2        0.1154
     19  CE1        7.1890   -1.9770    5.4420 C.ar    2  HIS2        0.1986
     20  NE2        6.0300   -1.6840    6.0410 N.ar    2  HIS2       -0.2212
     21  N          8.1340   -0.4290   10.4150 N.am    3  TRP3       -0.1974
     22  CA         7.4870   -1.3590   11.2920 C.3     3  TRP3        0.1640
     23  C          6.4810   -2.2130   10.5360 C.2     3  TRP3        0.2290
     24  O          5.8730   -1.7650    9.5540 O.2     3  TRP3       -0.2864
     25  CB         6.8130   -0.6260   12.4650 C.3     3  TRP3        0.0576
     26  CG         5.6000    0.1570   12.0940 C.ar    3  TRP3        0.0006
     27  CD1        5.5350    1.4920   11.7690 C.ar    3  TRP3        0.0946
     28  CD2        4.2490   -0.3370   12.0570 C.ar    3  TRP3        0.0152
     29  NE1        4.2250    1.8270   11.5080 N.ar    3  TRP3       -0.2442
     30  CE2        3.4170    0.7320   11.6950 C.ar    3  TRP3        0.0810
     31  CE3        3.6680   -1.5690   12.3430 C.ar    3  TRP3        0.0012
     32  CZ2        2.0370    0.5960   11.5570 C.ar    3  TRP3        0.0191
     33  CZ3        2.2950   -1.7180   12.2190 C.ar    3  TRP3        0.0001
     34  CH2        1.4990   -0.6240   11.8290 C.ar    3  TRP3        0.0015
     35  N         11.1580   -9.6710   11.2500 N.3     8  HIS8       -0.1226
     36  CA        12.2170   -8.7180   11.3240 C.3     8  HIS8        0.1752
     37  C         11.7050   -7.2970   11.6290 C.2     8  HIS8        0.2596
     38  O         12.5180   -6.4250   11.8370 O.2     8  HIS8       -0.2718
     39  CB        13.0070   -8.7490   10.0280 C.3     8  HIS8        0.0759
     40  CG        13.6200  -10.0820    9.8170 C.ar    8  HIS8        0.0818
     41  ND1       13.2510  -11.0080    8.8680 N.ar    8  HIS8       -0.2268
     42  CD2       14.5960  -10.6400   10.5300 C.ar    8  HIS8        0.1154
     43  CE1       14.0030  -12.0830    8.9930 C.ar    8  HIS8        0.1986
     44  NE2       14.8030  -11.8940   10.0260 N.ar    8  HIS8       -0.2212
     45  N         10.3990   -7.0850   11.6730 N.am    9  ASN9       -0.1974
     46  CA         9.8590   -5.7470   11.9020 C.3     9  ASN9        0.1688
     47  C          8.6360   -5.7370   12.7810 C.2     9  ASN9        0.2292
     48  O          7.9790   -4.7030   12.8970 O.2     9  ASN9       -0.2864
     49  CB         9.6020   -5.0070   10.5790 C.3     9  ASN9        0.1181
     50  CG         8.5450   -5.6220    9.7560 C.2     9  ASN9        0.2629
     51  OD1        8.0640   -6.7210   10.0380 O.2     9  ASN9       -0.2716
     52  ND2        8.1410   -4.8970    8.6800 N.am    9  ASN9       -0.0877
     53  N         10.0760   -5.6620   17.8940 N.3    13  HIS13      -0.1226
     54  CA        11.0200   -4.6580   17.4520 C.3    13  HIS13       0.1752
     55  C         10.5370   -3.2190   17.6520 C.2    13  HIS13       0.2596
     56  O         11.3460   -2.2950   17.5850 O.2    13  HIS13      -0.2718
     57  CB        11.3350   -4.8360   15.9610 C.3    13  HIS13       0.0759
     58  CG        12.1010   -6.0560   15.6310 C.ar   13  HIS13       0.0818
     59  ND1       13.4740   -6.0750   15.6540 N.ar   13  HIS13      -0.2268
     60  CD2       11.6820   -7.2500   15.2130 C.ar   13  HIS13       0.1154
     61  CE1       13.8750   -7.2460   15.2300 C.ar   13  HIS13       0.1986
     62  NE2       12.8200   -7.9960   14.9910 N.ar   13  HIS13      -0.2212
     63  N          9.2190   -3.0220   17.8370 N.am   14  TRP14      -0.1976
     64  CA         8.6460   -1.6970   17.7760 C.3    14  TRP14       0.1640
     65  C          9.2510   -0.7580   18.8040 C.2    14  TRP14       0.2290
     66  O          9.3880    0.4520   18.5360 O.2    14  TRP14      -0.2864
     67  CB         7.1210   -1.7390   17.9510 C.3    14  TRP14       0.0576
     68  CG         6.3960   -2.4590   16.8230 C.ar   14  TRP14       0.0006
     69  CD1        6.8950   -2.9190   15.6430 C.ar   14  TRP14       0.0946
     70  CD2        5.0110   -2.8130   16.8370 C.ar   14  TRP14       0.0152
     71  NE1        5.8960   -3.5000   14.9040 N.ar   14  TRP14      -0.2442
     72  CE2        4.7290   -3.4340   15.6110 C.ar   14  TRP14       0.0810
     73  CE3        3.9700   -2.6360   17.7560 C.ar   14  TRP14       0.0012
     74  CZ2        3.4520   -3.8720   15.2810 C.ar   14  TRP14       0.0191
     75  CZ3        2.7080   -3.0690   17.4290 C.ar   14  TRP14       0.0001
     76  CH2        2.4530   -3.6710   16.1850 C.ar   14  TRP14       0.0015
     77  N         12.1320   -0.1250   19.6750 N.3    16  LYS16      -0.1231
     78  CA        13.3900    0.5550   19.3060 C.3    16  LYS16       0.1693
     79  C         13.1680    1.9180   18.6570 C.2    16  LYS16       0.2592
     80  O         14.0180    2.7760   18.7470 O.2    16  LYS16      -0.2718
     81  CB        14.2350   -0.3420   18.4050 C.3    16  LYS16       0.0285
     82  CG        14.8070   -1.5370   19.1640 C.3    16  LYS16       0.0035
     83  CD        15.5790   -2.4960   18.2660 C.3    16  LYS16       0.0206
     84  CE        14.6670   -3.3750   17.5050 C.3    16  LYS16       0.1093
     85  NZ        15.3480   -4.1130   16.4260 N.3    16  LYS16      -0.1314
     86  N         12.0340    2.0880   17.9620 N.am   17  ASP17      -0.1960
     87  CA        11.6800    3.3770   17.3920 C.3    17  ASP17       0.1840
     88  C         10.5170    4.0460   18.1010 C.2    17  ASP17       0.2622
     89  O         10.3070    5.2580   17.9450 O.2    17  ASP17      -0.2715
     90  CB        11.4180    3.2790   15.8940 C.3    17  ASP17       0.1450
     91  CG        12.7160    2.9910   15.1520 C.2    17  ASP17       0.3671
     92  OD1       13.4610    3.9530   14.8410 O.co2  17  ASP17      -0.2456
     93  OD2       13.0560    1.8100   15.0110 O.co2  17  ASP17      -0.2456
     94  N          9.7500    3.2870   18.8870 N.am   18  PHE18      -0.1974
     95  CA         8.5630    3.7600   19.5930 C.3    18  PHE18       0.1639
     96  C          8.6970    3.2910   21.0200 C.2    18  PHE18       0.2290
     97  O          8.0470    2.3090   21.4060 O.2    18  PHE18      -0.2864
     98  CB         7.3050    3.2440   18.9190 C.3    18  PHE18       0.0560
     99  CG         7.2460    3.6010   17.4540 C.ar   18  PHE18      -0.0200
    100  CD1        6.7670    4.8550   17.0370 C.ar   18  PHE18      -0.0042
    101  CD2        7.7200    2.7360   16.4810 C.ar   18  PHE18      -0.0042
    102  CE1        6.8060    5.1970   15.6730 C.ar   18  PHE18      -0.0003
    103  CE2        7.7190    3.0910   15.1420 C.ar   18  PHE18      -0.0003
    104  CZ         7.2590    4.3010   14.7260 C.ar   18  PHE18      -0.0000
@<TRIPOS>BOND
     1     9     7   ar
     2     9    10   ar
     3    19    17   ar
     4    19    20   ar
     5     7     6   ar
     6    17    16   ar
     7     1     2    1
     8    20    18   ar
     9    10     8   ar
    10     2     3    1
    11     2     5    1
    12     6     8   ar
    13     6     5    1
    14    16    18   ar
    15    16    15    1
    16     3     4    2
    17     3    11   am
    18    15    12    1
    19    11    12    1
    20    12    13    1
    21    52    50   am
    22    41    43   ar
    23    41    40   ar
    24    43    44   ar
    25    14    13    2
    26    13    21   am
    27    24    23    2
    28    50    51    2
    29    50    49    1
    30    40    39    1
    31    40    42   ar
    32    44    42   ar
    33    39    36    1
    34    21    22    1
    35    23    22    1
    36    49    46    1
    37    35    36    1
    38    22    25    1
    39    36    37    1
    40    29    30   ar
    41    29    27   ar
    42    32    30   ar
    43    32    34   ar
    44    37    45   am
    45    37    38    2
    46    45    46    1
    47    30    28   ar
    48    27    26   ar
    49    34    33   ar
    50    46    47    1
    51    28    26   ar
    52    28    31   ar
    53    26    25    1
    54    33    31   ar
    55    47    48    2
    56   104   103   ar
    57   104   102   ar
    58    92    91   ar
    59    71    72   ar
    60    71    69   ar
    61    62    60   ar
    62    62    61   ar
    63    93    91   ar
    64   103   101   ar
    65    91    90    1
    66    60    58   ar
    67    61    59   ar
    68    74    72   ar
    69    74    76   ar
    70    72    70   ar
    71    58    59   ar
    72    58    57    1
    73    69    68   ar
    74   102   100   ar
    75    90    87    1
    76    57    54    1
    77    76    75   ar
    78    85    84    1
    79   101    99   ar
    80    68    70   ar
    81    68    67    1
    82    70    73   ar
    83   100    99   ar
    84    87    86    1
    85    87    88    1
    86    75    73   ar
    87    54    55    1
    88    54    53    1
    89    99    98    1
    90    84    83    1
    91    56    55    2
    92    55    63   am
    93    64    63    1
    94    64    67    1
    95    64    65    1
    96    89    88    2
    97    86    79   am
    98    88    94   am
    99    83    82    1
   100    81    82    1
   101    81    78    1
   102    66    65    2
   103    79    80    2
   104    79    78    1
   105    94    95    1
   106    98    95    1
   107    78    77    1
   108    95    96    1
   109    96    97    2
