@<TRIPOS>MOLECULE
tmp/4mtzA00.pdb
 92 90 0 0 0
SMALL
GASTEIGER

@<TRIPOS>ATOM
      1  N         -0.2120  -28.2090   12.1130 N.3     1  GLU1       -0.1245
      2  CA        -1.5580  -28.8300   11.9330 C.3     1  GLU1        0.1567
      3  C         -2.2280  -28.2600   10.6760 C.2     1  GLU1        0.2260
      4  O         -1.8650  -28.6510    9.5630 O.2     1  GLU1       -0.2867
      5  CB        -2.4360  -28.5920   13.1630 C.3     1  GLU1        0.0388
      6  CG        -1.9650  -29.3210   14.4130 C.3     1  GLU1        0.1160
      7  CD        -2.8190  -29.0030   15.6260 C.2     1  GLU1        0.3649
      8  OE1       -3.6530  -28.0780   15.5430 O.co2   1  GLU1       -0.2457
      9  OE2       -2.6530  -29.6780   16.6640 O.co2   1  GLU1       -0.2457
     10  N          2.9710  -15.9880   17.9030 N.3    42  ARG42      -0.1245
     11  CA         3.5140  -17.2940   18.2870 C.3    42  ARG42       0.1563
     12  C          3.6430  -18.1790   17.0600 C.2    42  ARG42       0.2260
     13  O          2.7180  -18.2880   16.2780 O.2    42  ARG42      -0.2867
     14  CB         2.6720  -17.9710   19.3520 C.3    42  ARG42       0.0307
     15  CG         3.2950  -19.2900   19.8590 C.3    42  ARG42       0.0489
     16  CD         2.5330  -19.9470   20.9910 C.3    42  ARG42       0.2205
     17  NE         2.2650  -19.1100   22.1700 N.pl3  42  ARG42      -0.0865
     18  CZ         3.0660  -18.9560   23.2240 C.cat  42  ARG42       0.5346
     19  NH1        4.2580  -19.5000   23.2880 N.pl3  42  ARG42       0.1354
     20  NH2        2.6730  -18.2120   24.2380 N.pl3  42  ARG42       0.1354
     21  N          3.5580  -21.3470   14.8840 N.3    44  PHE44      -0.1241
     22  CA         2.7650  -22.5960   14.9780 C.3    44  PHE44       0.1605
     23  C          3.6260  -23.8400   15.1800 C.2    44  PHE44       0.2264
     24  O          3.1470  -24.8240   15.7100 O.2    44  PHE44      -0.2867
     25  CB         1.8960  -22.8040   13.7320 C.3    44  PHE44       0.0534
     26  CG         2.6740  -23.2980   12.5440 C.ar   44  PHE44      -0.0203
     27  CD1        3.3470  -22.4040   11.7220 C.ar   44  PHE44      -0.0042
     28  CD2        2.7580  -24.6560   12.2690 C.ar   44  PHE44      -0.0042
     29  CE1        4.0830  -22.8520   10.6430 C.ar   44  PHE44      -0.0003
     30  CE2        3.4900  -25.1100   11.1970 C.ar   44  PHE44      -0.0003
     31  CZ         4.1540  -24.2050   10.3830 C.ar   44  PHE44      -0.0000
     32  N          7.3330  -24.0300   16.3850 N.3    46  CYS46      -0.1221
     33  CA         8.2670  -24.0520   17.5160 C.3    46  CYS46       0.1808
     34  C          7.7160  -23.4070   18.7870 C.2    46  CYS46       0.2601
     35  O          8.3770  -23.4370   19.8200 O.2    46  CYS46      -0.2717
     36  CB         9.5830  -23.3710   17.1440 C.3    46  CYS46       0.0970
     37  SG         9.4390  -21.6030   16.8330 S.3    46  CYS46      -0.0800
     38  N          6.5410  -22.7930   18.7100 N.am   47  HIS47      -0.1975
     39  CA         5.8950  -22.1920   19.9020 C.3    47  HIS47       0.1656
     40  C          6.5840  -20.9720   20.5150 C.2    47  HIS47       0.2291
     41  O          6.2620  -20.5730   21.6360 O.2    47  HIS47      -0.2864
     42  CB         5.6800  -23.2530   20.9640 C.3    47  HIS47       0.0771
     43  CG         5.0780  -24.4900   20.4020 C.ar   47  HIS47       0.0820
     44  ND1        5.8130  -25.6260   20.1560 N.ar   47  HIS47      -0.2267
     45  CD2        3.8320  -24.7390   19.9440 C.ar   47  HIS47       0.1154
     46  CE1        5.0340  -26.5390   19.6090 C.ar   47  HIS47       0.1986
     47  NE2        3.8300  -26.0230   19.4640 N.ar   47  HIS47      -0.2212
     48  N         15.3730  -16.3650   18.0740 N.3    66  VAL66      -0.1231
     49  CA        14.7540  -16.9810   19.2230 C.3    66  VAL66       0.1692
     50  C         14.6820  -18.5030   19.0640 C.2    66  VAL66       0.2593
     51  O         14.7890  -19.2360   20.0340 O.2    66  VAL66      -0.2718
     52  CB        13.3800  -16.3220   19.5670 C.3    66  VAL66       0.0266
     53  CG1       13.5780  -14.8500   19.9090 C.3    66  VAL66       0.0020
     54  CG2       12.3630  -16.4690   18.4380 C.3    66  VAL66       0.0020
     55  N         14.5350  -18.9860   17.8400 N.am   67  SER67      -0.1939
     56  CA        14.4230  -20.4280   17.5810 C.3    67  SER67       0.2040
     57  C         15.1950  -20.8110   16.3030 C.2    67  SER67       0.2485
     58  O         14.5590  -21.0720   15.2660 O.2    67  SER67      -0.2729
     59  CB        12.9350  -20.7920   17.4060 C.3    67  SER67       0.2129
     60  OG        12.1880  -20.4930   18.5720 O.3    67  SER67      -0.2179
     61  N         16.5620  -20.8550   16.3680 N.am   68  PRO68      -0.2715
     62  CA        17.3990  -21.2010   15.2350 C.3    68  PRO68       0.1536
     63  C         17.1200  -22.6080   14.6500 C.2    68  PRO68       0.2599
     64  O         17.3190  -22.8240   13.4520 O.2    68  PRO68      -0.2715
     65  CB        18.8240  -21.0980   15.8070 C.3    68  PRO68       0.0310
     66  CG        18.6790  -21.3050   17.2760 C.3    68  PRO68       0.0237
     67  CD        17.3750  -20.6190   17.5810 C.3    68  PRO68       0.0939
     68  N         16.6270  -23.5190   15.4760 N.am   69  ASN69      -0.1959
     69  CA        16.2770  -24.8750   15.0500 C.3    69  ASN69       0.1819
     70  C         14.8210  -25.0770   14.6790 C.2    69  ASN69       0.2621
     71  O         14.4160  -26.1740   14.3820 O.2    69  ASN69      -0.2715
     72  CB        16.6240  -25.8570   16.1440 C.3    69  ASN69       0.1195
     73  CG        18.1240  -25.9960   16.3510 C.2    69  ASN69       0.2630
     74  OD1       18.9040  -25.7870   15.4330 O.2    69  ASN69      -0.2716
     75  ND2       18.5260  -26.3830   17.5590 N.am   69  ASN69      -0.0877
     76  N         14.0190  -24.0230   14.7040 N.am   70  CYS70      -0.1954
     77  CA        12.6250  -24.1270   14.2570 C.3    70  CYS70       0.1843
     78  C         12.4920  -24.8770   12.9140 C.2    70  CYS70       0.2625
     79  O         13.1790  -24.5520   11.9370 O.2    70  CYS70      -0.2714
     80  CB        12.0700  -22.7200   14.0820 C.3    70  CYS70       0.0997
     81  SG        10.4410  -22.6860   13.3780 S.3    70  CYS70      -0.0797
     82  N         11.5800  -25.8500   12.8710 N.am   71  ARG71      -0.1977
     83  CA        11.3460  -26.6650   11.6750 C.3    71  ARG71       0.1597
     84  C         10.8900  -25.8080   10.5060 C.2    71  ARG71       0.2287
     85  O         11.3830  -25.9440    9.3970 O.2    71  ARG71      -0.2864
     86  CB        10.3260  -27.7640   11.9790 C.3    71  ARG71       0.0334
     87  CG        10.8520  -28.7680   13.0060 C.3    71  ARG71       0.0492
     88  CD        10.1260  -30.1020   12.9620 C.3    71  ARG71       0.2205
     89  NE         8.7090  -29.9790   13.2890 N.pl3  71  ARG71      -0.0865
     90  CZ         7.8770  -31.0080   13.4570 C.cat  71  ARG71       0.5346
     91  NH1        8.3060  -32.2640   13.3370 N.pl3  71  ARG71       0.1354
     92  NH2        6.6010  -30.7810   13.7540 N.pl3  71  ARG71       0.1354
@<TRIPOS>BOND
     1    85    84    2
     2     4     3    2
     3    31    29   ar
     4    31    30   ar
     5    84    83    1
     6    29    27   ar
     7     3     2    1
     8    30    28   ar
     9    83    86    1
    10    83    82    1
    11    27    26   ar
    12     2     1    1
    13     2     5    1
    14    79    78    2
    15    86    87    1
    16    28    26   ar
    17    26    25    1
    18    82    78   am
    19    78    77    1
    20    88    87    1
    21    88    89    1
    22     5     6    1
    23    89    90    2
    24    91    90    1
    25    81    80    1
    26    64    63    2
    27    90    92    1
    28    25    22    1
    29    80    77    1
    30    77    76    1
    31    71    70    2
    32     6     7    1
    33    63    62    1
    34    63    68   am
    35    70    76   am
    36    70    69    1
    37    21    22    1
    38    22    23    1
    39    69    68    1
    40    69    72    1
    41    23    24    2
    42    62    65    1
    43    62    61    1
    44    58    57    2
    45    74    73    2
    46     8     7   ar
    47     7     9   ar
    48    65    66    1
    49    72    73    1
    50    13    12    2
    51    57    61   am
    52    57    56    1
    53    73    75   am
    54    61    67    1
    55    32    33    1
    56    37    36    1
    57    12    11    1
    58    36    33    1
    59    66    67    1
    60    59    56    1
    61    59    60    1
    62    33    34    1
    63    56    55    1
    64    55    50   am
    65    10    11    1
    66    48    49    1
    67    11    14    1
    68    54    52    1
    69    38    34   am
    70    38    39    1
    71    34    35    2
    72    50    49    1
    73    50    51    2
    74    49    52    1
    75    14    15    1
    76    47    46   ar
    77    47    45   ar
    78    52    53    1
    79    46    44   ar
    80    15    16    1
    81    39    40    1
    82    39    42    1
    83    45    43   ar
    84    44    43   ar
    85    43    42    1
    86    40    41    2
    87    16    17    1
    88    17    18    2
    89    18    19    1
    90    18    20    1
