@<TRIPOS>MOLECULE
tmp/4mu7A00.pdb
 145 143 0 0 0
SMALL
GASTEIGER

@<TRIPOS>ATOM
      1  N         12.7110  -16.8330   -8.8120 N.3    36  VAL36      -0.1245
      2  CA        12.5340  -18.1440   -9.4500 C.3    36  VAL36       0.1561
      3  C         12.9120  -19.3060   -8.5330 C.2    36  VAL36       0.2260
      4  O         12.7920  -20.4610   -8.9270 O.2    36  VAL36      -0.2867
      5  CB        13.3190  -18.2830  -10.7710 C.3    36  VAL36       0.0252
      6  CG1       12.9810  -17.1500  -11.7250 C.3    36  VAL36       0.0019
      7  CG2       14.8140  -18.3560  -10.5000 C.3    36  VAL36       0.0019
      8  N         15.9650  -19.9870   -7.0110 N.3    38  ARG38      -0.1245
      9  CA        17.3670  -20.4350   -6.9650 C.3    38  ARG38       0.1563
     10  C         18.2950  -19.2400   -6.8060 C.2    38  ARG38       0.2260
     11  O         18.1590  -18.2440   -7.5240 O.2    38  ARG38      -0.2867
     12  CB        17.7650  -21.2570   -8.2040 C.3    38  ARG38       0.0307
     13  CG        16.9940  -20.9370   -9.4660 C.3    38  ARG38       0.0489
     14  CD        17.7810  -21.1400  -10.7580 C.3    38  ARG38       0.2205
     15  NE        17.0950  -20.4450  -11.8550 N.pl3  38  ARG38      -0.0865
     16  CZ        17.5920  -20.2240  -13.0730 C.cat  38  ARG38       0.5346
     17  NH1       18.8070  -20.6500  -13.4120 N.pl3  38  ARG38       0.1354
     18  NH2       16.8520  -19.5750  -13.9670 N.pl3  38  ARG38       0.1354
     19  N         18.2470  -15.3390   -8.4170 N.3    41  ASP41      -0.1225
     20  CA        17.7500  -15.2370   -9.7830 C.3    41  ASP41       0.1805
     21  C         16.3070  -14.7400   -9.7620 C.2    41  ASP41       0.2598
     22  O         15.4570  -15.3430   -9.0840 O.2    41  ASP41      -0.2718
     23  CB        17.7480  -16.6050  -10.4590 C.3    41  ASP41       0.1424
     24  CG        19.1530  -17.1530  -10.7130 C.2    41  ASP41       0.3668
     25  OD1       20.1400  -16.4560  -10.4260 O.co2  41  ASP41      -0.2456
     26  OD2       19.2590  -18.2930  -11.2060 O.co2  41  ASP41      -0.2456
     27  N         16.0520  -13.6530  -10.4860 N.am   42  VAL42      -0.1966
     28  CA        14.7010  -13.1360  -10.6830 C.3    42  VAL42       0.1727
     29  C         14.4230  -12.9770  -12.1680 C.2    42  VAL42       0.2616
     30  O         15.3510  -12.9200  -12.9970 O.2    42  VAL42      -0.2715
     31  CB        14.4660  -11.7850   -9.9690 C.3    42  VAL42       0.0290
     32  CG1       14.7290  -11.9140   -8.4710 C.3    42  VAL42       0.0023
     33  CG2       15.2980  -10.6430  -10.5980 C.3    42  VAL42       0.0023
     34  N         13.1370  -12.9150  -12.5130 N.am   43  LYS43      -0.1977
     35  CA        12.7380  -12.7260  -13.8940 C.3    43  LYS43       0.1596
     36  C         11.6190  -11.7100  -13.9490 C.2    43  LYS43       0.2287
     37  O         10.8550  -11.5950  -12.9960 O.2    43  LYS43      -0.2864
     38  CB        12.2500  -14.0380  -14.5020 C.3    43  LYS43       0.0298
     39  CG        13.3440  -15.0430  -14.8270 C.3    43  LYS43       0.0038
     40  CD        12.8190  -16.1700  -15.7210 C.3    43  LYS43       0.0206
     41  CE        13.9450  -17.1180  -16.1160 C.3    43  LYS43       0.1093
     42  NZ        13.5120  -18.2620  -16.9730 N.3    43  LYS43      -0.1314
     43  N         15.9020  -12.1610  -17.2610 N.3    50  GLY50      -0.1210
     44  CA        16.4370  -12.6840  -16.0130 C.3    50  GLY50       0.1956
     45  C         17.5900  -11.8550  -15.4900 C.2    50  GLY50       0.2612
     46  O         18.4580  -11.4680  -16.2600 O.2    50  GLY50      -0.2717
     47  N         17.6130  -11.6090  -14.1770 N.am   51  LEU51      -0.1965
     48  CA        18.7050  -10.8690  -13.5300 C.3    51  LEU51       0.1728
     49  C         19.1750  -11.6070  -12.2790 C.2    51  LEU51       0.2616
     50  O         18.3840  -12.2490  -11.5960 O.2    51  LEU51      -0.2715
     51  CB        18.2740   -9.4530  -13.1480 C.3    51  LEU51       0.0311
     52  CG        17.9390   -8.4690  -14.2590 C.3    51  LEU51       0.0022
     53  CD1       17.4650   -7.1630  -13.6430 C.3    51  LEU51       0.0001
     54  CD2       19.1500   -8.2390  -15.1690 C.3    51  LEU51       0.0001
     55  N         20.4730  -11.5210  -11.9990 N.am   52  ARG52      -0.1963
     56  CA        21.0540  -12.1970  -10.8560 C.3    52  ARG52       0.1729
     57  C         22.3160  -11.4620  -10.4100 C.2    52  ARG52       0.2616
     58  O         22.7170  -10.4760  -11.0350 O.2    52  ARG52      -0.2715
     59  CB        21.3730  -13.6500  -11.2090 C.3    52  ARG52       0.0348
     60  CG        22.3780  -13.8320  -12.3430 C.3    52  ARG52       0.0492
     61  CD        22.9740  -15.2280  -12.3500 C.3    52  ARG52       0.2205
     62  NE        21.9700  -16.2760  -12.5490 N.pl3  52  ARG52      -0.0865
     63  CZ        21.9090  -17.1150  -13.5930 C.cat  52  ARG52       0.5346
     64  NH1       20.9460  -18.0340  -13.6490 N.pl3  52  ARG52       0.1354
     65  NH2       22.8040  -17.0720  -14.5760 N.pl3  52  ARG52       0.1354
     66  N         22.9360  -11.9710   -9.3480 N.am   53  CYS53      -0.1954
     67  CA        24.1600  -11.4020   -8.7740 C.3    53  CYS53       0.1843
     68  C         23.9720   -9.9440   -8.3850 C.2    53  CYS53       0.2625
     69  O         24.7790   -9.0830   -8.7480 O.2    53  CYS53      -0.2714
     70  CB        25.3390  -11.5740   -9.7310 C.3    53  CYS53       0.0997
     71  SG        25.6070  -13.3030  -10.1630 S.3    53  CYS53      -0.0797
     72  N         22.8980   -9.6940   -7.6390 N.am   54  TRP54      -0.1960
     73  CA        22.5840   -8.3660   -7.1110 C.3    54  TRP54       0.1771
     74  C         23.6560   -7.9300   -6.1380 C.2    54  TRP54       0.2619
     75  O         24.1060   -8.7180   -5.3030 O.2    54  TRP54      -0.2715
     76  CB        21.2130   -8.3860   -6.4270 C.3    54  TRP54       0.0590
     77  CG        20.1100   -8.6320   -7.4200 C.ar   54  TRP54       0.0006
     78  CD1       19.5630   -9.8490   -7.8070 C.ar   54  TRP54       0.0946
     79  CD2       19.4370   -7.6290   -8.2500 C.ar   54  TRP54       0.0152
     80  NE1       18.6100   -9.6700   -8.7870 N.ar   54  TRP54      -0.2442
     81  CE2       18.4950   -8.3560   -9.0980 C.ar   54  TRP54       0.0810
     82  CE3       19.5230   -6.2480   -8.3700 C.ar   54  TRP54       0.0012
     83  CZ2       17.6720   -7.7000  -10.0060 C.ar   54  TRP54       0.0191
     84  CZ3       18.6860   -5.5940   -9.2870 C.ar   54  TRP54       0.0001
     85  CH2       17.7920   -6.3020  -10.0880 C.ar   54  TRP54       0.0015
     86  N         24.0920   -6.6800   -6.2680 N.am   55  GLU55      -0.1977
     87  CA        25.1130   -6.0870   -5.3930 C.3    55  GLU55       0.1602
     88  C         24.5420   -4.8860   -4.6460 C.2    55  GLU55       0.2287
     89  O         23.5220   -4.3060   -5.0490 O.2    55  GLU55      -0.2864
     90  CB        26.3450   -5.6360   -6.1970 C.3    55  GLU55       0.0415
     91  CG        27.5940   -6.4840   -5.9860 C.3    55  GLU55       0.1163
     92  CD        28.8710   -5.6490   -5.9170 C.2    55  GLU55       0.3649
     93  OE1       29.9700   -6.2380   -5.8130 O.co2  55  GLU55      -0.2457
     94  OE2       28.7810   -4.3970   -5.9650 O.co2  55  GLU55      -0.2457
     95  N         22.5730   -1.6850   -6.1010 N.3    58  ASP58      -0.1239
     96  CA        21.9090   -1.9700   -7.3810 C.3    58  ASP58       0.1674
     97  C         20.4490   -1.5160   -7.2840 C.2    58  ASP58       0.2266
     98  O         19.8080   -1.6760   -6.2440 O.2    58  ASP58      -0.2867
     99  CB        21.9610   -3.4570   -7.7690 C.3    58  ASP58       0.1410
    100  CG        23.2930   -3.8800   -8.3930 C.2    58  ASP58       0.3668
    101  OD1       24.1370   -3.0190   -8.7360 O.co2  58  ASP58      -0.2456
    102  OD2       23.5020   -5.1080   -8.5350 O.co2  58  ASP58      -0.2456
    103  N         18.5730   -1.4590  -13.6290 N.3    63  GLU63      -0.1245
    104  CA        19.0170   -2.7230  -14.2150 C.3    63  GLU63       0.1567
    105  C         18.0260   -3.2370  -15.2600 C.2    63  GLU63       0.2260
    106  O         18.4200   -3.7310  -16.3240 O.2    63  GLU63      -0.2867
    107  CB        19.2460   -3.7710  -13.1270 C.3    63  GLU63       0.0388
    108  CG        20.3350   -3.4080  -12.1350 C.3    63  GLU63       0.1160
    109  CD        21.7100   -3.2400  -12.7640 C.2    63  GLU63       0.3649
    110  OE1       22.0390   -3.9000  -13.7930 O.co2  63  GLU63      -0.2457
    111  OE2       22.4630   -2.4140  -12.2210 O.co2  63  GLU63      -0.2457
    112  N         18.7650   -1.1540  -18.2420 N.3    66  LYS66      -0.1231
    113  CA        20.0900   -1.5030  -18.7760 C.3    66  LYS66       0.1693
    114  C         20.0630   -2.7270  -19.6850 C.2    66  LYS66       0.2592
    115  O         20.6490   -2.7220  -20.7670 O.2    66  LYS66      -0.2718
    116  CB        21.0620   -1.8190  -17.6450 C.3    66  LYS66       0.0285
    117  CG        21.7740   -0.6610  -16.9890 C.3    66  LYS66       0.0035
    118  CD        22.9250   -1.2600  -16.1780 C.3    66  LYS66       0.0206
    119  CE        23.5550   -0.2880  -15.2050 C.3    66  LYS66       0.1093
    120  NZ        24.2760   -1.0220  -14.1290 N.3    66  LYS66      -0.1314
    121  N         19.4020   -3.7890  -19.2300 N.am   67  TRP67      -0.1962
    122  CA        19.4760   -5.0960  -19.8940 C.3    67  TRP67       0.1771
    123  C         18.3190   -5.4070  -20.7770 C.2    67  TRP67       0.2619
    124  O         18.4750   -6.1420  -21.7670 O.2    67  TRP67      -0.2715
    125  CB        19.6170   -6.1910  -18.8510 C.3    67  TRP67       0.0590
    126  CG        20.8550   -5.9910  -18.0270 C.ar   67  TRP67       0.0006
    127  CD1       20.9500   -5.6970  -16.6770 C.ar   67  TRP67       0.0946
    128  CD2       22.2310   -5.9920  -18.5190 C.ar   67  TRP67       0.0152
    129  NE1       22.2720   -5.5520  -16.3000 N.ar   67  TRP67      -0.2442
    130  CE2       23.0830   -5.7120  -17.3610 C.ar   67  TRP67       0.0810
    131  CE3       22.8190   -6.1920  -19.7620 C.ar   67  TRP67       0.0012
    132  CZ2       24.4680   -5.6610  -17.4620 C.ar   67  TRP67       0.0191
    133  CZ3       24.2140   -6.1210  -19.8590 C.ar   67  TRP67       0.0001
    134  CH2       25.0140   -5.8610  -18.7340 C.ar   67  TRP67       0.0015
    135  N         17.1440   -4.8820  -20.4340 N.am   68  PHE68      -0.1974
    136  CA        15.9120   -5.2130  -21.1640 C.3    68  PHE68       0.1639
    137  C         15.1470   -3.9470  -21.5540 C.2    68  PHE68       0.2290
    138  O         13.9790   -3.7610  -21.1580 O.2    68  PHE68      -0.2864
    139  CB        15.0750   -6.1640  -20.3090 C.3    68  PHE68       0.0560
    140  CG        15.8580   -7.3380  -19.8070 C.ar   68  PHE68      -0.0200
    141  CD1       16.4050   -8.2480  -20.7010 C.ar   68  PHE68      -0.0042
    142  CD2       16.0880   -7.5130  -18.4520 C.ar   68  PHE68      -0.0042
    143  CE1       17.1390   -9.3300  -20.2400 C.ar   68  PHE68      -0.0003
    144  CE2       16.8300   -8.5830  -17.9940 C.ar   68  PHE68      -0.0003
    145  CZ        17.3530   -9.4880  -18.8910 C.ar   68  PHE68      -0.0000
@<TRIPOS>BOND
     1   124   123    2
     2   137   136    1
     3   137   138    2
     4   136   135    1
     5   136   139    1
     6   123   135   am
     7   123   122    1
     8   115   114    2
     9   141   143   ar
    10   141   140   ar
    11   139   140    1
    12   143   145   ar
    13   122   121    1
    14   122   125    1
    15   133   131   ar
    16   133   134   ar
    17   140   142   ar
    18   131   128   ar
    19   114   121   am
    20   114   113    1
    21   145   144   ar
    22   125   126    1
    23   113   112    1
    24   113   116    1
    25   134   132   ar
    26   128   126   ar
    27   128   130   ar
    28   142   144   ar
    29   126   127   ar
    30   116   117    1
    31   132   130   ar
    32   130   129   ar
    33    43    44    1
    34   117   118    1
    35    42    41    1
    36   127   129   ar
    37   106   105    2
    38    46    45    2
    39   118   119    1
    40    41    40    1
    41    44    45    1
    42    40    39    1
    43    45    47   am
    44   105   104    1
    45   119   120    1
    46    54    52    1
    47    39    38    1
    48    65    63    1
    49    38    35    1
    50    52    53    1
    51    52    51    1
    52   104   103    1
    53   104   107    1
    54    47    48    1
    55    18    16    1
    56    36    35    1
    57    36    37    2
    58    35    34    1
    59   110   109   ar
    60    64    63    1
    61    63    62    2
    62    48    51    1
    63    48    49    1
    64    17    16    1
    65   107   108    1
    66    16    15    2
    67    30    29    2
    68   109   111   ar
    69   109   108    1
    70    62    61    1
    71    34    29   am
    72    61    60    1
    73    60    59    1
    74    49    55   am
    75    49    50    2
    76    29    28    1
    77    55    56    1
    78    15    14    1
    79     6     5    1
    80    59    56    1
    81    26    24   ar
    82    58    57    2
    83    56    57    1
    84     5     7    1
    85     5     2    1
    86    14    13    1
    87    24    23    1
    88    24    25   ar
    89    28    27    1
    90    28    31    1
    91    33    31    1
    92    27    21   am
    93    23    20    1
    94    57    66   am
    95    71    70    1
    96    85    83   ar
    97    85    84   ar
    98    83    81   ar
    99    31    32    1
   100    20    21    1
   101    20    19    1
   102    21    22    2
   103    70    67    1
   104    13    12    1
   105     2     1    1
   106     2     3    1
   107    66    67    1
   108    84    82   ar
   109    81    80   ar
   110    81    79   ar
   111     4     3    2
   112    80    78   ar
   113    67    68    1
   114    69    68    2
   115   101   100   ar
   116   102   100   ar
   117   100    99    1
   118    68    72   am
   119    82    79   ar
   120    79    77   ar
   121    12     9    1
   122    78    77   ar
   123    99    96    1
   124    72    73    1
   125    11    10    2
   126    77    76    1
   127    96    97    1
   128    96    95    1
   129    97    98    2
   130    73    76    1
   131    73    74    1
   132     8     9    1
   133     9    10    1
   134    86    74   am
   135    86    87    1
   136    90    91    1
   137    90    87    1
   138    74    75    2
   139    91    92    1
   140    94    92   ar
   141    92    93   ar
   142    87    88    1
   143    89    88    2
