@<TRIPOS>MOLECULE
tmp/4mu9A00.pdb
 140 143 0 0 0
SMALL
GASTEIGER

@<TRIPOS>ATOM
      1  N         -0.3650   -2.6220   18.4370 N.3    39  THR39      -0.1203
      2  CA         0.5940   -2.3840   19.5230 C.3    39  THR39       0.1994
      3  C          1.3820   -1.0710   19.4350 C.2    39  THR39       0.2618
      4  O          2.1820   -0.7970   20.3340 O.2    39  THR39      -0.2717
      5  CB         1.5590   -3.5920   19.6170 C.3    39  THR39       0.1784
      6  OG1        2.3720   -3.6150   18.4460 O.3    39  THR39      -0.2211
      7  CG2        0.8230   -4.9250   19.7310 C.3    39  THR39       0.0376
      8  N          1.1780   -0.2690   18.3690 N.am   40  TYR40      -0.1961
      9  CA         1.9810    0.9450   18.1480 C.3    40  TYR40       0.1771
     10  C          1.3640    2.2990   18.5000 C.2    40  TYR40       0.2619
     11  O          1.8890    3.3340   18.0850 O.2    40  TYR40      -0.2715
     12  CB         2.5390    0.9460   16.7050 C.3    40  TYR40       0.0574
     13  CG         1.4900    0.7440   15.6250 C.ar   40  TYR40      -0.0198
     14  CD1        0.6410    1.7800   15.2500 C.ar   40  TYR40      -0.0009
     15  CD2        1.3890   -0.4670   14.9380 C.ar   40  TYR40      -0.0009
     16  CE1       -0.2820    1.6200   14.2170 C.ar   40  TYR40       0.0417
     17  CE2        0.4640   -0.6390   13.9040 C.ar   40  TYR40       0.0417
     18  CZ        -0.3700    0.4060   13.5500 C.ar   40  TYR40       0.1957
     19  OH        -1.2920    0.2490   12.5490 O.3    40  TYR40      -0.2866
     20  N          0.2680    2.3040   19.2600 N.am   41  LEU41      -0.1977
     21  CA        -0.4090    3.5350   19.6240 C.3    41  LEU41       0.1596
     22  C         -0.0570    3.9560   21.0380 C.2    41  LEU41       0.2287
     23  O          0.3250    3.1160   21.8560 O.2    41  LEU41      -0.2864
     24  CB        -1.9450    3.4010   19.4740 C.3    41  LEU41       0.0297
     25  CG        -2.5010    3.0260   18.0800 C.3    41  LEU41       0.0022
     26  CD1       -3.9720    2.6410   18.1750 C.3    41  LEU41       0.0001
     27  CD2       -2.3020    4.1460   17.0670 C.3    41  LEU41       0.0001
     28  N         -0.3320    5.1790    9.7420 N.3    53  TRP53      -0.1241
     29  CA         1.0690    4.7940    9.5250 C.3    53  TRP53       0.1605
     30  C          1.2260    3.7670    8.3810 C.2    53  TRP53       0.2264
     31  O          1.9130    4.0980    7.4000 O.2    53  TRP53      -0.2867
     32  CB         1.7220    4.3210   10.8480 C.3    53  TRP53       0.0550
     33  CG         3.1530    3.8620   10.7620 C.ar   53  TRP53       0.0003
     34  CD1        4.1030    4.2560    9.8610 C.ar   53  TRP53       0.0946
     35  CD2        3.8000    2.9560   11.6590 C.ar   53  TRP53       0.0152
     36  NE1        5.3150    3.6780   10.1700 N.ar   53  TRP53      -0.2442
     37  CE2        5.1590    2.8850   11.2780 C.ar   53  TRP53       0.0810
     38  CE3        3.3660    2.2090   12.7720 C.ar   53  TRP53       0.0012
     39  CZ2        6.0770    2.0720   11.9450 C.ar   53  TRP53       0.0191
     40  CZ3        4.2880    1.4240   13.4490 C.ar   53  TRP53       0.0001
     41  CH2        5.6240    1.3580   13.0320 C.ar   53  TRP53       0.0015
     42  N         -0.8830   12.1240   15.5940 N.3   109  TYR109     -0.1241
     43  CA         0.5480   12.0140   15.8240 C.3   109  TYR109      0.1605
     44  C          1.3280   13.0080   14.9870 C.2   109  TYR109      0.2264
     45  O          1.0950   13.1220   13.7810 O.2   109  TYR109     -0.2867
     46  CB         1.0050   10.5600   15.5860 C.3   109  TYR109      0.0534
     47  CG         0.3710    9.5830   16.5570 C.ar  109  TYR109     -0.0201
     48  CD1       -0.9470    9.1600   16.3960 C.ar  109  TYR109     -0.0009
     49  CD2        1.0910    9.0730   17.6330 C.ar  109  TYR109     -0.0009
     50  CE1       -1.5460    8.2940   17.3080 C.ar  109  TYR109      0.0417
     51  CE2        0.5050    8.1900   18.5410 C.ar  109  TYR109      0.0417
     52  CZ        -0.8170    7.8120   18.3780 C.ar  109  TYR109      0.1957
     53  OH        -1.3970    6.9420   19.2600 O.3   109  TYR109     -0.2866
     54  N          4.5500   12.8350   14.2300 N.3   111  ASP111     -0.1225
     55  CA         5.3890   12.1330   13.2670 C.3   111  ASP111      0.1805
     56  C          4.6460   11.5740   12.0400 C.2   111  ASP111      0.2597
     57  O          5.1970   11.6680   10.9500 O.2   111  ASP111     -0.2718
     58  CB         6.2810   11.0890   13.9340 C.3   111  ASP111      0.1424
     59  CG         5.5210    9.9420   14.5550 C.2   111  ASP111      0.3668
     60  OD1        4.2970   10.0980   14.8100 O.co2 111  ASP111     -0.2456
     61  OD2        6.1430    8.9090   14.8210 O.co2 111  ASP111     -0.2456
     62  N          3.3870   11.0360   12.2040 N.am  112  ASP112     -0.1974
     63  CA         2.5590   10.5480   11.0710 C.3   112  ASP112      0.1709
     64  C          2.4610   11.6490   10.0110 C.2   112  ASP112      0.2293
     65  O          2.5810   11.3830    8.8110 O.2   112  ASP112     -0.2864
     66  CB         1.1140   10.2180   11.5240 C.3   112  ASP112      0.1436
     67  CG         0.9210    8.8720   12.1960 C.2   112  ASP112      0.3671
     68  OD1        1.9100    8.1440   12.3440 O.co2 112  ASP112     -0.2456
     69  OD2       -0.2330    8.5580   12.5830 O.co2 112  ASP112     -0.2456
     70  N          5.8740   12.3320    7.7490 N.3   115  TRP115     -0.1241
     71  CA         6.0570   11.4180    6.6010 C.3   115  TRP115      0.1605
     72  C          5.1760   11.8110    5.4050 C.2   115  TRP115      0.2264
     73  O          5.6200   11.7590    4.2590 O.2   115  TRP115     -0.2867
     74  CB         5.8160    9.9430    7.0130 C.3   115  TRP115      0.0550
     75  CG         6.6750    9.5120    8.1720 C.ar  115  TRP115      0.0003
     76  CD1        6.2520    9.2030    9.4300 C.ar  115  TRP115      0.0946
     77  CD2        8.1170    9.4570    8.2050 C.ar  115  TRP115      0.0152
     78  NE1        7.3350    8.9350   10.2440 N.ar  115  TRP115     -0.2442
     79  CE2        8.4910    9.0800    9.5140 C.ar  115  TRP115      0.0810
     80  CE3        9.1300    9.6590    7.2380 C.ar  115  TRP115      0.0012
     81  CZ2        9.8260    8.8950    9.8840 C.ar  115  TRP115      0.0191
     82  CZ3       10.4560    9.4770    7.6080 C.ar  115  TRP115      0.0001
     83  CH2       10.7920    9.0960    8.9150 C.ar  115  TRP115      0.0015
     84  N          5.5120   13.5440   20.2990 N.3   157  TRP157     -0.1241
     85  CA         5.1440   12.4380   19.4120 C.3   157  TRP157      0.1605
     86  C          3.6160   12.3740   19.2010 C.2   157  TRP157      0.2264
     87  O          3.1510   12.3920   18.0520 O.2   157  TRP157     -0.2867
     88  CB         5.6870   11.1190   19.9980 C.3   157  TRP157      0.0550
     89  CG         5.1080    9.8680   19.4170 C.ar  157  TRP157      0.0003
     90  CD1        5.1130    9.4890   18.1030 C.ar  157  TRP157      0.0946
     91  CD2        4.5200    8.7840   20.1470 C.ar  157  TRP157      0.0152
     92  NE1        4.4960    8.2670   17.9620 N.ar  157  TRP157     -0.2442
     93  CE2        4.1440    7.7990   19.2010 C.ar  157  TRP157      0.0810
     94  CE3        4.2460    8.5600   21.5100 C.ar  157  TRP157      0.0012
     95  CZ2        3.5120    6.6100   19.5730 C.ar  157  TRP157      0.0191
     96  CZ3        3.5940    7.3920   21.8760 C.ar  157  TRP157      0.0001
     97  CH2        3.2350    6.4310   20.9170 C.ar  157  TRP157      0.0015
     98  N         12.1550   10.3210   16.3870 N.3   168  CYS168     -0.1235
     99  CA        11.2360   10.0240   15.2920 C.3   168  CYS168      0.1677
    100  C         10.3430   11.1970   14.8690 C.2   168  CYS168      0.2270
    101  O          9.7290   11.1290   13.7990 O.2   168  CYS168     -0.2867
    102  CB        10.4300    8.7590   15.5730 C.3   168  CYS168      0.0956
    103  SG         9.1260    8.9660   16.8150 S.3   168  CYS168     -0.0801
    104  N         15.6310    3.6900   11.7450 N.3   229  TYR229     -0.1241
    105  CA        15.0410    4.8910   11.1300 C.3   229  TYR229      0.1605
    106  C         15.4330    6.2160   11.8120 C.2   229  TYR229      0.2264
    107  O         15.3860    7.2700   11.1780 O.2   229  TYR229     -0.2867
    108  CB        13.5080    4.7370   10.9690 C.3   229  TYR229      0.0534
    109  CG        12.6540    5.0360   12.1830 C.ar  229  TYR229     -0.0201
    110  CD1       12.9390    4.4660   13.4240 C.ar  229  TYR229     -0.0009
    111  CD2       11.4730    5.7680   12.0640 C.ar  229  TYR229     -0.0009
    112  CE1       12.1410    4.7210   14.5380 C.ar  229  TYR229      0.0417
    113  CE2       10.6510    5.9970   13.1620 C.ar  229  TYR229      0.0417
    114  CZ        10.9760    5.4500   14.3920 C.ar  229  TYR229      0.1957
    115  OH        10.1630    5.6470   15.4770 O.3   229  TYR229     -0.2866
    116  N         10.1840   -1.3680    7.2270 N.3   282  TRP282     -0.1227
    117  CA         9.9860    0.0780    7.0380 C.3   282  TRP282      0.1737
    118  C         11.0840    0.9470    7.6480 C.2   282  TRP282      0.2595
    119  O         11.4970    1.9070    6.9960 O.2   282  TRP282     -0.2718
    120  CB         8.5690    0.5490    7.4030 C.3   282  TRP282      0.0564
    121  CG         8.3480    2.0200    7.1770 C.ar  282  TRP282      0.0003
    122  CD1        8.0760    2.6360    5.9890 C.ar  282  TRP282      0.0946
    123  CD2        8.3480    3.0570    8.1810 C.ar  282  TRP282      0.0152
    124  NE1        7.9240    3.9940    6.1850 N.ar  282  TRP282     -0.2442
    125  CE2        8.0920    4.2790    7.5210 C.ar  282  TRP282      0.0810
    126  CE3        8.5950    3.0800    9.5670 C.ar  282  TRP282      0.0012
    127  CZ2        8.0290    5.5000    8.2080 C.ar  282  TRP282      0.0191
    128  CZ3        8.5600    4.2960   10.2470 C.ar  282  TRP282      0.0001
    129  CH2        8.2890    5.4890    9.5680 C.ar  282  TRP282      0.0015
    130  N         11.6150    0.5780    8.8560 N.am  283  PHE283     -0.1976
    131  CA        12.7280    1.3260    9.4790 C.3   283  PHE283      0.1639
    132  C         13.9620    1.2530    8.5500 C.2   283  PHE283      0.2290
    133  O         14.6540    2.2560    8.3940 O.2   283  PHE283     -0.2864
    134  CB        13.1000    0.7660   10.8670 C.3   283  PHE283      0.0560
    135  CG        12.1910    1.0680   12.0480 C.ar  283  PHE283     -0.0200
    136  CD1       11.0600    1.8640   11.8970 C.ar  283  PHE283     -0.0042
    137  CD2       12.4590    0.5350   13.3070 C.ar  283  PHE283     -0.0042
    138  CE1       10.2400    2.1510   12.9930 C.ar  283  PHE283     -0.0003
    139  CE2       11.6380    0.8210   14.3980 C.ar  283  PHE283     -0.0003
    140  CZ        10.5370    1.6260   14.2390 C.ar  283  PHE283     -0.0000
@<TRIPOS>BOND
     1    73    72    2
     2    72    71    1
     3   122   124   ar
     4   122   121   ar
     5   124   125   ar
     6    71    74    1
     7    71    70    1
     8   119   118    2
     9    74    75    1
    10   117   116    1
    11   117   120    1
    12   117   118    1
    13   121   120    1
    14   121   123   ar
    15    80    82   ar
    16    80    77   ar
    17    31    30    2
    18   125   123   ar
    19   125   127   ar
    20    82    83   ar
    21   118   130   am
    22    75    77   ar
    23    75    76   ar
    24   123   126   ar
    25    77    79   ar
    26   127   129   ar
    27    30    29    1
    28   133   132    2
    29   132   131    1
    30    65    64    2
    31   130   131    1
    32    83    81   ar
    33    76    78   ar
    34   131   134    1
    35    79    81   ar
    36    79    78   ar
    37    29    28    1
    38    29    32    1
    39   126   128   ar
    40   129   128   ar
    41    34    36   ar
    42    34    33   ar
    43    64    63    1
    44    36    37   ar
    45    33    32    1
    46    33    35   ar
    47   134   135    1
    48    57    56    2
    49   108   105    1
    50   108   109    1
    51    63    66    1
    52    63    62    1
    53   105   104    1
    54   105   106    1
    55   107   106    2
    56    37    35   ar
    57    37    39   ar
    58    66    67    1
    59    35    38   ar
    60   136   135   ar
    61   136   138   ar
    62    39    41   ar
    63    56    62   am
    64    56    55    1
    65   135   137   ar
    66   111   109   ar
    67   111   113   ar
    68   109   110   ar
    69    67    68   ar
    70    67    69   ar
    71    19    18    1
    72    38    40   ar
    73   138   140   ar
    74    41    40   ar
    75   113   114   ar
    76    55    58    1
    77    55    54    1
    78   137   139   ar
    79   110   112   ar
    80    18    17   ar
    81    18    16   ar
    82    45    44    2
    83   101   100    2
    84    17    15   ar
    85    58    59    1
    86    16    14   ar
    87   140   139   ar
    88   114   112   ar
    89   114   115    1
    90    59    60   ar
    91    59    61   ar
    92   100    99    1
    93    15    13   ar
    94    44    43    1
    95    14    13   ar
    96    99   102    1
    97    99    98    1
    98   102   103    1
    99    46    43    1
   100    46    47    1
   101    42    43    1
   102    13    12    1
   103    48    47   ar
   104    48    50   ar
   105    47    49   ar
   106    12     9    1
   107    27    25    1
   108    50    52   ar
   109    49    51   ar
   110    92    90   ar
   111    92    93   ar
   112    87    86    2
   113    25    26    1
   114    25    24    1
   115    11    10    2
   116    90    89   ar
   117     9     8    1
   118     9    10    1
   119     8     3   am
   120    52    51   ar
   121    52    53    1
   122     1     2    1
   123     6     5    1
   124    10    20   am
   125    86    85    1
   126    93    95   ar
   127    93    91   ar
   128    20    21    1
   129    85    88    1
   130    85    84    1
   131    89    88    1
   132    89    91   ar
   133     3     2    1
   134     3     4    2
   135    24    21    1
   136     2     5    1
   137    95    97   ar
   138     5     7    1
   139    21    22    1
   140    91    94   ar
   141    97    96   ar
   142    22    23    2
   143    94    96   ar
