@<TRIPOS>MOLECULE
tmp/4mugB00.pdb
 157 152 0 0 0
SMALL
GASTEIGER

@<TRIPOS>ATOM
      1  N         -3.1360   -7.0830   29.8840 N.3    38  PRO38      -0.2102
      2  CA        -2.3430   -8.1760   29.2170 C.3    38  PRO38       0.1504
      3  C         -2.0680   -9.3020   30.3120 C.2    38  PRO38       0.2576
      4  O         -1.5620   -9.0300   31.3880 O.2    38  PRO38      -0.2718
      5  CB        -1.0200   -7.4590   28.8000 C.3    38  PRO38       0.0282
      6  CG        -1.3800   -5.9350   28.8910 C.3    38  PRO38       0.0208
      7  CD        -2.3090   -5.8270   30.0230 C.3    38  PRO38       0.0893
      8  N         -2.2530  -10.5500   29.8550 N.am   39  THR39      -0.1939
      9  CA        -1.9410  -11.6510   30.8340 C.3    39  THR39       0.2028
     10  C         -1.2950  -12.7610   30.0380 C.2    39  THR39       0.2642
     11  O         -1.4370  -12.8830   28.8380 O.2    39  THR39      -0.2714
     12  CB        -3.2100  -12.2360   31.5200 C.3    39  THR39       0.1808
     13  OG1       -3.9630  -13.0730   30.6880 O.3    39  THR39      -0.2208
     14  CG2       -4.2300  -11.1790   32.0420 C.3    39  THR39       0.0379
     15  N         -0.8810  -13.7640   30.8520 N.am   40  MET40      -0.1962
     16  CA        -0.4060  -14.9680   30.2220 C.3    40  MET40       0.1736
     17  C         -1.2860  -16.1220   30.6500 C.2    40  MET40       0.2617
     18  O         -0.8160  -17.2650   30.6150 O.2    40  MET40      -0.2715
     19  CB         0.9880  -15.2410   30.7260 C.3    40  MET40       0.0427
     20  CG         1.9450  -14.1590   30.3100 C.3    40  MET40       0.0599
     21  SD         3.6440  -14.6980   30.5190 S.3    40  MET40      -0.1393
     22  CE         4.0900  -14.1190   32.1030 C.3    40  MET40       0.0692
     23  N         -2.5600  -15.8670   30.9680 N.am   41  GLY41      -0.1940
     24  CA        -3.5270  -16.9380   31.3050 C.3    41  GLY41       0.2014
     25  C         -3.2160  -17.4600   32.7020 C.2    41  GLY41       0.2638
     26  O         -2.3430  -16.9340   33.3930 O.2    41  GLY41      -0.2714
     27  N         -3.9530  -18.4830   33.1210 N.am   42  ALA42      -0.1977
     28  CA        -3.8580  -18.9660   34.4950 C.3    42  ALA42       0.1597
     29  C         -4.2720  -17.8650   35.4550 C.2    42  ALA42       0.2287
     30  O         -3.5190  -17.4400   36.2990 O.2    42  ALA42      -0.2864
     31  CB        -2.4420  -19.4570   34.7880 C.3    42  ALA42       0.0319
     32  N         -5.5490  -15.3270   38.2230 N.3    44  HIS44      -0.1241
     33  CA        -5.7320  -15.3520   39.6730 C.3    44  HIS44       0.1621
     34  C         -6.2970  -14.0520   40.1480 C.2    44  HIS44       0.2264
     35  O         -6.5550  -13.1500   39.3270 O.2    44  HIS44      -0.2867
     36  CB        -4.4460  -15.6710   40.4010 C.3    44  HIS44       0.0745
     37  CG        -3.3780  -14.6490   40.1920 C.ar   44  HIS44       0.0817
     38  ND1       -2.1640  -14.9330   39.6140 N.ar   44  HIS44      -0.2268
     39  CD2       -3.3660  -13.3220   40.4600 C.ar   44  HIS44       0.1154
     40  CE1       -1.4420  -13.8250   39.5370 C.ar   44  HIS44       0.1986
     41  NE2       -2.1440  -12.8330   40.0640 N.ar   44  HIS44      -0.2212
     42  N         -5.1620  -11.4600   41.4420 N.3    46  GLY46      -0.1210
     43  CA        -4.3620  -10.2980   41.0070 C.3    46  GLY46       0.1956
     44  C         -4.8640   -9.8560   39.6330 C.2    46  GLY46       0.2611
     45  O         -5.0960   -8.6700   39.4080 O.2    46  GLY46      -0.2717
     46  N         -5.0350  -10.7780   38.6950 N.am   47  HIS47      -0.1975
     47  CA        -5.6110  -10.3920   37.3600 C.3    47  HIS47       0.1656
     48  C         -7.0210   -9.8400   37.5310 C.2    47  HIS47       0.2291
     49  O         -7.4360   -8.9070   36.8060 O.2    47  HIS47      -0.2864
     50  CB        -5.6510  -11.6000   36.4320 C.3    47  HIS47       0.0771
     51  CG        -4.3240  -12.1840   36.2460 C.ar   47  HIS47       0.0820
     52  ND1       -3.9540  -13.3540   36.8850 N.ar   47  HIS47      -0.2267
     53  CD2       -3.2260  -11.7130   35.6170 C.ar   47  HIS47       0.1154
     54  CE1       -2.6890  -13.6150   36.5880 C.ar   47  HIS47       0.1986
     55  NE2       -2.2270  -12.6390   35.8060 N.ar   47  HIS47      -0.2212
     56  N         -8.1220   -8.1840   39.9100 N.3    49  ALA49      -0.1231
     57  CA        -8.0280   -6.8500   40.4530 C.3    49  ALA49       0.1694
     58  C         -7.6400   -5.8790   39.2770 C.2    49  ALA49       0.2591
     59  O         -8.1510   -4.7230   39.2150 O.2    49  ALA49      -0.2718
     60  CB        -6.9460   -6.7740   41.5430 C.3    49  ALA49       0.0304
     61  N         -6.7820   -6.3240   38.3500 N.am   50  LEU50      -0.1980
     62  CA        -6.5330   -5.4940   37.0960 C.3    50  LEU50       0.1596
     63  C         -7.8300   -5.2510   36.3560 C.2    50  LEU50       0.2287
     64  O         -8.1480   -4.1200   35.8870 O.2    50  LEU50      -0.2864
     65  CB        -5.5180   -6.2470   36.1710 C.3    50  LEU50       0.0297
     66  CG        -4.1690   -6.5960   36.8430 C.3    50  LEU50       0.0022
     67  CD1       -3.2100   -7.2370   35.8620 C.3    50  LEU50       0.0001
     68  CD2       -3.5590   -5.3810   37.5520 C.3    50  LEU50       0.0001
     69  N          0.0510   -5.1060   37.1530 N.3   144  GLY144     -0.1225
     70  CA         0.2570   -5.1570   38.5660 C.3   144  GLY144      0.1811
     71  C          1.6180   -4.5530   38.9800 C.2   144  GLY144      0.2280
     72  O          2.5670   -4.5030   38.1860 O.2   144  GLY144     -0.2866
     73  N          3.4970   -5.9020   41.1190 N.3   146  LYS146     -0.1231
     74  CA         4.4680   -6.9110   41.6300 C.3   146  LYS146      0.1693
     75  C          5.7480   -7.0000   40.8080 C.2   146  LYS146      0.2592
     76  O          6.7720   -7.1650   41.3570 O.2   146  LYS146     -0.2718
     77  CB         3.8970   -8.3340   41.8060 C.3   146  LYS146      0.0285
     78  CG         4.7320   -9.2000   42.8220 C.3   146  LYS146      0.0035
     79  CD         4.5710  -10.7340   42.6770 C.3   146  LYS146      0.0206
     80  CE         5.8510  -11.2540   42.0950 C.3   146  LYS146      0.1093
     81  NZ         5.7420  -11.4880   40.6210 N.3   146  LYS146     -0.1314
     82  N          5.6060   -6.8990   39.4820 N.am  147  ASP147     -0.1974
     83  CA         6.7530   -7.0090   38.6020 C.3   147  ASP147      0.1709
     84  C          7.0740   -5.5630   38.3660 C.2   147  ASP147      0.2293
     85  O          6.7860   -4.9850   37.2770 O.2   147  ASP147     -0.2864
     86  CB         6.4180   -7.8050   37.3370 C.3   147  ASP147      0.1436
     87  CG         6.1910   -9.2940   37.6460 C.2   147  ASP147      0.3671
     88  OD1        7.1760   -9.9000   38.0110 O.co2 147  ASP147     -0.2456
     89  OD2        5.0600   -9.8090   37.4490 O.co2 147  ASP147     -0.2456
     90  N          9.5050   -4.5400   35.4620 N.3   150  GLN150     -0.1245
     91  CA         8.7370   -4.6350   34.2480 C.3   150  GLN150      0.1566
     92  C          7.8910   -3.4670   34.0070 C.2   150  GLN150      0.2260
     93  O          7.9290   -2.9750   32.8630 O.2   150  GLN150     -0.2867
     94  CB         7.7750   -5.8340   34.3200 C.3   150  GLN150      0.0367
     95  CG         7.0400   -6.0630   33.0090 C.3   150  GLN150      0.0905
     96  CD         6.1140   -7.2730   33.0330 C.2   150  GLN150      0.2608
     97  OE1        6.5810   -8.3750   32.8860 O.2   150  GLN150     -0.2717
     98  NE2        4.8550   -7.0560   33.2590 N.am  150  GLN150     -0.0878
     99  N         -1.3980   -1.1690   39.2480 N.3   170  VAL170     -0.1231
    100  CA        -2.3660   -1.5370   40.2340 C.3   170  VAL170      0.1678
    101  C         -1.6580   -2.2250   41.4100 C.2   170  VAL170      0.2434
    102  O         -0.8040   -3.0790   41.1620 O.2   170  VAL170     -0.2733
    103  CB        -3.3530   -2.5300   39.5910 C.3   170  VAL170      0.0265
    104  CG1       -4.3610   -3.0440   40.6290 C.3   170  VAL170      0.0020
    105  CG2       -4.0250   -1.9170   38.3440 C.3   170  VAL170      0.0020
    106  N         -1.9310   -1.8020   42.6510 N.am  171  PRO171     -0.2718
    107  CA        -1.2530   -2.3510   43.8300 C.3   171  PRO171      0.1535
    108  C         -1.3660   -3.8950   43.8420 C.2   171  PRO171      0.2599
    109  O         -2.4120   -4.4520   43.4910 O.2   171  PRO171     -0.2715
    110  CB        -1.9460   -1.6450   45.0380 C.3   171  PRO171      0.0310
    111  CG        -2.6840   -0.4830   44.4170 C.3   171  PRO171      0.0237
    112  CD        -2.9970   -0.8290   42.9840 C.3   171  PRO171      0.0939
    113  N         -0.2690   -4.5650   44.2730 N.am  172  THR172     -0.1937
    114  CA        -0.2080   -6.0160   44.2050 C.3   172  THR172      0.2028
    115  C         -1.2580   -6.6210   45.1750 C.2   172  THR172      0.2642
    116  O         -1.3410   -6.2100   46.3390 O.2   172  THR172     -0.2714
    117  CB         1.2050   -6.4360   44.6660 C.3   172  THR172      0.1808
    118  OG1        2.1890   -5.8340   43.7930 O.3   172  THR172     -0.2208
    119  CG2        1.3850   -8.0380   44.6740 C.3   172  THR172      0.0379
    120  N         -2.0150   -7.5850   44.6900 N.am  173  VAL173     -0.1977
    121  CA        -2.9040   -8.3150   45.5420 C.3   173  VAL173      0.1596
    122  C         -2.0020   -9.3170   46.2980 C.2   173  VAL173      0.2287
    123  O         -1.0410   -9.8740   45.7340 O.2   173  VAL173     -0.2864
    124  CB        -3.9100   -9.0810   44.6990 C.3   173  VAL173      0.0276
    125  CG1       -4.7480   -9.9690   45.5990 C.3   173  VAL173      0.0022
    126  CG2       -4.8760   -8.1770   43.9350 C.3   173  VAL173      0.0022
    127  N          0.6800  -12.2910   45.5460 N.3   181  MET181     -0.1230
    128  CA         0.1250  -13.3220   44.6630 C.3   181  MET181      0.1702
    129  C          1.0220  -13.6770   43.5040 C.2   181  MET181      0.2593
    130  O          1.7010  -12.7850   42.9410 O.2   181  MET181     -0.2718
    131  CB        -1.2640  -12.9740   44.1400 C.3   181  MET181      0.0401
    132  CG        -1.9320  -14.3320   43.8470 C.3   181  MET181      0.0596
    133  SD        -2.9230  -14.3560   45.3390 S.3   181  MET181     -0.1393
    134  CE        -4.1300  -13.3260   44.5880 C.3   181  MET181      0.0692
    135  N          1.1060  -14.9830   43.2120 N.am  182  SER182     -0.1938
    136  CA         1.9600  -15.4730   42.1510 C.3   182  SER182      0.2055
    137  C          1.5400  -16.8420   41.7870 C.2   182  SER182      0.2644
    138  O          1.2360  -17.6980   42.6520 O.2   182  SER182     -0.2714
    139  CB         3.4460  -15.4610   42.5500 C.3   182  SER182      0.2130
    140  OG         4.3170  -16.2420   41.6800 O.3   182  SER182     -0.2179
    141  N          1.5530  -17.0790   40.4760 N.am  183  SER183     -0.1935
    142  CA         1.4850  -18.4350   39.9390 C.3   183  SER183      0.2055
    143  C          2.4330  -19.3790   40.6810 C.2   183  SER183      0.2642
    144  O          2.0850  -20.5450   41.0010 O.2   183  SER183     -0.2714
    145  CB         1.7750  -18.4410   38.4010 C.3   183  SER183      0.2130
    146  OG         3.0190  -17.8300   38.0240 O.3   183  SER183     -0.2179
    147  N          3.6370  -18.8940   40.9710 N.am  184  ARG184     -0.1977
    148  CA         4.6680  -19.8170   41.6090 C.3   184  ARG184      0.1597
    149  C          4.3870  -20.3040   43.0650 C.2   184  ARG184      0.2287
    150  O          5.0380  -21.2360   43.5500 O.2   184  ARG184     -0.2864
    151  CB         6.0720  -19.2870   41.4760 C.3   184  ARG184      0.0334
    152  CG         6.4240  -18.9650   40.0220 C.3   184  ARG184      0.0492
    153  CD         7.8690  -18.5400   39.8630 C.3   184  ARG184      0.2205
    154  NE         8.1640  -17.8280   38.6140 N.pl3 184  ARG184     -0.0865
    155  CZ         9.3530  -17.2810   38.3340 C.cat 184  ARG184      0.5346
    156  NH1       10.3510  -17.3770   39.2020 N.pl3 184  ARG184      0.1354
    157  NH2        9.5630  -16.6440   37.1860 N.pl3 184  ARG184      0.1354
@<TRIPOS>BOND
     1     5     6    1
     2     5     2    1
     3    11    10    2
     4     6     7    1
     5     2     1    1
     6     2     3    1
     7     8     3   am
     8     8     9    1
     9     1     7    1
    10    10     9    1
    11    10    15   am
    12    16    17    1
    13    16    19    1
    14    16    15    1
    15    20    21    1
    16    20    19    1
    17     3     4    2
    18    21    22    1
    19    18    17    2
    20    17    23   am
    21    13    12    1
    22     9    12    1
    23    23    24    1
    24    24    25    1
    25    12    14    1
    26    25    27   am
    27    25    26    2
    28    93    92    2
    29    97    96    2
    30    95    96    1
    31    95    94    1
    32    96    98   am
    33    27    28    1
    34    92    91    1
    35    91    94    1
    36    91    90    1
    37    28    31    1
    38    28    29    1
    39    29    30    2
    40    53    55   ar
    41    53    51   ar
    42    55    54   ar
    43    67    66    1
    44    64    63    2
    45    65    66    1
    46    65    62    1
    47    51    50    1
    48    51    52   ar
    49    63    62    1
    50    50    47    1
    51    54    52   ar
    52    49    48    2
    53    66    68    1
    54    62    61    1
    55    69    70    1
    56   157   155    1
    57    85    84    2
    58    86    87    1
    59    86    83    1
    60    47    48    1
    61    47    46    1
    62    89    87   ar
    63    87    88   ar
    64   146   145    1
    65    72    71    2
    66    32    33    1
    67   155   154    2
    68   155   156    1
    69   105   103    1
    70    61    58   am
    71    84    83    1
    72   145   142    1
    73    70    71    1
    74    83    82    1
    75   154   153    1
    76    46    44   am
    77    59    58    2
    78    99   100    1
    79    58    57    1
    80    35    34    2
    81    45    44    2
    82    82    75   am
    83    40    38   ar
    84    40    41   ar
    85   103   100    1
    86   103   104    1
    87    38    37   ar
    88    44    43    1
    89    33    34    1
    90    33    36    1
    91   153   152    1
    92    56    57    1
    93   142   141    1
    94   142   143    1
    95   152   151    1
    96    41    39   ar
    97    37    36    1
    98    37    39   ar
    99   100   101    1
   100    57    60    1
   101   141   137   am
   102    81    80    1
   103   143   147   am
   104   143   144    2
   105    75    76    2
   106    75    74    1
   107   147   148    1
   108    43    42    1
   109    73    74    1
   110   102   101    2
   111   101   106   am
   112   151   148    1
   113   148   149    1
   114    74    77    1
   115   140   139    1
   116   137   136    1
   117   137   138    2
   118    77    78    1
   119    80    79    1
   120   136   139    1
   121   136   135    1
   122   106   112    1
   123   106   107    1
   124    79    78    1
   125   130   129    2
   126   112   111    1
   127   149   150    2
   128   135   129   am
   129   109   108    2
   130   129   128    1
   131   118   117    1
   132   107   108    1
   133   107   110    1
   134   108   113   am
   135   132   131    1
   136   132   133    1
   137   126   124    1
   138   131   128    1
   139   114   113    1
   140   114   117    1
   141   114   115    1
   142   111   110    1
   143   134   133    1
   144   128   127    1
   145   117   119    1
   146   120   115   am
   147   120   121    1
   148   124   121    1
   149   124   125    1
   150   115   116    2
   151   121   122    1
   152   123   122    2
