@<TRIPOS>MOLECULE
tmp/4muhB01.pdb
 82 78 0 0 0
SMALL
GASTEIGER

@<TRIPOS>ATOM
      1  N        -14.2990    3.5550   26.1000 N.3    33  ARG33      -0.1245
      2  CA       -12.8520    3.6650   26.3220 C.3    33  ARG33       0.1563
      3  C        -12.2890    2.2610   26.4880 C.2    33  ARG33       0.2260
      4  O        -12.7280    1.5400   27.3540 O.2    33  ARG33      -0.2867
      5  CB       -12.5660    4.4690   27.5360 C.3    33  ARG33       0.0307
      6  CG       -12.9960    5.9420   27.2820 C.3    33  ARG33       0.0489
      7  CD       -12.4050    6.8340   28.2760 C.3    33  ARG33       0.2205
      8  NE       -13.3780    7.0310   29.3380 N.pl3  33  ARG33      -0.0865
      9  CZ       -13.1410    7.6030   30.5190 C.cat  33  ARG33       0.5346
     10  NH1      -14.1580    7.6940   31.3880 N.pl3  33  ARG33       0.1354
     11  NH2      -11.9080    8.0590   30.8300 N.pl3  33  ARG33       0.1354
     12  N        -10.1840   -2.9350   38.3000 N.3    53  ALA53      -0.1245
     13  CA        -9.6440   -1.5690   38.1240 C.3    53  ALA53       0.1562
     14  C        -10.0650   -0.9860   36.7540 C.2    53  ALA53       0.2260
     15  O        -10.5490    0.1700   36.6410 O.2    53  ALA53      -0.2867
     16  CB        -8.0630   -1.5620   38.3260 C.3    53  ALA53       0.0290
     17  N        -13.9640   -0.1570   36.1210 N.3    56  ARG56      -0.1231
     18  CA       -14.6480    0.9210   36.8130 C.3    56  ARG56       0.1694
     19  C        -14.5080    2.2690   36.1290 C.2    56  ARG56       0.2592
     20  O        -15.1560    3.2320   36.5430 O.2    56  ARG56      -0.2718
     21  CB       -14.2860    0.9770   38.3040 C.3    56  ARG56       0.0321
     22  CG       -13.0090    1.6040   38.7520 C.3    56  ARG56       0.0489
     23  CD       -12.9250    1.3000   40.3340 C.3    56  ARG56       0.2205
     24  NE       -12.3880    2.3940   41.1600 N.pl3  56  ARG56      -0.0865
     25  CZ       -13.0640    3.0800   42.0940 C.cat  56  ARG56       0.5346
     26  NH1      -14.3390    2.8230   42.3650 N.pl3  56  ARG56       0.1354
     27  NH2      -12.4620    4.0470   42.7790 N.pl3  56  ARG56       0.1354
     28  N        -13.6500    2.3530   35.1110 N.am   57  VAL57      -0.1966
     29  CA       -13.5240    3.5740   34.3400 C.3    57  VAL57       0.1712
     30  C        -14.8730    3.7910   33.5400 C.2    57  VAL57       0.2458
     31  O        -15.3370    2.8990   32.8360 O.2    57  VAL57      -0.2730
     32  CB       -12.2800    3.4720   33.3750 C.3    57  VAL57       0.0289
     33  CG1      -12.1730    4.7220   32.5020 C.3    57  VAL57       0.0023
     34  CG2      -10.9760    3.2640   34.1840 C.3    57  VAL57       0.0023
     35  N        -15.5390    4.9780   33.6720 N.am   58  PRO58      -0.2727
     36  CA       -16.8390    5.0840   32.9580 C.3    58  PRO58       0.1402
     37  C        -16.6930    4.9240   31.4580 C.2    58  PRO58       0.2269
     38  O        -15.7330    5.4160   30.8280 O.2    58  PRO58      -0.2865
     39  CB       -17.3090    6.5170   33.2930 C.3    58  PRO58       0.0296
     40  CG       -16.7780    6.7240   34.7330 C.3    58  PRO58       0.0237
     41  CD       -15.3510    6.0610   34.6480 C.3    58  PRO58       0.0939
     42  N         -5.9470    2.8230   28.0870 N.3   140  ARG140     -0.1245
     43  CA        -5.1830    2.5730   29.2860 C.3   140  ARG140      0.1563
     44  C         -4.8430    1.0780   29.2800 C.2   140  ARG140      0.2260
     45  O         -5.6270    0.2610   28.7710 O.2   140  ARG140     -0.2867
     46  CB        -5.9860    2.8420   30.5850 C.3   140  ARG140      0.0307
     47  CG        -6.5560    4.3070   30.5860 C.3   140  ARG140      0.0489
     48  CD        -7.1110    4.6900   31.9920 C.3   140  ARG140      0.2205
     49  NE        -8.0480    5.7980   31.7550 N.pl3 140  ARG140     -0.0865
     50  CZ        -8.6020    6.4930   32.7390 C.cat 140  ARG140      0.5346
     51  NH1       -8.2550    6.2120   33.9920 N.pl3 140  ARG140      0.1354
     52  NH2       -9.4530    7.4930   32.4540 N.pl3 140  ARG140      0.1354
     53  N         -3.2770   -1.9040   32.0250 N.3   142  PHE142     -0.1241
     54  CA        -3.2230   -2.1800   33.4960 C.3   142  PHE142      0.1605
     55  C         -2.2470   -3.3370   33.7960 C.2   142  PHE142      0.2264
     56  O         -2.3620   -4.4210   33.2100 O.2   142  PHE142     -0.2867
     57  CB        -4.6380   -2.6230   33.9200 C.3   142  PHE142      0.0534
     58  CG        -5.5890   -1.5150   33.8990 C.ar  142  PHE142     -0.0203
     59  CD1       -6.1920   -1.1530   32.6980 C.ar  142  PHE142     -0.0042
     60  CD2       -5.8800   -0.7880   35.0910 C.ar  142  PHE142     -0.0042
     61  CE1       -7.0760   -0.0120   32.6650 C.ar  142  PHE142     -0.0003
     62  CE2       -6.7540    0.3380   35.0740 C.ar  142  PHE142     -0.0003
     63  CZ        -7.3710    0.6820   33.8430 C.ar  142  PHE142     -0.0000
     64  N         -2.1120    5.3740   28.4740 N.3   166  ALA166     -0.1231
     65  CA        -1.8000    5.6210   29.8790 C.3   166  ALA166      0.1694
     66  C         -1.4680    4.2390   30.5330 C.2   166  ALA166      0.2592
     67  O         -2.2600    3.3390   30.3710 O.2   166  ALA166     -0.2718
     68  CB        -3.0320    6.2160   30.5470 C.3   166  ALA166      0.0304
     69  N         -0.3900    4.1360   31.3130 N.am  167  VAL167     -0.1966
     70  CA         0.0250    2.8600   31.9710 C.3   167  VAL167      0.1727
     71  C         -0.4430    2.9700   33.4160 C.2   167  VAL167      0.2616
     72  O         -0.1170    3.9690   34.1120 O.2   167  VAL167     -0.2715
     73  CB         1.5630    2.6640   31.9310 C.3   167  VAL167      0.0290
     74  CG1        2.0530    1.3440   32.6850 C.3   167  VAL167      0.0023
     75  CG2        2.0430    2.6500   30.4500 C.3   167  VAL167      0.0023
     76  N         -1.2650    2.0240   33.8370 N.am  168  VAL168     -0.1977
     77  CA        -1.8230    2.1000   35.2180 C.3   168  VAL168      0.1596
     78  C         -1.2090    0.9240   35.9850 C.2   168  VAL168      0.2287
     79  O         -1.3840   -0.2190   35.5890 O.2   168  VAL168     -0.2864
     80  CB        -3.3220    1.9600   35.2490 C.3   168  VAL168      0.0276
     81  CG1       -3.8000    2.0160   36.7790 C.3   168  VAL168      0.0022
     82  CG2       -4.0170    3.1680   34.3870 C.3   168  VAL168      0.0022
@<TRIPOS>BOND
     1     1     2    1
     2     2     3    1
     3     2     5    1
     4     3     4    2
     5     6     5    1
     6     6     7    1
     7    42    43    1
     8     7     8    1
     9    64    65    1
    10    45    44    2
    11    44    43    1
    12    43    46    1
    13     8     9    2
    14    65    66    1
    15    65    68    1
    16    67    66    2
    17    75    73    1
    18     9    11    1
    19     9    10    1
    20    66    69   am
    21    46    47    1
    22    47    48    1
    23    38    37    2
    24    69    70    1
    25    37    36    1
    26    49    48    1
    27    49    50    2
    28    73    70    1
    29    73    74    1
    30    70    71    1
    31    53    54    1
    32    52    50    1
    33    33    32    1
    34    61    59   ar
    35    61    63   ar
    36    59    58   ar
    37    50    51    1
    38    31    30    2
    39    36    39    1
    40    36    35    1
    41    56    55    2
    42    39    40    1
    43    32    34    1
    44    32    29    1
    45    71    76   am
    46    71    72    2
    47    54    55    1
    48    54    57    1
    49    30    35   am
    50    30    29    1
    51    35    41    1
    52    76    77    1
    53    63    62   ar
    54    58    57    1
    55    58    60   ar
    56    29    28    1
    57    82    80    1
    58    41    40    1
    59    62    60   ar
    60    28    19   am
    61    77    80    1
    62    77    78    1
    63    80    81    1
    64    79    78    2
    65    17    18    1
    66    19    20    2
    67    19    18    1
    68    15    14    2
    69    14    13    1
    70    18    21    1
    71    13    12    1
    72    13    16    1
    73    21    22    1
    74    22    23    1
    75    23    24    1
    76    24    25    2
    77    25    26    1
    78    25    27    1
