@<TRIPOS>MOLECULE
tmp/4muhB00.pdb
 177 171 0 0 0
SMALL
GASTEIGER

@<TRIPOS>ATOM
      1  N         -3.1970   -7.2200   30.0690 N.3    38  PRO38      -0.2102
      2  CA        -2.4860   -8.3180   29.3690 C.3    38  PRO38       0.1504
      3  C         -2.1250   -9.4100   30.4140 C.2    38  PRO38       0.2576
      4  O         -1.5570   -9.1250   31.5060 O.2    38  PRO38      -0.2718
      5  CB        -1.1560   -7.6690   28.9020 C.3    38  PRO38       0.0282
      6  CG        -1.3600   -6.1170   29.0680 C.3    38  PRO38       0.0208
      7  CD        -2.3710   -6.0040   30.2610 C.3    38  PRO38       0.0893
      8  N         -2.3250  -10.6330   29.9880 N.am   39  THR39      -0.1939
      9  CA        -2.1030  -11.8060   30.9150 C.3    39  THR39       0.2028
     10  C         -1.5190  -12.9730   30.1600 C.2    39  THR39       0.2642
     11  O         -1.5340  -13.0130   28.9200 O.2    39  THR39      -0.2714
     12  CB        -3.4230  -12.3370   31.6480 C.3    39  THR39       0.1808
     13  OG1       -4.1760  -13.2300   30.8380 O.3    39  THR39      -0.2208
     14  CG2       -4.3250  -11.1900   32.2140 C.3    39  THR39       0.0379
     15  N         -1.0910  -13.9940   30.9240 N.am   40  MET40      -0.1962
     16  CA        -0.7020  -15.2280   30.2550 C.3    40  MET40       0.1736
     17  C         -1.6230  -16.3760   30.6640 C.2    40  MET40       0.2617
     18  O         -1.2430  -17.5620   30.5280 O.2    40  MET40      -0.2715
     19  CB         0.7550  -15.5970   30.5820 C.3    40  MET40       0.0427
     20  CG         1.7310  -14.4390   30.2980 C.3    40  MET40       0.0599
     21  SD         3.4000  -15.0250   30.4810 S.3    40  MET40      -0.1393
     22  CE         3.4900  -16.6310   29.6690 C.3    40  MET40       0.0692
     23  N         -2.8350  -16.0450   31.0450 N.am   41  GLY41      -0.1955
     24  CA        -3.8290  -17.0590   31.4100 C.3    41  GLY41       0.1869
     25  C         -3.5640  -17.6390   32.8140 C.2    41  GLY41       0.2309
     26  O         -2.7900  -17.0590   33.5890 O.2    41  GLY41      -0.2863
     27  N         -5.6010  -15.4680   38.2670 N.3    44  HIS44      -0.1241
     28  CA        -5.7900  -15.4770   39.7060 C.3    44  HIS44       0.1621
     29  C         -6.3730  -14.1610   40.2200 C.2    44  HIS44       0.2264
     30  O         -6.7250  -13.2770   39.4090 O.2    44  HIS44      -0.2867
     31  CB        -4.4690  -15.8790   40.3770 C.3    44  HIS44       0.0745
     32  CG        -3.3390  -14.9040   40.1430 C.ar   44  HIS44       0.0817
     33  ND1       -2.1290  -15.2540   39.5840 N.ar   44  HIS44      -0.2268
     34  CD2       -3.2750  -13.5710   40.3570 C.ar   44  HIS44       0.1154
     35  CE1       -1.3460  -14.1750   39.5250 C.ar   44  HIS44       0.1986
     36  NE2       -2.0260  -13.1500   39.9850 N.ar   44  HIS44      -0.2212
     37  N         -5.1460  -11.6520   41.5800 N.3    46  GLY46      -0.1210
     38  CA        -4.3900  -10.4810   41.1270 C.3    46  GLY46       0.1956
     39  C         -4.8290  -10.0240   39.7400 C.2    46  GLY46       0.2611
     40  O         -5.0020   -8.8220   39.5100 O.2    46  GLY46      -0.2717
     41  N         -4.9950  -10.9580   38.8150 N.am   47  HIS47      -0.1975
     42  CA        -5.5710  -10.5960   37.4780 C.3    47  HIS47       0.1656
     43  C         -6.9730   -9.9890   37.6190 C.2    47  HIS47       0.2291
     44  O         -7.3450   -8.9980   36.9430 O.2    47  HIS47      -0.2864
     45  CB        -5.5790  -11.7960   36.5770 C.3    47  HIS47       0.0771
     46  CG        -4.2280  -12.3440   36.3370 C.ar   47  HIS47       0.0820
     47  ND1       -3.8420  -13.5890   36.8020 N.ar   47  HIS47      -0.2267
     48  CD2       -3.1280  -11.7820   35.7840 C.ar   47  HIS47       0.1154
     49  CE1       -2.5700  -13.7900   36.4860 C.ar   47  HIS47       0.1986
     50  NE2       -2.1180  -12.7080   35.8570 N.ar   47  HIS47      -0.2212
     51  N         -8.1140   -8.3160   40.0490 N.3    49  ALA49      -0.1231
     52  CA        -7.9290   -6.9310   40.5370 C.3    49  ALA49       0.1694
     53  C         -7.5820   -5.9630   39.3850 C.2    49  ALA49       0.2591
     54  O         -8.1220   -4.8160   39.3300 O.2    49  ALA49      -0.2718
     55  CB        -6.8370   -6.8750   41.6410 C.3    49  ALA49       0.0304
     56  N         -6.8020   -6.4460   38.4130 N.am   50  LEU50      -0.1980
     57  CA        -6.5820   -5.5840   37.2110 C.3    50  LEU50       0.1596
     58  C         -7.8910   -5.3470   36.4530 C.2    50  LEU50       0.2287
     59  O         -8.1580   -4.2160   36.0220 O.2    50  LEU50      -0.2864
     60  CB        -5.5430   -6.1530   36.2810 C.3    50  LEU50       0.0297
     61  CG        -4.2340   -6.6360   36.9590 C.3    50  LEU50       0.0022
     62  CD1       -3.2730   -7.2900   35.9280 C.3    50  LEU50       0.0001
     63  CD2       -3.5810   -5.4880   37.6820 C.3    50  LEU50       0.0001
     64  N          3.9190  -16.1150   25.9800 N.3    69  ASN69      -0.1240
     65  CA         4.9340  -15.6270   25.0390 C.3    69  ASN69       0.1653
     66  C          6.2340  -16.4500   25.0730 C.2    69  ASN69       0.2266
     67  O          6.9450  -16.4070   26.0860 O.2    69  ASN69      -0.2867
     68  CB         5.1830  -14.1090   25.2330 C.3    69  ASN69       0.1155
     69  CG         4.7980  -13.6160   26.6190 C.2    69  ASN69       0.2627
     70  OD1        3.7840  -12.9210   26.7990 O.2    69  ASN69      -0.2716
     71  ND2        5.6020  -13.9680   27.6060 N.am   69  ASN69      -0.0877
     72  N         15.8730  -11.0400   28.7200 N.3   121  HIS121     -0.1241
     73  CA        14.5330  -11.3880   29.1770 C.3   121  HIS121      0.1621
     74  C         13.4310  -10.2640   28.9690 C.2   121  HIS121      0.2264
     75  O         12.2570  -10.4860   28.5190 O.2   121  HIS121     -0.2867
     76  CB        14.6200  -11.8000   30.6400 C.3   121  HIS121      0.0745
     77  CG        13.2980  -11.7950   31.3170 C.ar  121  HIS121      0.0817
     78  ND1       13.0100  -10.9500   32.3730 N.ar  121  HIS121     -0.2268
     79  CD2       12.1520  -12.4570   31.0270 C.ar  121  HIS121      0.1154
     80  CE1       11.7430  -11.1110   32.7160 C.ar  121  HIS121      0.1986
     81  NE2       11.1990  -12.0160   31.9140 N.ar  121  HIS121     -0.2212
     82  N          9.3990   -9.4660   26.7050 N.3   125  VAL125     -0.1245
     83  CA         8.2230   -8.8000   27.3040 C.3   125  VAL125      0.1561
     84  C          7.8590   -7.4890   26.5880 C.2   125  VAL125      0.2260
     85  O          6.6930   -7.2460   26.2870 O.2   125  VAL125     -0.2867
     86  CB         8.4490   -8.4520   28.8490 C.3   125  VAL125      0.0252
     87  CG1        7.1900   -7.7560   29.4190 C.3   125  VAL125      0.0019
     88  CG2        8.7860   -9.7330   29.6410 C.3   125  VAL125      0.0019
     89  N         -1.2580   -3.0510   34.6390 N.3   143  PHE143     -0.1227
     90  CA        -0.3380   -4.1070   35.0870 C.3   143  PHE143      0.1736
     91  C         -0.3230   -4.1150   36.6390 C.2   143  PHE143      0.2596
     92  O         -0.5110   -3.0780   37.2690 O.2   143  PHE143     -0.2718
     93  CB         1.0560   -3.7550   34.6600 C.3   143  PHE143      0.0547
     94  CG         1.2800   -3.8330   33.1760 C.ar  143  PHE143     -0.0202
     95  CD1        1.4360   -5.0950   32.5480 C.ar  143  PHE143     -0.0042
     96  CD2        1.2350   -2.6660   32.4150 C.ar  143  PHE143     -0.0042
     97  CE1        1.5890   -5.1870   31.1210 C.ar  143  PHE143     -0.0003
     98  CE2        1.4260   -2.6980   31.0330 C.ar  143  PHE143     -0.0003
     99  CZ         1.6030   -3.9600   30.3540 C.ar  143  PHE143     -0.0000
    100  N          0.0570   -5.2540   37.2420 N.am  144  GLY144     -0.1957
    101  CA         0.3180   -5.2970   38.6910 C.3   144  GLY144      0.1869
    102  C          1.6880   -4.7170   38.9940 C.2   144  GLY144      0.2309
    103  O          2.5610   -4.6390   38.1290 O.2   144  GLY144     -0.2863
    104  N          3.6480   -6.0190   40.9210 N.3   146  LYS146     -0.1231
    105  CA         4.5080   -7.1080   41.3540 C.3   146  LYS146      0.1693
    106  C          5.7880   -7.1640   40.5710 C.2   146  LYS146      0.2592
    107  O          6.8480   -7.2580   41.1510 O.2   146  LYS146     -0.2718
    108  CB         3.8500   -8.4810   41.2940 C.3   146  LYS146      0.0285
    109  CG         4.5720   -9.3060   42.4500 C.3   146  LYS146      0.0035
    110  CD         4.1840  -10.7110   42.4280 C.3   146  LYS146      0.0206
    111  CE         5.2490  -11.5980   42.8640 C.3   146  LYS146      0.1093
    112  NZ         6.5240  -11.5010   42.1930 N.3   146  LYS146     -0.1314
    113  N          5.7030   -7.0840   39.2590 N.am  147  ASP147     -0.1974
    114  CA         6.9790   -7.0990   38.5770 C.3   147  ASP147      0.1709
    115  C          7.3190   -5.6190   38.3300 C.2   147  ASP147      0.2293
    116  O          7.0740   -5.0890   37.2570 O.2   147  ASP147     -0.2864
    117  CB         6.8150   -7.8770   37.2820 C.3   147  ASP147      0.1436
    118  CG         6.5780   -9.3680   37.5620 C.2   147  ASP147      0.3671
    119  OD1        7.5460   -9.9650   38.0870 O.co2 147  ASP147     -0.2456
    120  OD2        5.4560   -9.9140   37.2310 O.co2 147  ASP147     -0.2456
    121  N          9.8250   -4.6080   35.4790 N.3   150  GLN150     -0.1245
    122  CA         9.0500   -4.6900   34.2500 C.3   150  GLN150      0.1566
    123  C          8.1940   -3.4530   34.0570 C.2   150  GLN150      0.2260
    124  O          8.1660   -2.8960   32.9660 O.2   150  GLN150     -0.2867
    125  CB         8.1070   -5.8950   34.2730 C.3   150  GLN150      0.0367
    126  CG         7.4820   -6.0660   32.8810 C.3   150  GLN150      0.0905
    127  CD         6.7060   -7.3680   32.8800 C.2   150  GLN150      0.2608
    128  OE1        5.4760   -7.3580   33.0880 O.2   150  GLN150     -0.2717
    129  NE2        7.4150   -8.4650   32.7530 N.am  150  GLN150     -0.0878
    130  N         -1.2830   -1.3100   39.3420 N.3   170  VAL170     -0.1231
    131  CA        -2.3290   -1.6460   40.3280 C.3   170  VAL170      0.1678
    132  C         -1.5690   -2.3120   41.4930 C.2   170  VAL170      0.2434
    133  O         -0.7130   -3.2030   41.2610 O.2   170  VAL170     -0.2733
    134  CB        -3.3310   -2.6550   39.7290 C.3   170  VAL170      0.0265
    135  CG1       -4.3530   -3.1760   40.7920 C.3   170  VAL170      0.0020
    136  CG2       -4.0780   -1.9990   38.5190 C.3   170  VAL170      0.0020
    137  N         -1.8570   -1.9070   42.7580 N.am  171  PRO171     -0.2718
    138  CA        -1.1300   -2.5560   43.8690 C.3   171  PRO171      0.1535
    139  C         -1.2260   -4.0940   43.8540 C.2   171  PRO171      0.2599
    140  O         -2.2900   -4.6900   43.5490 O.2   171  PRO171     -0.2715
    141  CB        -1.8000   -1.9690   45.1510 C.3   171  PRO171      0.0310
    142  CG        -2.3770   -0.5780   44.6590 C.3   171  PRO171      0.0237
    143  CD        -2.8260   -0.8920   43.2090 C.3   171  PRO171      0.0939
    144  N         -0.1090   -4.6980   44.2240 N.am  172  THR172     -0.1937
    145  CA         0.0010   -6.1840   44.1760 C.3   172  THR172      0.2028
    146  C         -1.0340   -6.7910   45.1720 C.2   172  THR172      0.2642
    147  O         -1.0540   -6.4200   46.3480 O.2   172  THR172     -0.2714
    148  CB         1.4090   -6.5290   44.5730 C.3   172  THR172      0.1808
    149  OG1        2.3290   -5.9620   43.5890 O.3   172  THR172     -0.2208
    150  CG2        1.5990   -8.1310   44.5220 C.3   172  THR172      0.0379
    151  N         -1.8340   -7.7380   44.7050 N.am  173  VAL173     -0.1977
    152  CA        -2.6850   -8.4920   45.5340 C.3   173  VAL173      0.1596
    153  C         -1.8250   -9.5500   46.3040 C.2   173  VAL173      0.2287
    154  O         -0.9080  -10.1730   45.7510 O.2   173  VAL173     -0.2864
    155  CB        -3.7690   -9.1890   44.7150 C.3   173  VAL173      0.0276
    156  CG1       -4.5750  -10.1240   45.6220 C.3   173  VAL173      0.0022
    157  CG2       -4.7530   -8.1020   44.0360 C.3   173  VAL173      0.0022
    158  N          0.9510  -12.4750   45.4540 N.3   181  MET181     -0.1230
    159  CA         0.4290  -13.5540   44.6320 C.3   181  MET181      0.1702
    160  C          1.3280  -13.8520   43.4350 C.2   181  MET181      0.2593
    161  O          1.9580  -12.9540   42.8840 O.2   181  MET181     -0.2718
    162  CB        -1.0080  -13.2870   44.1640 C.3   181  MET181      0.0401
    163  CG        -2.0140  -13.8590   45.1850 C.3   181  MET181      0.0596
    164  SD        -3.6290  -13.5970   44.4970 S.3   181  MET181     -0.1393
    165  CE        -4.5950  -13.7360   46.0370 C.3   181  MET181      0.0692
    166  N          1.4630  -15.1410   43.1420 N.am  182  SER182     -0.1938
    167  CA         2.3640  -15.5970   42.1070 C.3   182  SER182      0.2055
    168  C          1.9960  -17.0240   41.7230 C.2   182  SER182      0.2643
    169  O          1.6340  -17.8670   42.5630 O.2   182  SER182     -0.2714
    170  CB         3.8240  -15.5860   42.5920 C.3   182  SER182      0.2130
    171  OG         4.6820  -16.2280   41.6520 O.3   182  SER182     -0.2179
    172  N          2.0770  -17.2390   40.4230 N.am  183  SER183     -0.1949
    173  CA         1.9010  -18.5470   39.8370 C.3   183  SER183      0.1924
    174  C          2.8780  -19.5080   40.4670 C.2   183  SER183      0.2314
    175  O          2.6690  -20.7420   40.4590 O.2   183  SER183     -0.2863
    176  CB         2.0950  -18.4610   38.2900 C.3   183  SER183      0.2116
    177  OG         3.4300  -18.1160   37.9220 O.3   183  SER183     -0.2180
@<TRIPOS>BOND
     1    65    66    1
     2    65    68    1
     3    65    64    1
     4    66    67    2
     5    68    69    1
     6    85    84    2
     7    84    83    1
     8    69    70    2
     9    69    71   am
    10    82    83    1
    11    83    86    1
    12    75    74    2
    13    72    73    1
    14    86    87    1
    15    86    88    1
    16     5     6    1
    17     5     2    1
    18    11    10    2
    19    74    73    1
    20     6     7    1
    21    73    76    1
    22     2     1    1
    23     2     3    1
    24    22    21    1
    25     8     3   am
    26     8     9    1
    27     1     7    1
    28    10     9    1
    29    10    15   am
    30    16    19    1
    31    16    17    1
    32    16    15    1
    33    20    21    1
    34    20    19    1
    35    99    98   ar
    36    99    97   ar
    37     3     4    2
    38    18    17    2
    39    76    77    1
    40    17    23   am
    41    13    12    1
    42     9    12    1
    43    79    77   ar
    44    79    81   ar
    45    98    96   ar
    46    23    24    1
    47    97    95   ar
    48    77    78   ar
    49    24    25    1
    50    12    14    1
    51    81    80   ar
    52    78    80   ar
    53    96    94   ar
    54    95    94   ar
    55   129   127   am
    56    25    26    2
    57   127   126    1
    58   127   128    2
    59   126   125    1
    60   124   123    2
    61    94    93    1
    62   123   122    1
    63   122   125    1
    64   122   121    1
    65    89    90    1
    66    93    90    1
    67    90    91    1
    68    48    50   ar
    69    48    46   ar
    70    50    49   ar
    71    62    61    1
    72    59    58    2
    73    60    61    1
    74    60    57    1
    75    46    45    1
    76    46    47   ar
    77    58    57    1
    78    49    47   ar
    79    45    42    1
    80    91   100   am
    81    91    92    2
    82    44    43    2
    83    61    63    1
    84    57    56    1
    85   120   118   ar
    86   100   101    1
    87   116   115    2
    88   117   118    1
    89   117   114    1
    90    42    43    1
    91    42    41    1
    92   118   119   ar
    93   177   176    1
    94   103   102    2
    95    27    28    1
    96   176   173    1
    97   115   114    1
    98    56    53   am
    99   136   134    1
   100   114   113    1
   101   101   102    1
   102    41    39   am
   103   113   106   am
   104    54    53    2
   105   130   131    1
   106    53    52    1
   107    30    29    2
   108    40    39    2
   109    35    33   ar
   110    35    36   ar
   111    33    32   ar
   112    28    29    1
   113    28    31    1
   114   134   131    1
   115   134   135    1
   116    39    38    1
   117   173   172    1
   118   173   174    1
   119    36    34   ar
   120    51    52    1
   121    32    34   ar
   122    32    31    1
   123   131   132    1
   124   172   168   am
   125   175   174    2
   126    52    55    1
   127   106   107    2
   128   106   105    1
   129   104   105    1
   130    38    37    1
   131   133   132    2
   132   108   105    1
   133   108   109    1
   134   132   137   am
   135   171   170    1
   136   168   167    1
   137   168   169    2
   138   167   170    1
   139   167   166    1
   140   112   111    1
   141   110   109    1
   142   110   111    1
   143   137   143    1
   144   137   138    1
   145   161   160    2
   146   166   160   am
   147   143   142    1
   148   160   159    1
   149   140   139    2
   150   149   148    1
   151   139   138    1
   152   139   144   am
   153   138   141    1
   154   157   155    1
   155   162   159    1
   156   162   163    1
   157   145   144    1
   158   145   148    1
   159   145   146    1
   160   164   163    1
   161   164   165    1
   162   150   148    1
   163   159   158    1
   164   142   141    1
   165   151   146   am
   166   151   152    1
   167   155   152    1
   168   155   156    1
   169   146   147    2
   170   152   153    1
   171   154   153    2
