@<TRIPOS>MOLECULE
tmp/4muiB00.pdb
 192 185 0 0 0
SMALL
GASTEIGER

@<TRIPOS>ATOM
      1  N         -3.4010   -7.2620   29.6990 N.3    37  PRO37      -0.2102
      2  CA        -2.6540   -8.4000   29.1310 C.3    37  PRO37       0.1504
      3  C         -2.3620   -9.4790   30.1850 C.2    37  PRO37       0.2576
      4  O         -2.0470   -9.1550   31.3440 O.2    37  PRO37      -0.2718
      5  CB        -1.3390   -7.7550   28.6500 C.3    37  PRO37       0.0282
      6  CG        -1.5560   -6.1580   28.7630 C.3    37  PRO37       0.0208
      7  CD        -2.5300   -6.0830   29.9390 C.3    37  PRO37       0.0893
      8  N         -2.4780  -10.7300   29.7860 N.am   38  THR38      -0.1939
      9  CA        -2.3150  -11.8870   30.6690 C.3    38  THR38       0.2028
     10  C         -1.6540  -12.9930   29.8720 C.2    38  THR38       0.2642
     11  O         -1.7130  -13.0270   28.6450 O.2    38  THR38      -0.2714
     12  CB        -3.6500  -12.4050   31.3500 C.3    38  THR38       0.1808
     13  OG1       -4.4980  -13.1100   30.4160 O.3    38  THR38      -0.2208
     14  CG2       -4.4650  -11.2770   31.9630 C.3    38  THR38       0.0379
     15  N         -0.9990  -13.8930   30.5800 N.am   39  MET39      -0.1962
     16  CA        -0.5590  -15.1200   29.9680 C.3    39  MET39       0.1736
     17  C         -1.5320  -16.2070   30.3620 C.2    39  MET39       0.2617
     18  O         -1.2070  -17.4130   30.3210 O.2    39  MET39      -0.2715
     19  CB         0.8330  -15.4350   30.4200 C.3    39  MET39       0.0427
     20  CG         1.8690  -14.6230   29.7080 C.3    39  MET39       0.0599
     21  SD         3.4780  -15.3860   30.0140 S.3    39  MET39      -0.1393
     22  CE         3.7790  -14.8150   31.6800 C.3    39  MET39       0.0692
     23  N         -2.7470  -15.7840   30.7030 N.am   40  GLY40      -0.1955
     24  CA        -3.7870  -16.7160   31.1560 C.3    40  GLY40       0.1869
     25  C         -3.5280  -17.2790   32.5500 C.2    40  GLY40       0.2309
     26  O         -2.8250  -16.6530   33.3490 O.2    40  GLY40      -0.2863
     27  N         -5.9550  -15.3830   38.0010 N.3    43  HIS43      -0.1241
     28  CA        -6.1100  -15.4470   39.4440 C.3    43  HIS43       0.1621
     29  C         -6.6540  -14.1230   39.9500 C.2    43  HIS43       0.2264
     30  O         -7.0050  -13.2630   39.1540 O.2    43  HIS43      -0.2867
     31  CB        -4.7870  -15.7990   40.1040 C.3    43  HIS43       0.0745
     32  CG        -3.6930  -14.8260   39.8150 C.ar   43  HIS43       0.0817
     33  ND1       -2.6620  -15.1070   38.9470 N.ar   43  HIS43      -0.2268
     34  CD2       -3.4780  -13.5650   40.2630 C.ar   43  HIS43       0.1154
     35  CE1       -1.8510  -14.0620   38.8860 C.ar   43  HIS43       0.1986
     36  NE2       -2.3170  -13.1200   39.6860 N.ar   43  HIS43      -0.2212
     37  N         -5.4440  -11.5360   41.1820 N.3    45  GLY45      -0.1210
     38  CA        -4.6360  -10.4130   40.7000 C.3    45  GLY45       0.1956
     39  C         -5.0560   -9.9370   39.3150 C.2    45  GLY45       0.2611
     40  O         -5.0770   -8.7370   39.0640 O.2    45  GLY45      -0.2717
     41  N         -5.4350  -10.8630   38.4460 N.am   46  HIS46      -0.1975
     42  CA        -6.0000  -10.5030   37.1340 C.3    46  HIS46       0.1656
     43  C         -7.4010   -9.9060   37.2650 C.2    46  HIS46       0.2291
     44  O         -7.7150   -8.9330   36.6190 O.2    46  HIS46      -0.2864
     45  CB        -6.0090  -11.7010   36.2050 C.3    46  HIS46       0.0771
     46  CG        -4.6480  -12.2480   35.9430 C.ar   46  HIS46       0.0820
     47  ND1       -4.2270  -13.4670   36.4360 N.ar   46  HIS46      -0.2267
     48  CD2       -3.5870  -11.7180   35.2840 C.ar   46  HIS46       0.1154
     49  CE1       -2.9770  -13.6800   36.0550 C.ar   46  HIS46       0.1986
     50  NE2       -2.5670  -12.6340   35.3590 N.ar   46  HIS46      -0.2212
     51  N         -8.5190   -8.2480   39.8070 N.3    48  ALA48      -0.1231
     52  CA        -8.2810   -6.8830   40.2360 C.3    48  ALA48       0.1694
     53  C         -7.9390   -5.9380   39.0800 C.2    48  ALA48       0.2591
     54  O         -8.4350   -4.7840   39.0680 O.2    48  ALA48      -0.2718
     55  CB        -7.2390   -6.7720   41.3920 C.3    48  ALA48       0.0304
     56  N         -7.1450   -6.3940   38.1070 N.am   49  LEU49      -0.1980
     57  CA        -6.8470   -5.5920   36.8740 C.3    49  LEU49       0.1596
     58  C         -8.0890   -5.2920   36.0220 C.2    49  LEU49       0.2287
     59  O         -8.3220   -4.1360   35.6200 O.2    49  LEU49      -0.2864
     60  CB        -5.7780   -6.2440   36.0120 C.3    49  LEU49       0.0297
     61  CG        -4.4580   -6.6110   36.7240 C.3    49  LEU49       0.0022
     62  CD1       -3.5240   -7.2630   35.7560 C.3    49  LEU49       0.0001
     63  CD2       -3.8040   -5.3780   37.3770 C.3    49  LEU49       0.0001
     64  N          9.4290   -9.3230   26.5930 N.3   123  VAL123     -0.1245
     65  CA         8.2480   -8.7040   27.1840 C.3   123  VAL123      0.1561
     66  C          7.8500   -7.3870   26.4580 C.2   123  VAL123      0.2260
     67  O          6.6670   -7.1630   26.1760 O.2   123  VAL123     -0.2867
     68  CB         8.4880   -8.3840   28.7030 C.3   123  VAL123      0.0252
     69  CG1        7.3720   -7.4890   29.2660 C.3   123  VAL123      0.0019
     70  CG2        8.6830   -9.6620   29.5400 C.3   123  VAL123      0.0019
     71  N          6.3800   -8.0590   22.8080 N.3   126  VAL126     -0.1231
     72  CA         5.0110   -8.4530   22.8120 C.3   126  VAL126      0.1692
     73  C          4.0470   -7.3920   23.3610 C.2   126  VAL126      0.2591
     74  O          3.0060   -7.1900   22.7740 O.2   126  VAL126     -0.2718
     75  CB         4.7690   -9.7740   23.5440 C.3   126  VAL126      0.0266
     76  CG1        4.3890   -9.4830   24.9440 C.3   126  VAL126      0.0020
     77  CG2        3.5590  -10.4610   22.9320 C.3   126  VAL126      0.0020
     78  N          4.3940   -6.6880   24.4370 N.am  127  VAL127     -0.1980
     79  CA         3.5580   -5.5780   24.8960 C.3   127  VAL127      0.1595
     80  C          3.4020   -4.5580   23.7660 C.2   127  VAL127      0.2287
     81  O          2.3390   -4.0150   23.5630 O.2   127  VAL127     -0.2864
     82  CB         4.1690   -4.8460   26.1670 C.3   127  VAL127      0.0276
     83  CG1        3.4670   -3.4470   26.3740 C.3   127  VAL127      0.0022
     84  CG2        4.0830   -5.8070   27.4860 C.3   127  VAL127      0.0022
     85  N          0.8510   -5.8790   21.2530 N.3   130  LEU130     -0.1245
     86  CA        -0.5170   -5.9150   21.7610 C.3   130  LEU130      0.1561
     87  C         -1.1000   -4.5220   21.7720 C.2   130  LEU130      0.2260
     88  O         -2.2530   -4.3450   21.4380 O.2   130  LEU130     -0.2867
     89  CB        -0.5550   -6.4480   23.1830 C.3   130  LEU130      0.0270
     90  CG        -0.2220   -7.9440   23.3330 C.3   130  LEU130      0.0019
     91  CD1       -0.1570   -8.2130   24.8220 C.3   130  LEU130      0.0001
     92  CD2       -1.3020   -8.7980   22.6700 C.3   130  LEU130      0.0001
     93  N         -1.4570   -3.1920   34.3800 N.3   141  PHE141     -0.1227
     94  CA        -0.4510   -4.1630   34.8370 C.3   141  PHE141      0.1736
     95  C         -0.4350   -4.0950   36.3640 C.2   141  PHE141      0.2596
     96  O         -0.7240   -3.0240   36.9430 O.2   141  PHE141     -0.2718
     97  CB         0.9520   -3.7870   34.3320 C.3   141  PHE141      0.0547
     98  CG         1.1170   -3.8890   32.8490 C.ar  141  PHE141     -0.0202
     99  CD1        1.3520   -5.1370   32.2540 C.ar  141  PHE141     -0.0042
    100  CD2        1.0470   -2.7380   32.0400 C.ar  141  PHE141     -0.0042
    101  CE1        1.4830   -5.2580   30.8810 C.ar  141  PHE141     -0.0003
    102  CE2        1.1790   -2.8570   30.6830 C.ar  141  PHE141     -0.0003
    103  CZ         1.4230   -4.1350   30.0910 C.ar  141  PHE141     -0.0000
    104  N         -0.0950   -5.2250   36.9930 N.am  142  GLY142     -0.1957
    105  CA         0.0320   -5.3200   38.4190 C.3   142  GLY142      0.1869
    106  C          1.3600   -4.7130   38.8190 C.2   142  GLY142      0.2309
    107  O          2.2920   -4.6380   38.0140 O.2   142  GLY142     -0.2863
    108  N          3.4040   -5.9360   41.0060 N.3   144  LYS144     -0.1231
    109  CA         4.3550   -6.9830   41.5240 C.3   144  LYS144      0.1693
    110  C          5.5840   -7.0340   40.7090 C.2   144  LYS144      0.2592
    111  O          6.6940   -7.1380   41.2300 O.2   144  LYS144     -0.2718
    112  CB         3.7600   -8.4320   41.5840 C.3   144  LYS144      0.0285
    113  CG         4.4480   -9.3490   42.6930 C.3   144  LYS144      0.0035
    114  CD         4.4520  -10.8720   42.4130 C.3   144  LYS144      0.0206
    115  CE         5.8610  -11.3460   41.9500 C.3   144  LYS144      0.1093
    116  NZ         5.9930  -11.3650   40.4220 N.3   144  LYS144     -0.1314
    117  N          5.4240   -7.0130   39.3980 N.am  145  ASP145     -0.1974
    118  CA         6.6070   -7.0070   38.5730 C.3   145  ASP145      0.1709
    119  C          6.9490   -5.5550   38.3040 C.2   145  ASP145      0.2293
    120  O          6.6190   -5.0110   37.2620 O.2   145  ASP145     -0.2864
    121  CB         6.3720   -7.8530   37.3190 C.3   145  ASP145      0.1436
    122  CG         6.1910   -9.3280   37.6630 C.2   145  ASP145      0.3671
    123  OD1        7.1150   -9.9290   38.2240 O.co2 145  ASP145     -0.2456
    124  OD2        5.1070   -9.8770   37.3790 O.co2 145  ASP145     -0.2456
    125  N          9.5340   -4.4440   35.3320 N.3   148  GLN148     -0.1245
    126  CA         8.8240   -4.6590   34.1080 C.3   148  GLN148      0.1566
    127  C          7.8370   -3.5350   33.8700 C.2   148  GLN148      0.2260
    128  O          7.7700   -3.0160   32.7640 O.2   148  GLN148     -0.2867
    129  CB         8.0420   -5.9760   34.1660 C.3   148  GLN148      0.0367
    130  CG         6.9960   -6.1460   33.0260 C.3   148  GLN148      0.0905
    131  CD         6.1410   -7.4210   33.1800 C.2   148  GLN148      0.2608
    132  OE1        6.6580   -8.5460   33.0760 O.2   148  GLN148     -0.2717
    133  NE2        4.8280   -7.2390   33.4550 N.am  148  GLN148     -0.0878
    134  N         -1.5740   -1.3250   39.0520 N.3   168  VAL168     -0.1231
    135  CA        -2.6330   -1.6770   40.0090 C.3   168  VAL168      0.1678
    136  C         -1.9730   -2.3720   41.2210 C.2   168  VAL168      0.2434
    137  O         -1.1520   -3.2980   41.0430 O.2   168  VAL168     -0.2733
    138  CB        -3.6550   -2.6630   39.3520 C.3   168  VAL168      0.0265
    139  CG1       -4.6460   -3.2430   40.4200 C.3   168  VAL168      0.0020
    140  CG2       -4.3940   -1.9790   38.1680 C.3   168  VAL168      0.0020
    141  N         -2.2630   -1.8850   42.4540 N.am  169  PRO169     -0.2718
    142  CA        -1.6360   -2.4900   43.6400 C.3   169  PRO169      0.1535
    143  C         -1.6680   -4.0160   43.5950 C.2   169  PRO169      0.2599
    144  O         -2.6760   -4.6070   43.2170 O.2   169  PRO169     -0.2715
    145  CB        -2.4910   -1.9590   44.8150 C.3   169  PRO169      0.0310
    146  CG        -2.9510   -0.5970   44.3140 C.3   169  PRO169      0.0237
    147  CD        -3.1700   -0.7630   42.8040 C.3   169  PRO169      0.0939
    148  N         -0.5600   -4.6320   43.9700 N.am  170  THR170     -0.1937
    149  CA        -0.4450   -6.0720   44.0070 C.3   170  THR170      0.2028
    150  C         -1.4400   -6.6690   44.9990 C.2   170  THR170      0.2642
    151  O         -1.5270   -6.2220   46.1600 O.2   170  THR170     -0.2714
    152  CB         0.9130   -6.4450   44.4650 C.3   170  THR170      0.1808
    153  OG1        1.8640   -5.7130   43.6840 O.3   170  THR170     -0.2208
    154  CG2        1.1390   -8.0390   44.3840 C.3   170  THR170      0.0379
    155  N         -2.2020   -7.6480   44.4910 N.am  171  VAL171     -0.1977
    156  CA        -3.1190   -8.4030   45.2820 C.3   171  VAL171      0.1596
    157  C         -2.2490   -9.4380   46.0430 C.2   171  VAL171      0.2287
    158  O         -1.3380  -10.0670   45.4690 O.2   171  VAL171     -0.2864
    159  CB        -4.1960   -9.0780   44.3830 C.3   171  VAL171      0.0276
    160  CG1       -4.9660  -10.1920   45.1250 C.3   171  VAL171      0.0022
    161  CG2       -5.2040   -8.0130   43.8380 C.3   171  VAL171      0.0022
    162  N          0.5140  -12.4070   45.4180 N.3   179  MET179     -0.1230
    163  CA        -0.0960  -13.2940   44.4200 C.3   179  MET179      0.1702
    164  C          0.8830  -13.6200   43.3240 C.2   179  MET179      0.2593
    165  O          1.5190  -12.7480   42.7450 O.2   179  MET179     -0.2718
    166  CB        -1.3350  -12.6240   43.8240 C.3   179  MET179      0.0401
    167  CG        -2.5010  -12.6340   44.7520 C.3   179  MET179      0.0596
    168  SD        -3.5360  -14.0050   44.3350 S.3   179  MET179     -0.1393
    169  CE        -4.9310  -13.6820   45.4260 C.3   179  MET179      0.0692
    170  N          1.0460  -14.9080   43.0900 N.am  180  SER180     -0.1938
    171  CA         1.9220  -15.3680   42.0540 C.3   180  SER180      0.2055
    172  C          1.5080  -16.7800   41.6100 C.2   180  SER180      0.2644
    173  O          1.0040  -17.5840   42.4120 O.2   180  SER180     -0.2714
    174  CB         3.3510  -15.3500   42.5690 C.3   180  SER180      0.2130
    175  OG         4.2240  -15.9340   41.6320 O.3   180  SER180     -0.2179
    176  N          1.7270  -17.0870   40.3360 N.am  181  SER181     -0.1935
    177  CA         1.3520  -18.4080   39.8580 C.3   181  SER181      0.2055
    178  C          2.3850  -19.4140   40.3930 C.2   181  SER181      0.2642
    179  O          2.1190  -20.6010   40.4830 O.2   181  SER181     -0.2714
    180  CB         1.2320  -18.4430   38.3330 C.3   181  SER181      0.2130
    181  OG         2.4910  -18.2540   37.7380 O.3   181  SER181     -0.2179
    182  N          3.5420  -18.9260   40.8190 N.am  182  ARG182     -0.1977
    183  CA         4.5460  -19.8190   41.4460 C.3   182  ARG182      0.1597
    184  C          4.2150  -20.2830   42.8920 C.2   182  ARG182      0.2287
    185  O          4.7620  -21.2720   43.3620 O.2   182  ARG182     -0.2864
    186  CB         5.9130  -19.1650   41.4020 C.3   182  ARG182      0.0334
    187  CG         6.5740  -19.2730   40.0190 C.3   182  ARG182      0.0492
    188  CD         7.6050  -18.1740   39.8160 C.3   182  ARG182      0.2205
    189  NE         8.4830  -18.4770   38.6940 N.pl3 182  ARG182     -0.0865
    190  CZ         9.6350  -17.8660   38.4290 C.cat 182  ARG182      0.5346
    191  NH1       10.0690  -16.8620   39.1850 N.pl3 182  ARG182      0.1354
    192  NH2       10.3510  -18.2520   37.3810 N.pl3 182  ARG182      0.1354
@<TRIPOS>BOND
     1    85    86    1
     2    88    87    2
     3    86    87    1
     4    86    89    1
     5    92    90    1
     6    74    73    2
     7    71    72    1
     8    72    73    1
     9    72    75    1
    10    77    75    1
    11    89    90    1
    12    90    91    1
    13    73    78   am
    14    75    76    1
    15    81    80    2
    16    80    79    1
    17    78    79    1
    18    79    82    1
    19    82    83    1
    20    82    84    1
    21    67    66    2
    22    66    65    1
    23    64    65    1
    24    65    68    1
    25    11    10    2
    26     5     6    1
    27     5     2    1
    28    68    69    1
    29    68    70    1
    30     6     7    1
    31     2     1    1
    32     2     3    1
    33     1     7    1
    34    20    21    1
    35    20    19    1
    36     8     3   am
    37     8     9    1
    38    10    15   am
    39    10     9    1
    40    16    17    1
    41    16    19    1
    42    16    15    1
    43    21    22    1
    44   103   102   ar
    45   103   101   ar
    46     3     4    2
    47    18    17    2
    48    17    23   am
    49    13    12    1
    50     9    12    1
    51   102   100   ar
    52    23    24    1
    53   101    99   ar
    54    24    25    1
    55    12    14    1
    56   100    98   ar
    57    99    98   ar
    58    25    26    2
    59   128   127    2
    60    98    97    1
    61   130   131    1
    62   130   129    1
    63   132   131    2
    64   131   133   am
    65   127   126    1
    66   126   129    1
    67   126   125    1
    68    97    94    1
    69    93    94    1
    70    94    95    1
    71    48    50   ar
    72    48    46   ar
    73    50    49   ar
    74    59    58    2
    75    62    61    1
    76    46    45    1
    77    46    47   ar
    78    60    61    1
    79    60    57    1
    80    58    57    1
    81    49    47   ar
    82    45    42    1
    83    95    96    2
    84    95   104   am
    85    44    43    2
    86    61    63    1
    87    57    56    1
    88   104   105    1
    89    42    43    1
    90    42    41    1
    91   120   119    2
    92   121   122    1
    93   121   118    1
    94   124   122   ar
    95   192   190    1
    96   122   123   ar
    97   181   180    1
    98    27    28    1
    99   107   106    2
   100    56    53   am
   101   140   138    1
   102   119   118    1
   103   180   177    1
   104   105   106    1
   105   190   189    2
   106   190   191    1
   107    41    39   am
   108   118   117    1
   109   189   188    1
   110    35    33   ar
   111    35    36   ar
   112    33    32   ar
   113   134   135    1
   114    40    39    2
   115    54    53    2
   116    53    52    1
   117    30    29    2
   118    39    38    1
   119   138   135    1
   120   138   139    1
   121   117   110   am
   122    28    29    1
   123    28    31    1
   124    36    34   ar
   125    51    52    1
   126    32    31    1
   127    32    34   ar
   128   188   187    1
   129   177   176    1
   130   177   178    1
   131   135   136    1
   132   187   186    1
   133    52    55    1
   134   176   172   am
   135   178   179    2
   136   178   182   am
   137   116   115    1
   138    38    37    1
   139   110   111    2
   140   110   109    1
   141   182   183    1
   142   108   109    1
   143   137   136    2
   144   136   141   am
   145   186   183    1
   146   183   184    1
   147   109   112    1
   148   112   113    1
   149   172   171    1
   150   172   173    2
   151   175   174    1
   152   115   114    1
   153   171   174    1
   154   171   170    1
   155   114   113    1
   156   141   147    1
   157   141   142    1
   158   165   164    2
   159   147   146    1
   160   184   185    2
   161   170   164   am
   162   144   143    2
   163   164   163    1
   164   143   142    1
   165   143   148   am
   166   142   145    1
   167   153   152    1
   168   166   163    1
   169   166   167    1
   170   161   159    1
   171   148   149    1
   172   149   152    1
   173   149   150    1
   174   146   145    1
   175   168   167    1
   176   168   169    1
   177   159   160    1
   178   159   156    1
   179   154   152    1
   180   163   162    1
   181   155   150   am
   182   155   156    1
   183   150   151    2
   184   156   157    1
   185   158   157    2
