@<TRIPOS>MOLECULE
tmp/4muiB01.pdb
 76 73 0 0 0
SMALL
GASTEIGER

@<TRIPOS>ATOM
      1  N        -16.8330   -5.2310    9.5850 N.3     2  ILE2       -0.1231
      2  CA       -16.3530   -5.3730   10.9640 C.3     2  ILE2        0.1678
      3  C        -16.7520   -6.7690   11.4930 C.2     2  ILE2        0.2434
      4  O        -17.8830   -7.2330   11.2600 O.2     2  ILE2       -0.2733
      5  CB       -16.9370   -4.2310   11.8490 C.3     2  ILE2        0.0265
      6  CG1      -16.2310   -2.9150   11.5230 C.3     2  ILE2        0.0019
      7  CG2      -16.7630   -4.5220   13.3630 C.3     2  ILE2        0.0020
      8  CD1      -16.9390   -1.7290   12.0340 C.3     2  ILE2        0.0001
      9  N        -15.8350   -7.4510   12.2100 N.am    3  PRO3       -0.2718
     10  CA       -16.2210   -8.7920   12.6730 C.3     3  PRO3        0.1535
     11  C        -17.3290   -8.6300   13.7160 C.2     3  PRO3        0.2598
     12  O        -17.4420   -7.5340   14.3120 O.2     3  PRO3       -0.2715
     13  CB       -14.9160   -9.3370   13.2990 C.3     3  PRO3        0.0310
     14  CG       -13.7970   -8.3830   12.7810 C.3     3  PRO3        0.0237
     15  CD       -14.4940   -7.0690   12.6860 C.3     3  PRO3        0.0939
     16  N        -18.1650   -9.6640   13.9060 N.am    4  ALA4       -0.1964
     17  CA       -19.2480   -9.5720   14.8980 C.3     4  ALA4        0.1728
     18  C        -18.7570   -9.3620   16.3380 C.2     4  ALA4        0.2616
     19  O        -17.8080  -10.0350   16.7990 O.2     4  ALA4       -0.2715
     20  CB       -20.1840  -10.8000   14.8360 C.3     4  ALA4        0.0334
     21  N        -19.4450   -8.4330   17.0110 N.am    5  PHE5       -0.1974
     22  CA       -19.3030   -8.0790   18.4150 C.3     5  PHE5        0.1639
     23  C        -20.7100   -8.0010   19.0460 C.2     5  PHE5        0.2290
     24  O        -21.5620   -7.2680   18.5440 O.2     5  PHE5       -0.2864
     25  CB       -18.5960   -6.7160   18.5750 C.3     5  PHE5        0.0560
     26  CG       -18.5340   -6.2430   19.9980 C.ar    5  PHE5       -0.0200
     27  CD1      -17.6910   -6.8840   20.9270 C.ar    5  PHE5       -0.0042
     28  CD2      -19.3290   -5.1860   20.4380 C.ar    5  PHE5       -0.0042
     29  CE1      -17.6200   -6.4520   22.2630 C.ar    5  PHE5       -0.0003
     30  CE2      -19.2870   -4.7560   21.7830 C.ar    5  PHE5       -0.0003
     31  CZ       -18.4210   -5.4040   22.6970 C.ar    5  PHE5       -0.0000
     32  N        -22.4500   -6.7440   22.3520 N.3     7  PRO7       -0.2116
     33  CA       -22.3220   -5.9820   23.5940 C.3     7  PRO7        0.1372
     34  C        -22.8160   -6.7530   24.8100 C.2     7  PRO7        0.2244
     35  O        -23.8110   -7.4850   24.7140 O.2     7  PRO7       -0.2868
     36  CB       -23.2330   -4.7720   23.3490 C.3     7  PRO7        0.0268
     37  CG       -23.1970   -4.5580   21.9240 C.3     7  PRO7        0.0207
     38  CD       -23.0970   -5.9350   21.2970 C.3     7  PRO7        0.0892
     39  N        -12.6260   -4.6320   15.6080 N.3    22  VAL22      -0.1245
     40  CA       -13.6290   -4.4830   16.6420 C.3    22  VAL22       0.1561
     41  C        -13.2610   -3.3230   17.5920 C.2    22  VAL22       0.2260
     42  O        -14.1030   -2.4700   17.8790 O.2    22  VAL22      -0.2867
     43  CB       -13.8690   -5.8060   17.4390 C.3    22  VAL22       0.0252
     44  CG1      -14.8340   -5.5800   18.6010 C.3    22  VAL22       0.0019
     45  CG2      -14.4540   -6.8780   16.5300 C.3    22  VAL22       0.0019
     46  N        -13.9290   -0.2170   15.7420 N.3    25  ALA25      -0.1231
     47  CA       -15.3910    0.0280   15.7060 C.3    25  ALA25       0.1694
     48  C        -15.9290    0.5520   17.0730 C.2    25  ALA25       0.2591
     49  O        -16.8290    1.4240   17.1370 O.2    25  ALA25      -0.2718
     50  CB       -16.1440   -1.2180   15.2840 C.3    25  ALA25       0.0304
     51  N        -15.3830    0.0000   18.1670 N.am   26  LEU26      -0.1980
     52  CA       -15.8470    0.3630   19.5020 C.3    26  LEU26       0.1596
     53  C        -15.4390    1.7930   19.8730 C.2    26  LEU26       0.2287
     54  O        -16.2780    2.5860   20.3390 O.2    26  LEU26      -0.2864
     55  CB       -15.3470   -0.6480   20.5500 C.3    26  LEU26       0.0297
     56  CG       -16.1160   -1.9580   20.5240 C.3    26  LEU26       0.0022
     57  CD1      -15.4110   -2.9890   21.3660 C.3    26  LEU26       0.0001
     58  CD2      -17.4880   -1.6980   21.0490 C.3    26  LEU26       0.0001
     59  N        -17.5790    4.3350   18.3850 N.3    29  THR29      -0.1218
     60  CA       -18.9480    4.4070   18.9080 C.3    29  THR29       0.1862
     61  C        -18.9920    5.0670   20.2910 C.2    29  THR29       0.2287
     62  O        -20.0660    5.1770   20.8970 O.2    29  THR29      -0.2866
     63  CB       -19.6540    3.0170   19.0220 C.3    29  THR29       0.1770
     64  OG1      -18.9300    2.1660   19.9320 O.3    29  THR29      -0.2211
     65  CG2      -19.8490    2.3170   17.6610 C.3    29  THR29       0.0375
     66  N        -16.9870    4.1260   23.1590 N.3    31  ARG31      -0.1245
     67  CA       -16.3680    3.3120   24.2160 C.3    31  ARG31       0.1563
     68  C        -14.8810    3.6050   24.4000 C.2    31  ARG31       0.2260
     69  O        -14.1890    4.0040   23.4480 O.2    31  ARG31      -0.2867
     70  CB       -16.6670    1.8240   23.9710 C.3    31  ARG31       0.0307
     71  CG       -18.1880    1.5500   23.9380 C.3    31  ARG31       0.0489
     72  CD       -18.7140    0.7280   25.1430 C.3    31  ARG31       0.2205
     73  NE       -19.3000   -0.5400   24.6730 N.pl3  31  ARG31      -0.0865
     74  CZ       -19.3340   -1.6620   25.3750 C.cat  31  ARG31       0.5346
     75  NH1      -19.8970   -2.7470   24.8550 N.pl3  31  ARG31       0.1354
     76  NH2      -18.8000   -1.7100   26.5940 N.pl3  31  ARG31       0.1354
@<TRIPOS>BOND
     1     1     2    1
     2     2     3    1
     3     2     5    1
     4     4     3    2
     5     3     9   am
     6     6     5    1
     7     6     8    1
     8     5     7    1
     9     9    10    1
    10     9    15    1
    11    10    13    1
    12    10    11    1
    13    15    14    1
    14    14    13    1
    15    11    16   am
    16    11    12    2
    17    16    17    1
    18    20    17    1
    19    17    18    1
    20    50    47    1
    21    39    40    1
    22    47    46    1
    23    47    48    1
    24    18    19    2
    25    18    21   am
    26    45    43    1
    27    40    43    1
    28    40    41    1
    29    21    22    1
    30    48    49    2
    31    48    51   am
    32    43    44    1
    33    41    42    2
    34    65    63    1
    35    51    52    1
    36    59    60    1
    37    22    25    1
    38    22    23    1
    39    24    23    2
    40    25    26    1
    41    60    63    1
    42    60    61    1
    43    63    64    1
    44    52    53    1
    45    52    55    1
    46    53    54    2
    47    26    28   ar
    48    26    27   ar
    49    61    62    2
    50    28    30   ar
    51    56    55    1
    52    56    58    1
    53    56    57    1
    54    27    29   ar
    55    38    37    1
    56    38    32    1
    57    30    31   ar
    58    37    36    1
    59    29    31   ar
    60    32    33    1
    61    66    67    1
    62    36    33    1
    63    69    68    2
    64    33    34    1
    65    71    70    1
    66    71    72    1
    67    70    67    1
    68    67    68    1
    69    73    72    1
    70    73    74    2
    71    35    34    2
    72    75    74    1
    73    74    76    1
