@<TRIPOS>MOLECULE
tmp/4mujA00.pdb
 225 215 0 0 0
SMALL
GASTEIGER

@<TRIPOS>ATOM
      1  N          8.5270   11.5900    5.7420 N.3    36  PRO36      -0.2102
      2  CA         9.6730   11.8090    6.6570 C.3    36  PRO36       0.1504
      3  C         10.8010   12.2630    5.7780 C.2    36  PRO36       0.2576
      4  O         10.9780   11.7120    4.6660 O.2    36  PRO36      -0.2718
      5  CB         9.9650   10.4260    7.2020 C.3    36  PRO36       0.0282
      6  CG         8.6810    9.6570    7.0670 C.3    36  PRO36       0.0208
      7  CD         8.1480   10.1510    5.7400 C.3    36  PRO36       0.0893
      8  N         11.4730   13.3210    6.2110 N.am   37  THR37      -0.1939
      9  CA        12.7060   13.7320    5.5150 C.3    37  THR37       0.2028
     10  C         13.8170   14.1220    6.5310 C.2    37  THR37       0.2642
     11  O         13.5510   14.4870    7.6740 O.2    37  THR37      -0.2714
     12  CB        12.4570   14.9740    4.6060 C.3    37  THR37       0.1808
     13  OG1       12.4750   16.1800    5.3750 O.3    37  THR37      -0.2208
     14  CG2       11.0690   14.8960    3.8910 C.3    37  THR37       0.0379
     15  N         15.0290   14.2090    6.0410 N.am   38  MET38      -0.1976
     16  CA        16.0750   14.7790    6.8370 C.3    38  MET38       0.1605
     17  C         16.4910   16.1520    6.2870 C.2    38  MET38       0.2287
     18  O         17.6250   16.6330    6.5220 O.2    38  MET38      -0.2864
     19  CB        17.2210   13.7970    6.9330 C.3    38  MET38       0.0413
     20  CG        16.8230   12.5610    7.6770 C.3    38  MET38       0.0598
     21  SD        18.3170   11.7510    8.3010 S.3    38  MET38      -0.1393
     22  CE        18.7040   11.1200    6.6520 C.3    38  MET38       0.0692
     23  N         15.0100   17.8860   -2.2830 N.3    42  HIS42      -0.1241
     24  CA        15.2440   18.0020   -3.6950 C.3    42  HIS42       0.1621
     25  C         13.9800   17.5240   -4.3050 C.2    42  HIS42       0.2264
     26  O         13.0070   17.2290   -3.5860 O.2    42  HIS42      -0.2867
     27  CB        16.4320   17.1190   -4.1310 C.3    42  HIS42       0.0745
     28  CG        16.3340   15.7230   -3.6150 C.ar   42  HIS42       0.0817
     29  ND1       17.1690   15.2370   -2.6300 N.ar   42  HIS42      -0.2268
     30  CD2       15.3970   14.7670   -3.8320 C.ar   42  HIS42       0.1154
     31  CE1       16.8070   13.9940   -2.3300 C.ar   42  HIS42       0.1986
     32  NE2       15.7180   13.6960   -3.0210 N.ar   42  HIS42      -0.2212
     33  N         13.1500   14.9060   -5.5540 N.3    44  GLY44      -0.1210
     34  CA        12.7790   13.5470   -5.0510 C.3    44  GLY44       0.1956
     35  C         11.8250   13.6090   -3.8390 C.2    44  GLY44       0.2611
     36  O         10.7640   12.9740   -3.8360 O.2    44  GLY44      -0.2717
     37  N         12.1930   14.3800   -2.8190 N.am   45  HIS45      -0.1975
     38  CA        11.2440   14.6700   -1.7460 C.3    45  HIS45       0.1656
     39  C          9.9360   15.3110   -2.2750 C.2    45  HIS45       0.2291
     40  O          8.8320   15.0140   -1.7400 O.2    45  HIS45      -0.2864
     41  CB        11.8360   15.6180   -0.7220 C.3    45  HIS45       0.0771
     42  CG        13.0600   15.0970   -0.0650 C.ar   45  HIS45       0.0820
     43  ND1       14.3210   15.5150   -0.4230 N.ar   45  HIS45      -0.2267
     44  CD2       13.2220   14.1900    0.9260 C.ar   45  HIS45       0.1154
     45  CE1       15.2120   14.8880    0.3260 C.ar   45  HIS45       0.1986
     46  NE2       14.5710   14.0630    1.1350 N.ar   45  HIS45      -0.2212
     47  N          8.5110   14.8830   -5.1340 N.3    47  ALA47      -0.1231
     48  CA         7.6800   13.8290   -5.7050 C.3    47  ALA47       0.1694
     49  C          6.9260   13.0280   -4.6370 C.2    47  ALA47       0.2591
     50  O          5.8500   12.5370   -4.8820 O.2    47  ALA47      -0.2718
     51  CB         8.4800   12.9190   -6.6240 C.3    47  ALA47       0.0304
     52  N          7.5310   12.8320   -3.4600 N.am   48  LEU48      -0.1980
     53  CA         6.8300   12.1160   -2.3720 C.3    48  LEU48       0.1596
     54  C          5.6690   12.9740   -1.9170 C.2    48  LEU48       0.2287
     55  O          4.5860   12.4560   -1.7040 O.2    48  LEU48      -0.2864
     56  CB         7.7690   11.8480   -1.1770 C.3    48  LEU48       0.0297
     57  CG         9.1170   11.1120   -1.3750 C.3    48  LEU48       0.0022
     58  CD1        9.7900   10.8690   -0.0600 C.3    48  LEU48       0.0001
     59  CD2        8.9050    9.7040   -2.0110 C.3    48  LEU48       0.0001
     60  N         13.9100   16.2970   10.1710 N.3    65  PHE65      -0.1241
     61  CA        14.7090   16.0260   11.4250 C.3    65  PHE65       0.1605
     62  C         15.9550   15.2970   11.0720 C.2    65  PHE65       0.2264
     63  O         15.8920   14.2680   10.4530 O.2    65  PHE65      -0.2867
     64  CB        13.8900   15.1740   12.4020 C.3    65  PHE65       0.0534
     65  CG        14.5940   14.8640   13.7220 C.ar   65  PHE65      -0.0203
     66  CD1       14.9890   15.9010   14.5910 C.ar   65  PHE65      -0.0042
     67  CD2       14.8080   13.5520   14.0950 C.ar   65  PHE65      -0.0042
     68  CE1       15.6260   15.5990   15.8130 C.ar   65  PHE65      -0.0003
     69  CE2       15.3990   13.2300   15.3260 C.ar   65  PHE65      -0.0003
     70  CZ        15.8420   14.2580   16.1690 C.ar   65  PHE65      -0.0000
     71  N         18.5410   13.0510   12.2390 N.3    67  ASN67      -0.1240
     72  CA        18.4320   12.1690   13.4270 C.3    67  ASN67       0.1653
     73  C         19.7780   11.7390   13.9100 C.2    67  ASN67       0.2266
     74  O         20.3840   10.8950   13.2160 O.2    67  ASN67      -0.2867
     75  CB        17.7530   10.8550   12.9630 C.3    67  ASN67       0.1155
     76  CG        17.7180    9.8180   14.0570 C.2    67  ASN67       0.2627
     77  OD1       17.6060   10.1650   15.2420 O.2    67  ASN67      -0.2716
     78  ND2       17.8210    8.5150   13.6670 N.am   67  ASN67      -0.0877
     79  N         21.1190    7.5580   13.9070 N.3    70  GLN70      -0.1245
     80  CA        21.5620    6.7480   12.7640 C.3    70  GLN70       0.1566
     81  C         22.9430    7.1590   12.2440 C.2    70  GLN70       0.2260
     82  O         23.3590    6.6440   11.2270 O.2    70  GLN70      -0.2867
     83  CB        20.5870    6.8320   11.6240 C.3    70  GLN70       0.0367
     84  CG        20.4270    8.2730   11.0350 C.3    70  GLN70       0.0905
     85  CD        19.2350    8.3410   10.0870 C.2    70  GLN70       0.2608
     86  OE1       19.4030    8.4450    8.8500 O.2    70  GLN70      -0.2717
     87  NE2       18.0190    8.2400   10.6570 N.am   70  GLN70      -0.0878
     88  N         26.1600   16.7860    7.6730 N.3    80  TYR80      -0.1241
     89  CA        24.8750   16.6610    6.9920 C.3    80  TYR80       0.1605
     90  C         24.3940   18.0140    6.4380 C.2    80  TYR80       0.2264
     91  O         24.4040   19.0090    7.1670 O.2    80  TYR80      -0.2867
     92  CB        23.7740   15.9930    7.8390 C.3    80  TYR80       0.0534
     93  CG        22.8110   15.3150    6.9110 C.ar   80  TYR80      -0.0201
     94  CD1       23.1760   14.1150    6.2530 C.ar   80  TYR80      -0.0009
     95  CD2       21.6000   15.9130    6.5850 C.ar   80  TYR80      -0.0009
     96  CE1       22.3420   13.5290    5.3340 C.ar   80  TYR80       0.0417
     97  CE2       20.7410   15.3310    5.6810 C.ar   80  TYR80       0.0417
     98  CZ        21.1150   14.1360    5.0590 C.ar   80  TYR80       0.1957
     99  OH        20.2610   13.5580    4.1560 O.3    80  TYR80      -0.2866
    100  N         17.7000    4.4500   12.4780 N.3   137  VAL137     -0.1245
    101  CA        16.6540    4.9220   11.5080 C.3   137  VAL137      0.1561
    102  C         15.2570    4.3340   11.9380 C.2   137  VAL137      0.2260
    103  O         14.2190    5.0790   11.9570 O.2   137  VAL137     -0.2867
    104  CB        16.9590    4.2910   10.0890 C.3   137  VAL137      0.0252
    105  CG1       15.7690    4.4300    9.0940 C.3   137  VAL137      0.0019
    106  CG2       18.2840    4.8300    9.4980 C.3   137  VAL137      0.0019
    107  N         13.7320    6.2130   14.9480 N.3   140  VAL140     -0.1231
    108  CA        13.1430    7.4870   14.6560 C.3   140  VAL140      0.1692
    109  C         11.8730    7.3410   13.8050 C.2   140  VAL140      0.2591
    110  O         10.8930    8.0800   14.0020 O.2   140  VAL140     -0.2718
    111  CB        14.2100    8.5540   14.1330 C.3   140  VAL140      0.0266
    112  CG1       14.6220    8.2840   12.6230 C.3   140  VAL140      0.0020
    113  CG2       13.7350   10.0190   14.3600 C.3   140  VAL140      0.0020
    114  N         11.8500    6.3620   12.9130 N.am  141  VAL141     -0.1980
    115  CA        10.6600    6.1820   12.1270 C.3   141  VAL141      0.1595
    116  C          9.4660    5.7650   13.0240 C.2   141  VAL141      0.2287
    117  O          8.3510    6.2710   12.8620 O.2   141  VAL141     -0.2864
    118  CB        10.8710    5.1630   11.0280 C.3   141  VAL141      0.0276
    119  CG1        9.5030    4.8580   10.3490 C.3   141  VAL141      0.0022
    120  CG2       11.7850    5.7880    9.9400 C.3   141  VAL141      0.0022
    121  N          8.2410    8.8300   14.8650 N.3   144  LEU144     -0.1245
    122  CA         7.4690    9.6670   13.9240 C.3   144  LEU144      0.1561
    123  C          6.0580    9.1270   13.6500 C.2   144  LEU144      0.2260
    124  O          5.0880    9.9000   13.6290 O.2   144  LEU144     -0.2867
    125  CB         8.2080    9.8250   12.6010 C.3   144  LEU144      0.0270
    126  CG         9.4870   10.6820   12.7730 C.3   144  LEU144      0.0019
    127  CD1       10.2960   10.5680   11.5240 C.3   144  LEU144      0.0001
    128  CD2        9.2550   12.1830   13.1210 C.3   144  LEU144      0.0001
    129  N          8.0070    6.9150    1.2160 N.3   155  PHE155     -0.1227
    130  CA         9.4830    6.8980    1.1190 C.3   155  PHE155      0.1736
    131  C          9.9520    6.7380   -0.3140 C.2   155  PHE155      0.2596
    132  O          9.2470    6.0840   -1.1010 O.2   155  PHE155     -0.2718
    133  CB         9.9560    5.6950    1.8850 C.3   155  PHE155      0.0547
    134  CG         9.7540    5.8150    3.3400 C.ar  155  PHE155     -0.0202
    135  CD1       10.6160    6.6160    4.1110 C.ar  155  PHE155     -0.0042
    136  CD2        8.6980    5.1480    3.9560 C.ar  155  PHE155     -0.0042
    137  CE1       10.4240    6.7110    5.4890 C.ar  155  PHE155     -0.0003
    138  CE2        8.5140    5.2440    5.2980 C.ar  155  PHE155     -0.0003
    139  CZ         9.3400    6.0480    6.0630 C.ar  155  PHE155     -0.0000
    140  N         11.1510    7.2340   -0.6630 N.am  156  GLY156     -0.1957
    141  CA        11.6480    6.9220   -1.9990 C.3   156  GLY156      0.1869
    142  C         12.2060    5.4920   -2.0560 C.2   156  GLY156      0.2309
    143  O         12.5630    4.9360   -1.0530 O.2   156  GLY156     -0.2863
    144  N         15.0730    4.8390   -3.5570 N.3   158  LYS158     -0.1231
    145  CA        16.5320    4.9610   -3.7280 C.3   158  LYS158      0.1693
    146  C         17.2840    4.2650   -2.5810 C.2   158  LYS158      0.2592
    147  O         18.1620    3.3950   -2.8140 O.2   158  LYS158     -0.2718
    148  CB        16.9850    6.4360   -3.7550 C.3   158  LYS158      0.0285
    149  CG        18.4770    6.3700   -4.1940 C.3   158  LYS158      0.0035
    150  CD        19.2100    7.6270   -4.0210 C.3   158  LYS158      0.0206
    151  CE        20.5770    7.2630   -3.6680 C.3   158  LYS158      0.1093
    152  NZ        20.6290    7.2070   -2.2330 N.3   158  LYS158     -0.1314
    153  N         16.8570    4.5450   -1.3540 N.am  159  ASP159     -0.1974
    154  CA        17.3740    3.7820   -0.2130 C.3   159  ASP159      0.1709
    155  C         16.4900    2.5720    0.0260 C.2   159  ASP159      0.2293
    156  O         15.6330    2.5720    0.9390 O.2   159  ASP159     -0.2864
    157  CB        17.3630    4.6660    1.0280 C.3   159  ASP159      0.1436
    158  CG        18.2990    5.8410    0.8740 C.2   159  ASP159      0.3671
    159  OD1       19.5200    5.6550    1.0010 O.co2 159  ASP159     -0.2456
    160  OD2       17.8030    6.9450    0.6160 O.co2 159  ASP159     -0.2456
    161  N         16.6410    0.4810    3.3840 N.3   162  GLN162     -0.1245
    162  CA        15.9100    1.2420    4.3480 C.3   162  GLN162      0.1566
    163  C         14.3890    1.0350    4.2260 C.2   162  GLN162      0.2260
    164  O         13.7340    0.7820    5.2420 O.2   162  GLN162     -0.2867
    165  CB        16.2950    2.7320    4.2630 C.3   162  GLN162      0.0367
    166  CG        15.3340    3.6760    4.9880 C.3   162  GLN162      0.0905
    167  CD        15.8290    5.0860    4.9380 C.2   162  GLN162      0.2608
    168  OE1       16.7920    5.4430    5.6540 O.2   162  GLN162     -0.2717
    169  NE2       15.2610    5.8720    4.0490 N.am  162  GLN162     -0.0878
    170  N         11.8990   -0.7830    6.8820 N.3   166  ILE166     -0.1245
    171  CA        10.7130   -0.0710    7.3400 C.3   166  ILE166      0.1561
    172  C          9.4400   -0.8790    7.1490 C.2   166  ILE166      0.2260
    173  O          8.5140   -0.8710    8.0210 O.2   166  ILE166     -0.2867
    174  CB        10.6480    1.3470    6.6900 C.3   166  ILE166      0.0252
    175  CG1       11.8150    2.1710    7.2460 C.3   166  ILE166      0.0019
    176  CG2        9.3560    2.0390    7.0010 C.3   166  ILE166      0.0019
    177  CD1       11.9510    3.6390    6.5520 C.3   166  ILE166      0.0001
    178  N          8.0180    5.1840   -3.5260 N.3   182  VAL182     -0.1231
    179  CA         7.8470    6.0380   -4.6860 C.3   182  VAL182      0.1678
    180  C          9.1170    5.8510   -5.5170 C.2   182  VAL182      0.2434
    181  O         10.2460    5.9130   -4.9990 O.2   182  VAL182     -0.2733
    182  CB         7.5660    7.5070   -4.3210 C.3   182  VAL182      0.0265
    183  CG1        7.5220    8.4840   -5.5830 C.3   182  VAL182      0.0020
    184  CG2        6.2710    7.6560   -3.4670 C.3   182  VAL182      0.0020
    185  N          8.9390    5.5280   -6.8160 N.am  183  PRO183     -0.2718
    186  CA        10.0910    5.3000   -7.6630 C.3   183  PRO183      0.1535
    187  C         11.0490    6.5040   -7.6970 C.2   183  PRO183      0.2599
    188  O         10.6430    7.6880   -7.6220 O.2   183  PRO183     -0.2715
    189  CB         9.4380    4.9610   -9.0330 C.3   183  PRO183      0.0310
    190  CG         8.0820    4.2680   -8.6040 C.3   183  PRO183      0.0237
    191  CD         7.6430    5.2230   -7.5060 C.3   183  PRO183      0.0939
    192  N         12.3420    6.2040   -7.6780 N.am  184  THR184     -0.1937
    193  CA        13.3760    7.1870   -7.5500 C.3   184  THR184      0.2028
    194  C         13.3130    8.2720   -8.6360 C.2   184  THR184      0.2642
    195  O         13.2200    7.9690   -9.8420 O.2   184  THR184     -0.2714
    196  CB        14.7500    6.4260   -7.5800 C.3   184  THR184      0.1808
    197  OG1       14.8450    5.5680   -6.4200 O.3   184  THR184     -0.2208
    198  CG2       15.8930    7.3310   -7.5570 C.3   184  THR184      0.0379
    199  N         13.3050    9.5380   -8.2350 N.am  185  VAL185     -0.1977
    200  CA        13.4090   10.6370   -9.2110 C.3   185  VAL185      0.1596
    201  C         14.8560   10.7250   -9.6510 C.2   185  VAL185      0.2287
    202  O         15.7720   10.6040   -8.8150 O.2   185  VAL185     -0.2864
    203  CB        12.9810   12.0410   -8.6250 C.3   185  VAL185      0.0276
    204  CG1       13.1020   13.1550   -9.7090 C.3   185  VAL185      0.0022
    205  CG2       11.5860   12.0350   -8.1090 C.3   185  VAL185      0.0022
    206  N         18.4830   11.1080   -7.6930 N.3   193  MET193     -0.1230
    207  CA        18.4500   12.2610   -6.8120 C.3   193  MET193      0.1702
    208  C         18.9920   11.8940   -5.4440 C.2   193  MET193      0.2593
    209  O         18.7320   10.7980   -4.9110 O.2   193  MET193     -0.2718
    210  CB        16.9780   12.7350   -6.5980 C.3   193  MET193      0.0401
    211  CG        16.3630   13.5580   -7.7020 C.3   193  MET193      0.0596
    212  SD        17.4130   14.8890   -8.2680 S.3   193  MET193     -0.1393
    213  CE        16.3050   15.6120   -9.5020 C.3   193  MET193      0.0692
    214  N         19.8200   12.7660   -4.9020 N.am  194  SER194     -0.1938
    215  CA        20.2750   12.5840   -3.5430 C.3   194  SER194      0.2055
    216  C         20.8070   13.9000   -2.9960 C.2   194  SER194      0.2643
    217  O         21.3960   14.7270   -3.7700 O.2   194  SER194     -0.2714
    218  CB        21.3870   11.5260   -3.4720 C.3   194  SER194      0.2130
    219  OG        21.9810   11.5700   -2.1920 O.3   194  SER194     -0.2179
    220  N         20.6200   14.0910   -1.6900 N.am  195  SER195     -0.1949
    221  CA        21.1400   15.2720   -0.9950 C.3   195  SER195      0.1924
    222  C         22.6550   15.3390   -1.1590 C.2   195  SER195      0.2314
    223  O         23.2340   16.4190   -1.2140 O.2   195  SER195     -0.2863
    224  CB        20.7900   15.1960    0.5000 C.3   195  SER195      0.2116
    225  OG        21.5670   14.1950    1.1370 O.3   195  SER195     -0.2180
@<TRIPOS>BOND
     1   195   194    2
     2   204   203    1
     3   201   200    1
     4   201   202    2
     5   213   212    1
     6   200   203    1
     7   200   199    1
     8   189   190    1
     9   189   186    1
    10   194   199   am
    11   194   193    1
    12   203   205    1
    13   190   191    1
    14   212   211    1
    15   211   210    1
    16   187   192   am
    17   187   186    1
    18   187   188    2
    19   206   207    1
    20   192   193    1
    21   186   185    1
    22   196   198    1
    23   196   193    1
    24   196   197    1
    25   191   185    1
    26   185   180   am
    27   207   210    1
    28   207   208    1
    29    51    48    1
    30    48    47    1
    31    48    49    1
    32   183   182    1
    33    33    34    1
    34   180   181    2
    35   180   179    1
    36   208   209    2
    37   208   214   am
    38    34    35    1
    39   214   215    1
    40    50    49    2
    41   179   182    1
    42   179   178    1
    43    49    52   am
    44   182   184    1
    45    25    24    1
    46    25    26    2
    47   149   150    1
    48   149   148    1
    49    27    24    1
    50    27    28    1
    51   150   151    1
    52    35    36    2
    53    35    37   am
    54    30    28   ar
    55    30    32   ar
    56   217   216    2
    57   148   145    1
    58   145   144    1
    59   145   146    1
    60    24    23    1
    61   151   152    1
    62    28    29   ar
    63   215   218    1
    64   215   216    1
    65   218   219    1
    66    52    53    1
    67    32    31   ar
    68   216   220   am
    69    37    38    1
    70   147   146    2
    71    29    31   ar
    72   146   153   am
    73    53    54    1
    74    53    56    1
    75    39    38    1
    76    39    40    2
    77   142   141    1
    78   142   143    2
    79    59    57    1
    80   141   140    1
    81    54    55    2
    82    38    41    1
    83   220   221    1
    84    57    56    1
    85    57    58    1
    86   153   154    1
    87   223   222    2
    88   222   221    1
    89   132   131    2
    90   221   224    1
    91    41    42    1
    92   140   131   am
    93    43    42   ar
    94    43    45   ar
    95   131   130    1
    96   154   155    1
    97   154   157    1
    98    42    44   ar
    99   155   156    2
   100    45    46   ar
   101   224   225    1
   102   160   158   ar
   103   158   159   ar
   104   158   157    1
   105    44    46   ar
   106   130   129    1
   107   130   133    1
   108   133   134    1
   109   134   136   ar
   110   134   135   ar
   111   161   162    1
   112    14    12    1
   113   136   138   ar
   114   169   167   am
   115   135   137   ar
   116    99    98    1
   117   163   162    1
   118   163   164    2
   119   165   162    1
   120   165   166    1
   121    12    13    1
   122    12     9    1
   123     4     3    2
   124   167   166    1
   125   167   168    2
   126    98    96   ar
   127    98    97   ar
   128   138   139   ar
   129    96    94   ar
   130   137   139   ar
   131     9     8    1
   132     9    10    1
   133    97    95   ar
   134     7     1    1
   135     7     6    1
   136     1     2    1
   137     3     8   am
   138     3     2    1
   139    15    10   am
   140    15    16    1
   141    94    93   ar
   142    17    18    2
   143    17    16    1
   144    90    89    1
   145    90    91    2
   146    10    11    2
   147   177   175    1
   148    95    93   ar
   149    22    21    1
   150     2     5    1
   151   174   176    1
   152   174   175    1
   153   174   171    1
   154    16    19    1
   155   170   171    1
   156    93    92    1
   157    19    20    1
   158    89    88    1
   159    89    92    1
   160     6     5    1
   161   172   171    1
   162   172   173    2
   163    20    21    1
   164    86    85    2
   165   105   104    1
   166   106   104    1
   167   120   118    1
   168    85    87   am
   169    85    84    1
   170   104   101    1
   171    60    61    1
   172   119   118    1
   173    63    62    2
   174   118   115    1
   175    84    83    1
   176    62    61    1
   177    82    81    2
   178    61    64    1
   179   101   102    1
   180   101   100    1
   181   127   126    1
   182    83    80    1
   183   102   103    2
   184   115   114    1
   185   115   116    1
   186    71    72    1
   187    81    80    1
   188    64    65    1
   189   125   126    1
   190   125   122    1
   191   112   111    1
   192    80    79    1
   193   126   128    1
   194   117   116    2
   195   114   109   am
   196    75    72    1
   197    75    76    1
   198    74    73    2
   199    72    73    1
   200   124   123    2
   201   123   122    1
   202    78    76   am
   203    65    67   ar
   204    65    66   ar
   205   109   110    2
   206   109   108    1
   207   122   121    1
   208    76    77    2
   209    67    69   ar
   210   111   113    1
   211   111   108    1
   212    66    68   ar
   213   108   107    1
   214    69    70   ar
   215    68    70   ar
