@<TRIPOS>MOLECULE
tmp/4mujB01.pdb
 76 73 0 0 0
SMALL
GASTEIGER

@<TRIPOS>ATOM
      1  N        -16.9390   -5.3940    9.8670 N.3     3  ILE3       -0.1231
      2  CA       -16.4030   -5.5960   11.2250 C.3     3  ILE3        0.1678
      3  C        -16.8350   -7.0000   11.6960 C.2     3  ILE3        0.2434
      4  O        -17.9810   -7.4090   11.4610 O.2     3  ILE3       -0.2733
      5  CB       -16.9230   -4.4700   12.1510 C.3     3  ILE3        0.0265
      6  CG1      -16.4650   -3.1490   11.5770 C.3     3  ILE3        0.0019
      7  CG2      -16.4860   -4.6500   13.6750 C.3     3  ILE3        0.0020
      8  CD1      -17.2090   -2.0000   12.0870 C.3     3  ILE3        0.0001
      9  N        -15.9220   -7.7510   12.3600 N.am    4  PRO4       -0.2718
     10  CA       -16.3400   -9.0200   12.9540 C.3     4  PRO4        0.1535
     11  C        -17.5190   -8.8230   13.8940 C.2     4  PRO4        0.2598
     12  O        -17.6740   -7.7480   14.4510 O.2     4  PRO4       -0.2715
     13  CB       -15.1100   -9.4540   13.7690 C.3     4  PRO4        0.0310
     14  CG       -13.8930   -8.7610   13.0450 C.3     4  PRO4        0.0237
     15  CD       -14.5090   -7.4060   12.6450 C.3     4  PRO4        0.0939
     16  N        -18.3540   -9.8380   14.0690 N.am    5  ALA5       -0.1964
     17  CA       -19.4480   -9.7860   15.0650 C.3     5  ALA5        0.1728
     18  C        -18.8990   -9.3760   16.4520 C.2     5  ALA5        0.2616
     19  O        -17.8710   -9.9070   16.9100 O.2     5  ALA5       -0.2715
     20  CB       -20.1180  -11.1110   15.1590 C.3     5  ALA5        0.0334
     21  N        -19.5720   -8.4170   17.0820 N.am    6  PHE6       -0.1974
     22  CA       -19.3500   -8.0960   18.4870 C.3     6  PHE6        0.1639
     23  C        -20.7190   -7.9590   19.1130 C.2     6  PHE6        0.2290
     24  O        -21.5650   -7.2400   18.5680 O.2     6  PHE6       -0.2864
     25  CB       -18.5860   -6.7650   18.6500 C.3     6  PHE6        0.0560
     26  CG       -18.5250   -6.2730   20.0720 C.ar    6  PHE6       -0.0200
     27  CD1      -17.6500   -6.8640   21.0010 C.ar    6  PHE6       -0.0042
     28  CD2      -19.3380   -5.2190   20.4920 C.ar    6  PHE6       -0.0042
     29  CE1      -17.5880   -6.3930   22.3240 C.ar    6  PHE6       -0.0003
     30  CE2      -19.2950   -4.7390   21.7870 C.ar    6  PHE6       -0.0003
     31  CZ       -18.4170   -5.3330   22.7220 C.ar    6  PHE6       -0.0000
     32  N        -22.4330   -6.7090   22.4560 N.3     8  PRO8       -0.2116
     33  CA       -22.1880   -5.8890   23.6140 C.3     8  PRO8        0.1372
     34  C        -22.8100   -6.5700   24.8120 C.2     8  PRO8        0.2244
     35  O        -23.7860   -7.3240   24.6540 O.2     8  PRO8       -0.2868
     36  CB       -22.8610   -4.5490   23.2630 C.3     8  PRO8        0.0268
     37  CG       -23.3350   -4.6900   21.8310 C.3     8  PRO8        0.0207
     38  CD       -23.4560   -6.1330   21.5690 C.3     8  PRO8        0.0892
     39  N        -12.5040   -4.5920   15.7130 N.3    23  VAL23      -0.1245
     40  CA       -13.5950   -4.4530   16.6780 C.3    23  VAL23       0.1561
     41  C        -13.2850   -3.3050   17.6930 C.2    23  VAL23       0.2260
     42  O        -14.1450   -2.4730   18.0470 O.2    23  VAL23      -0.2867
     43  CB       -13.7740   -5.8130   17.4630 C.3    23  VAL23       0.0252
     44  CG1      -14.7230   -5.6660   18.6380 C.3    23  VAL23       0.0019
     45  CG2      -14.2460   -6.8890   16.5230 C.3    23  VAL23       0.0019
     46  N        -13.9010   -0.1440   15.7960 N.3    26  ALA26      -0.1231
     47  CA       -15.3570    0.1370   15.7930 C.3    26  ALA26       0.1694
     48  C        -15.8380    0.6600   17.1680 C.2    26  ALA26       0.2591
     49  O        -16.5840    1.6470   17.2420 O.2    26  ALA26      -0.2718
     50  CB       -16.1290   -1.0590   15.3890 C.3    26  ALA26       0.0304
     51  N        -15.3750    0.0330   18.2530 N.am   27  LEU27      -0.1980
     52  CA       -15.7770    0.4130   19.5990 C.3    27  LEU27       0.1596
     53  C        -15.4130    1.8570   19.9670 C.2    27  LEU27       0.2287
     54  O        -16.2940    2.6280   20.4020 O.2    27  LEU27      -0.2864
     55  CB       -15.2420   -0.5720   20.6410 C.3    27  LEU27       0.0297
     56  CG       -16.1460   -1.7730   20.5720 C.3    27  LEU27       0.0022
     57  CD1      -15.5530   -2.9270   21.3190 C.3    27  LEU27       0.0001
     58  CD2      -17.5220   -1.4080   21.1540 C.3    27  LEU27       0.0001
     59  N        -17.5710    4.4250   18.3900 N.3    30  THR30      -0.1218
     60  CA       -18.9210    4.5870   18.8800 C.3    30  THR30       0.1862
     61  C        -18.8430    5.1300   20.2730 C.2    30  THR30       0.2287
     62  O        -19.8300    5.1780   20.9630 O.2    30  THR30      -0.2866
     63  CB       -19.7100    3.2700   18.9200 C.3    30  THR30       0.1770
     64  OG1      -19.0600    2.3600   19.8260 O.3    30  THR30      -0.2211
     65  CG2      -19.8670    2.6600   17.5220 C.3    30  THR30       0.0375
     66  N        -16.8720    4.0720   23.2260 N.3    32  ARG32      -0.1245
     67  CA       -16.3770    3.3510   24.4260 C.3    32  ARG32       0.1563
     68  C        -14.8980    3.6430   24.6530 C.2    32  ARG32       0.2260
     69  O        -14.1730    3.8860   23.7060 O.2    32  ARG32      -0.2867
     70  CB       -16.4880    1.8330   24.3020 C.3    32  ARG32       0.0307
     71  CG       -17.6770    1.2950   23.6390 C.3    32  ARG32       0.0489
     72  CD       -18.8810    1.0820   24.5610 C.3    32  ARG32       0.2205
     73  NE       -18.6990    0.2470   25.7290 N.pl3  32  ARG32      -0.0865
     74  CZ       -18.9780   -1.0650   25.8730 C.cat  32  ARG32       0.5346
     75  NH1      -19.4510   -1.8090   24.8880 N.pl3  32  ARG32       0.1354
     76  NH2      -18.7550   -1.6400   27.0640 N.pl3  32  ARG32       0.1354
@<TRIPOS>BOND
     1     1     2    1
     2     2     3    1
     3     2     5    1
     4     4     3    2
     5     6     8    1
     6     6     5    1
     7     3     9   am
     8     5     7    1
     9     9    15    1
    10     9    10    1
    11    15    14    1
    12    10    13    1
    13    10    11    1
    14    14    13    1
    15    11    16   am
    16    11    12    2
    17    16    17    1
    18    17    20    1
    19    17    18    1
    20    50    47    1
    21    39    40    1
    22    47    46    1
    23    47    48    1
    24    18    19    2
    25    18    21   am
    26    45    43    1
    27    40    43    1
    28    40    41    1
    29    21    22    1
    30    48    49    2
    31    48    51   am
    32    43    44    1
    33    65    63    1
    34    41    42    2
    35    51    52    1
    36    59    60    1
    37    22    25    1
    38    22    23    1
    39    24    23    2
    40    25    26    1
    41    60    63    1
    42    60    61    1
    43    63    64    1
    44    52    53    1
    45    52    55    1
    46    53    54    2
    47    26    28   ar
    48    26    27   ar
    49    61    62    2
    50    28    30   ar
    51    56    55    1
    52    56    58    1
    53    56    57    1
    54    27    29   ar
    55    38    37    1
    56    38    32    1
    57    30    31   ar
    58    37    36    1
    59    29    31   ar
    60    32    33    1
    61    66    67    1
    62    36    33    1
    63    33    34    1
    64    71    70    1
    65    71    72    1
    66    69    68    2
    67    70    67    1
    68    67    68    1
    69    72    73    1
    70    35    34    2
    71    75    74    1
    72    73    74    2
    73    74    76    1
