@<TRIPOS>MOLECULE
tmp/4mukB00.pdb
 198 190 0 0 0
SMALL
GASTEIGER

@<TRIPOS>ATOM
      1  N         -3.2810   -7.2090   29.7900 N.3    38  PRO38      -0.2102
      2  CA        -2.5820   -8.3920   29.2640 C.3    38  PRO38       0.1504
      3  C         -2.3600   -9.4490   30.3230 C.2    38  PRO38       0.2576
      4  O         -2.0400   -9.1220   31.4820 O.2    38  PRO38      -0.2718
      5  CB        -1.1970   -7.8350   28.8760 C.3    38  PRO38       0.0282
      6  CG        -1.4450   -6.2820   28.6350 C.3    38  PRO38       0.0208
      7  CD        -2.4220   -5.9880   29.7750 C.3    38  PRO38       0.0893
      8  N         -2.4630  -10.7030   29.9230 N.am   39  THR39      -0.1939
      9  CA        -2.2240  -11.8240   30.8340 C.3    39  THR39       0.2028
     10  C         -1.4540  -12.9080   30.1050 C.2    39  THR39       0.2642
     11  O         -1.4570  -12.9850   28.8780 O.2    39  THR39      -0.2714
     12  CB        -3.5230  -12.4050   31.4850 C.3    39  THR39       0.1808
     13  OG1       -4.2130  -13.2050   30.5330 O.3    39  THR39      -0.2208
     14  CG2       -4.4800  -11.2540   31.9660 C.3    39  THR39       0.0379
     15  N         -0.8260  -13.7710   30.8880 N.am   40  MET40      -0.1976
     16  CA        -0.0290  -14.8930   30.4020 C.3    40  MET40       0.1605
     17  C         -0.2400  -16.1070   31.3390 C.2    40  MET40       0.2287
     18  O         -0.4960  -15.9060   32.5160 O.2    40  MET40      -0.2864
     19  CB         1.4060  -14.4970   30.5900 C.3    40  MET40       0.0413
     20  CG         2.1920  -14.4030   29.3550 C.3    40  MET40       0.0598
     21  SD         3.8500  -14.8900   29.9110 S.3    40  MET40      -0.1393
     22  CE         4.3230  -13.4980   30.9350 C.3    40  MET40       0.0692
     23  N         -5.1920  -15.7540   37.5120 N.3    44  HIS44      -0.1241
     24  CA        -5.2030  -15.6900   39.0040 C.3    44  HIS44       0.1621
     25  C         -5.8930  -14.4240   39.5430 C.2    44  HIS44       0.2264
     26  O         -6.3640  -13.6100   38.7630 O.2    44  HIS44      -0.2867
     27  CB        -3.7790  -15.8140   39.6070 C.3    44  HIS44       0.0745
     28  CG        -2.8200  -14.7610   39.1330 C.ar   44  HIS44       0.0817
     29  ND1       -1.8270  -15.0210   38.2100 N.ar   44  HIS44      -0.2268
     30  CD2       -2.7000  -13.4480   39.4540 C.ar   44  HIS44       0.1154
     31  CE1       -1.1420  -13.9170   37.9740 C.ar   44  HIS44       0.1986
     32  NE2       -1.6690  -12.9420   38.6980 N.ar   44  HIS44      -0.2212
     33  N         -4.6980  -11.7840   40.9010 N.3    46  GLY46      -0.1210
     34  CA        -3.9990  -10.5700   40.4500 C.3    46  GLY46       0.1956
     35  C         -4.5790  -10.0240   39.1510 C.2    46  GLY46       0.2611
     36  O         -4.8480   -8.8480   39.0590 O.2    46  GLY46      -0.2717
     37  N         -4.7440  -10.8800   38.1750 N.am   47  HIS47      -0.1975
     38  CA        -5.3550  -10.5130   36.9060 C.3    47  HIS47       0.1656
     39  C         -6.8080  -10.0240   37.0910 C.2    47  HIS47       0.2291
     40  O         -7.2120   -9.0420   36.4890 O.2    47  HIS47      -0.2864
     41  CB        -5.3900  -11.6960   35.9570 C.3    47  HIS47       0.0771
     42  CG        -4.0640  -12.2890   35.6390 C.ar   47  HIS47       0.0820
     43  ND1       -3.8480  -13.6550   35.6730 N.ar   47  HIS47      -0.2267
     44  CD2       -2.9160  -11.7340   35.1800 C.ar   47  HIS47       0.1154
     45  CE1       -2.6110  -13.9120   35.2830 C.ar   47  HIS47       0.1986
     46  NE2       -2.0290  -12.7610   34.9670 N.ar   47  HIS47      -0.2212
     47  N         -8.0180   -8.5200   39.7010 N.3    49  ALA49      -0.1231
     48  CA        -7.9600   -7.1390   40.1530 C.3    49  ALA49       0.1694
     49  C         -7.6620   -6.1280   39.0430 C.2    49  ALA49       0.2591
     50  O         -8.1420   -4.9670   39.1200 O.2    49  ALA49      -0.2718
     51  CB        -6.9620   -6.9340   41.3340 C.3    49  ALA49       0.0304
     52  N         -6.8050   -6.5110   38.0910 N.am   50  LEU50      -0.1980
     53  CA        -6.5340   -5.6300   36.8760 C.3    50  LEU50       0.1596
     54  C         -7.8450   -5.4020   36.0740 C.2    50  LEU50       0.2287
     55  O         -8.1980   -4.2780   35.7280 O.2    50  LEU50      -0.2864
     56  CB        -5.5040   -6.2640   35.9510 C.3    50  LEU50       0.0297
     57  CG        -4.1330   -6.6250   36.6130 C.3    50  LEU50       0.0022
     58  CD1       -3.2300   -7.1620   35.4950 C.3    50  LEU50       0.0001
     59  CD2       -3.5170   -5.3600   37.2680 C.3    50  LEU50       0.0001
     60  N         -5.9430   -9.9340   26.9880 N.3    65  SER65      -0.1217
     61  CA        -5.1910  -10.7760   26.0950 C.3    65  SER65       0.1889
     62  C         -4.6790  -11.9580   26.8960 C.2    65  SER65       0.2288
     63  O         -4.3050  -11.8390   28.0610 O.2    65  SER65      -0.2866
     64  CB        -4.0470  -10.0520   25.3620 C.3    65  SER65       0.2089
     65  OG        -3.1800   -9.4680   26.3030 O.3    65  SER65      -0.2183
     66  N         -2.0130  -15.2330   26.4790 N.3    67  PHE67      -0.1241
     67  CA        -0.9290  -15.6320   25.5870 C.3    67  PHE67       0.1605
     68  C         -0.0770  -16.7020   26.2850 C.2    67  PHE67       0.2264
     69  O          1.1810  -16.6030   26.3580 O.2    67  PHE67      -0.2867
     70  CB        -0.2040  -14.3490   25.0610 C.3    67  PHE67       0.0534
     71  CG         0.6820  -14.5500   23.8330 C.ar   67  PHE67      -0.0203
     72  CD1        0.7450  -15.7810   23.1410 C.ar   67  PHE67      -0.0042
     73  CD2        1.4920  -13.4910   23.3770 C.ar   67  PHE67      -0.0042
     74  CE1        1.6030  -15.9430   22.0210 C.ar   67  PHE67      -0.0003
     75  CE2        2.3700  -13.6550   22.2590 C.ar   67  PHE67      -0.0003
     76  CZ         2.4350  -14.8800   21.5920 C.ar   67  PHE67      -0.0000
     77  N         11.8930   -9.5380   25.2630 N.3   122  GLY122     -0.1210
     78  CA        10.7650  -10.3090   24.7380 C.3   122  GLY122      0.1956
     79  C          9.4740   -9.6840   25.2930 C.2   122  GLY122      0.2611
     80  O          8.5420   -9.4730   24.5380 O.2   122  GLY122     -0.2717
     81  N          9.4060   -9.4050   26.5980 N.am  123  VAL123     -0.1979
     82  CA         8.1980   -8.7690   27.1360 C.3   123  VAL123      0.1595
     83  C          7.8420   -7.4500   26.3920 C.2   123  VAL123      0.2287
     84  O          6.7100   -7.3020   25.9100 O.2   123  VAL123     -0.2864
     85  CB         8.2700   -8.5320   28.6860 C.3   123  VAL123      0.0276
     86  CG1        7.0930   -7.7080   29.1830 C.3   123  VAL123      0.0022
     87  CG2        8.3480   -9.9280   29.4680 C.3   123  VAL123      0.0022
     88  N          6.4300   -7.9900   22.8080 N.3   126  VAL126     -0.1231
     89  CA         5.0850   -8.4480   22.7150 C.3   126  VAL126      0.1692
     90  C          4.1170   -7.4080   23.2440 C.2   126  VAL126      0.2591
     91  O          3.0940   -7.2070   22.6320 O.2   126  VAL126     -0.2718
     92  CB         4.8750   -9.7490   23.4960 C.3   126  VAL126      0.0266
     93  CG1        3.3940  -10.2540   23.3470 C.3   126  VAL126      0.0020
     94  CG2        5.8090  -10.8540   22.9580 C.3   126  VAL126      0.0020
     95  N          4.4650   -6.7180   24.3230 N.am  127  VAL127     -0.1980
     96  CA         3.5830   -5.6250   24.7950 C.3   127  VAL127      0.1595
     97  C          3.3680   -4.5350   23.6950 C.2   127  VAL127      0.2287
     98  O          2.2450   -4.0170   23.5120 O.2   127  VAL127     -0.2864
     99  CB         4.0490   -5.0210   26.1360 C.3   127  VAL127      0.0276
    100  CG1        3.1800   -3.7600   26.5290 C.3   127  VAL127      0.0022
    101  CG2        3.9900   -6.1340   27.2930 C.3   127  VAL127      0.0022
    102  N          0.8580   -5.9220   21.1980 N.3   130  LEU130     -0.1245
    103  CA        -0.4620   -5.8970   21.8010 C.3   130  LEU130      0.1561
    104  C         -0.9810   -4.4740   21.8000 C.2   130  LEU130      0.2260
    105  O         -2.1420   -4.2220   21.4140 O.2   130  LEU130     -0.2867
    106  CB        -0.3790   -6.4470   23.2320 C.3   130  LEU130      0.0270
    107  CG        -0.2130   -7.9850   23.3540 C.3   130  LEU130      0.0019
    108  CD1       -0.2160   -8.3940   24.8470 C.3   130  LEU130      0.0001
    109  CD2       -1.3510   -8.7440   22.6220 C.3   130  LEU130      0.0001
    110  N         -1.2260   -3.0980   34.4050 N.3   141  PHE141     -0.1227
    111  CA        -0.2290   -4.0850   34.8790 C.3   141  PHE141      0.1736
    112  C         -0.2110   -4.0620   36.4180 C.2   141  PHE141      0.2596
    113  O         -0.4520   -3.0100   37.0090 O.2   141  PHE141     -0.2718
    114  CB         1.2030   -3.6470   34.3610 C.3   141  PHE141      0.0547
    115  CG         1.3690   -3.8580   32.9210 C.ar  141  PHE141     -0.0202
    116  CD1        1.7460   -5.1230   32.4490 C.ar  141  PHE141     -0.0042
    117  CD2        1.0960   -2.8360   31.9960 C.ar  141  PHE141     -0.0042
    118  CE1        1.8220   -5.3990   31.0600 C.ar  141  PHE141     -0.0003
    119  CE2        1.1780   -3.1030   30.5930 C.ar  141  PHE141     -0.0003
    120  CZ         1.5780   -4.3850   30.1200 C.ar  141  PHE141     -0.0000
    121  N          0.0920   -5.2020   37.0450 N.am  142  GLY142     -0.1957
    122  CA         0.3540   -5.2150   38.4750 C.3   142  GLY142      0.1869
    123  C          1.6690   -4.5150   38.7790 C.2   142  GLY142      0.2309
    124  O          2.6140   -4.4760   37.9390 O.2   142  GLY142     -0.2863
    125  N          3.3820   -5.8480   41.0640 N.3   144  LYS144     -0.1231
    126  CA         4.2370   -6.9540   41.5770 C.3   144  LYS144      0.1693
    127  C          5.5390   -7.0730   40.8400 C.2   144  LYS144      0.2592
    128  O          6.5720   -7.0630   41.4580 O.2   144  LYS144     -0.2718
    129  CB         3.5650   -8.3360   41.6180 C.3   144  LYS144      0.0285
    130  CG         4.3920   -9.2760   42.6720 C.3   144  LYS144      0.0035
    131  CD         4.3010  -10.7030   42.2290 C.3   144  LYS144      0.0206
    132  CE         5.3040  -11.5050   42.9250 C.3   144  LYS144      0.1093
    133  NZ         6.4940  -11.5090   42.0220 N.3   144  LYS144     -0.1314
    134  N          5.4930   -7.1340   39.5130 N.am  145  ASP145     -0.1974
    135  CA         6.7130   -7.0600   38.7260 C.3   145  ASP145      0.1709
    136  C          7.0070   -5.6040   38.3810 C.2   145  ASP145      0.2293
    137  O          6.7830   -5.1230   37.2190 O.2   145  ASP145     -0.2864
    138  CB         6.6590   -7.9270   37.4470 C.3   145  ASP145      0.1436
    139  CG         8.0250   -7.9650   36.7270 C.2   145  ASP145      0.3671
    140  OD1        8.1880   -8.8310   35.8380 O.co2 145  ASP145     -0.2456
    141  OD2        8.9720   -7.1650   37.0900 O.co2 145  ASP145     -0.2456
    142  N          9.3730   -4.6630   35.3730 N.3   148  GLN148     -0.1245
    143  CA         8.6320   -4.7940   34.1690 C.3   148  GLN148      0.1566
    144  C          7.6910   -3.5950   34.0130 C.2   148  GLN148      0.2260
    145  O          7.5540   -3.0840   32.9160 O.2   148  GLN148     -0.2867
    146  CB         7.7680   -6.0500   34.2210 C.3   148  GLN148      0.0367
    147  CG         6.5210   -6.0530   33.2260 C.3   148  GLN148      0.0905
    148  CD         5.8260   -7.4290   33.2370 C.2   148  GLN148      0.2608
    149  OE1        6.3390   -8.3780   32.6110 O.2   148  GLN148     -0.2717
    150  NE2        4.7080   -7.5620   34.0130 N.am  148  GLN148     -0.0878
    151  N         -1.3460   -1.3370   39.1260 N.3   168  VAL168     -0.1231
    152  CA        -2.4020   -1.6370   40.1050 C.3   168  VAL168      0.1678
    153  C         -1.7040   -2.2350   41.3280 C.2   168  VAL168      0.2434
    154  O         -0.9230   -3.2280   41.1870 O.2   168  VAL168     -0.2733
    155  CB        -3.4130   -2.6060   39.4970 C.3   168  VAL168      0.0265
    156  CG1       -4.4700   -3.1590   40.5500 C.3   168  VAL168      0.0020
    157  CG2       -4.1260   -1.9680   38.1990 C.3   168  VAL168      0.0020
    158  N         -1.9280   -1.6370   42.5300 N.am  169  PRO169     -0.2718
    159  CA        -1.2720   -2.2530   43.7340 C.3   169  PRO169      0.1535
    160  C         -1.4530   -3.8070   43.8100 C.2   169  PRO169      0.2599
    161  O         -2.5060   -4.3750   43.4690 O.2   169  PRO169     -0.2715
    162  CB        -1.8880   -1.4780   44.9500 C.3   169  PRO169      0.0310
    163  CG        -2.6650   -0.2300   44.3400 C.3   169  PRO169      0.0237
    164  CD        -2.7840   -0.4680   42.8400 C.3   169  PRO169      0.0939
    165  N         -0.3970   -4.4830   44.2440 N.am  170  THR170     -0.1937
    166  CA        -0.2730   -5.9410   44.2280 C.3   170  THR170      0.2028
    167  C         -1.2970   -6.5980   45.1920 C.2   170  THR170      0.2642
    168  O         -1.3990   -6.2040   46.3720 O.2   170  THR170     -0.2714
    169  CB         1.1910   -6.2250   44.6770 C.3   170  THR170      0.1808
    170  OG1        2.0670   -5.5190   43.7900 O.3   170  THR170     -0.2208
    171  CG2        1.4990   -7.7030   44.6290 C.3   170  THR170      0.0379
    172  N         -2.0950   -7.5300   44.6750 N.am  171  VAL171     -0.1977
    173  CA        -2.9930   -8.3210   45.4760 C.3   171  VAL171      0.1596
    174  C         -2.1160   -9.3170   46.2690 C.2   171  VAL171      0.2287
    175  O         -1.1560   -9.9050   45.7370 O.2   171  VAL171     -0.2864
    176  CB        -4.0210   -9.1250   44.5740 C.3   171  VAL171      0.0276
    177  CG1       -4.7980  -10.1740   45.4110 C.3   171  VAL171      0.0022
    178  CG2       -5.0440   -8.1800   43.9660 C.3   171  VAL171      0.0022
    179  N          0.7260  -12.1430   45.3350 N.3   179  MET179     -0.1230
    180  CA         0.2010  -13.1540   44.3720 C.3   179  MET179      0.1702
    181  C          1.1840  -13.4790   43.2390 C.2   179  MET179      0.2593
    182  O          1.8540  -12.5870   42.7040 O.2   179  MET179     -0.2718
    183  CB        -1.1630  -12.7320   43.7290 C.3   179  MET179      0.0401
    184  CG        -1.9610  -14.0490   43.2480 C.3   179  MET179      0.0596
    185  SD        -3.2180  -14.4370   44.4740 S.3   179  MET179     -0.1393
    186  CE        -2.7520  -13.5010   45.9160 C.3   179  MET179      0.0692
    187  N          1.2300  -14.7610   42.8580 N.am  180  SER180     -0.1938
    188  CA         2.0860  -15.2340   41.7640 C.3   180  SER180      0.2055
    189  C          1.7290  -16.6750   41.5000 C.2   180  SER180      0.2643
    190  O          1.2770  -17.4060   42.4040 O.2   180  SER180     -0.2714
    191  CB         3.5750  -15.0890   42.1120 C.3   180  SER180      0.2130
    192  OG         4.3920  -15.8850   41.2430 O.3   180  SER180     -0.2179
    193  N          1.8590  -17.0790   40.2420 N.am  181  SER181     -0.1949
    194  CA         1.4450  -18.4200   39.8870 C.3   181  SER181      0.1924
    195  C          2.4530  -19.3640   40.5340 C.2   181  SER181      0.2314
    196  O          2.1180  -20.5040   40.8290 O.2   181  SER181     -0.2863
    197  CB         1.3700  -18.5940   38.3530 C.3   181  SER181      0.2116
    198  OG         2.5570  -18.1460   37.7830 O.3   181  SER181     -0.2180
@<TRIPOS>BOND
     1   102   103    1
     2   105   104    2
     3    76    74   ar
     4    76    75   ar
     5   104   103    1
     6   103   106    1
     7    74    72   ar
     8    75    73   ar
     9   109   107    1
    10    91    90    2
    11    89    88    1
    12    89    90    1
    13    89    92    1
    14    94    92    1
    15    72    71   ar
    16   106   107    1
    17    90    95   am
    18    93    92    1
    19   107   108    1
    20    73    71   ar
    21    98    97    2
    22    97    96    1
    23    71    70    1
    24    95    96    1
    25    80    79    2
    26    78    77    1
    27    78    79    1
    28    96    99    1
    29    70    67    1
    30    79    81   am
    31    64    61    1
    32    64    65    1
    33    67    68    1
    34    67    66    1
    35    84    83    2
    36    61    62    1
    37    61    60    1
    38    99   100    1
    39    99   101    1
    40    68    69    2
    41    83    82    1
    42    81    82    1
    43    62    63    2
    44    82    85    1
    45     6     5    1
    46     6     7    1
    47    85    86    1
    48    85    87    1
    49     5     2    1
    50    11    10    2
    51     2     1    1
    52     2     3    1
    53    20    21    1
    54    20    19    1
    55     7     1    1
    56    21    22    1
    57     8     3   am
    58     8     9    1
    59    10     9    1
    60    10    15   am
    61   120   119   ar
    62   120   118   ar
    63     3     4    2
    64    16    19    1
    65    16    15    1
    66    16    17    1
    67    13    12    1
    68   119   117   ar
    69     9    12    1
    70   118   116   ar
    71    17    18    2
    72    12    14    1
    73   117   115   ar
    74   116   115   ar
    75   149   148    2
    76   145   144    2
    77   115   114    1
    78   147   148    1
    79   147   146    1
    80   148   150   am
    81   144   143    1
    82   143   146    1
    83   143   142    1
    84   114   111    1
    85   110   111    1
    86   111   112    1
    87    46    44   ar
    88    46    45   ar
    89    44    42   ar
    90    45    43   ar
    91    58    57    1
    92    42    43   ar
    93    42    41    1
    94    55    54    2
    95   140   139   ar
    96    56    57    1
    97    56    53    1
    98    41    38    1
    99    54    53    1
   100   112   113    2
   101   112   121   am
   102    40    39    2
   103    57    59    1
   104   139   141   ar
   105   139   138    1
   106    53    52    1
   107    38    39    1
   108    38    37    1
   109   121   122    1
   110   137   136    2
   111   138   135    1
   112    23    24    1
   113   198   197    1
   114   124   123    2
   115    31    29   ar
   116    31    32   ar
   117    52    49   am
   118    37    35   am
   119   157   155    1
   120    29    28   ar
   121   197   194    1
   122   136   135    1
   123   122   123    1
   124    32    30   ar
   125   135   134    1
   126    26    25    2
   127    24    25    1
   128    24    27    1
   129    49    50    2
   130    49    48    1
   131    36    35    2
   132   151   152    1
   133    28    30   ar
   134    28    27    1
   135    35    34    1
   136   155   152    1
   137   155   156    1
   138   134   127   am
   139    47    48    1
   140   194   193    1
   141   194   195    1
   142   152   153    1
   143    48    51    1
   144   193   189   am
   145    34    33    1
   146   195   196    2
   147   127   128    2
   148   127   126    1
   149   125   126    1
   150   154   153    2
   151   192   191    1
   152   153   158   am
   153   189   188    1
   154   189   190    2
   155   126   129    1
   156   129   130    1
   157   188   191    1
   158   188   187    1
   159   133   132    1
   160   131   130    1
   161   131   132    1
   162   158   164    1
   163   158   159    1
   164   182   181    2
   165   164   163    1
   166   187   181   am
   167   181   180    1
   168   184   183    1
   169   184   185    1
   170   161   160    2
   171   183   180    1
   172   159   160    1
   173   159   162    1
   174   170   169    1
   175   160   165   am
   176   178   176    1
   177   166   165    1
   178   166   169    1
   179   166   167    1
   180   163   162    1
   181   180   179    1
   182   185   186    1
   183   176   177    1
   184   176   173    1
   185   171   169    1
   186   172   167   am
   187   172   173    1
   188   167   168    2
   189   173   174    1
   190   175   174    2
