@<TRIPOS>MOLECULE
tmp/4mulA00.pdb
 202 194 0 0 0
SMALL
GASTEIGER

@<TRIPOS>ATOM
      1  N          8.4650   11.6170    5.9040 N.3    36  PRO36      -0.2102
      2  CA         9.5660   11.9270    6.8410 C.3    36  PRO36       0.1504
      3  C         10.8220   12.1730    6.0660 C.2    36  PRO36       0.2576
      4  O         11.1800   11.3720    5.1390 O.2    36  PRO36      -0.2718
      5  CB         9.7510   10.6320    7.6220 C.3    36  PRO36       0.0282
      6  CG         8.7310    9.6500    7.0790 C.3    36  PRO36       0.0208
      7  CD         8.3220   10.1450    5.7290 C.3    36  PRO36       0.0893
      8  N         11.4630   13.2790    6.3950 N.am   37  THR37      -0.1939
      9  CA        12.6970   13.6780    5.6760 C.3    37  THR37       0.2028
     10  C         13.7630   14.1240    6.6960 C.2    37  THR37       0.2642
     11  O         13.4510   14.3840    7.8520 O.2    37  THR37      -0.2714
     12  CB        12.4460   14.8210    4.7210 C.3    37  THR37       0.1808
     13  OG1       12.3590   16.0550    5.4430 O.3    37  THR37      -0.2208
     14  CG2       11.0660   14.5960    3.9150 C.3    37  THR37       0.0379
     15  N         15.0180   14.1830    6.2340 N.am   38  MET38      -0.1962
     16  CA        16.0550   14.8540    7.0210 C.3    38  MET38       0.1736
     17  C         16.3460   16.1800    6.4370 C.2    38  MET38       0.2617
     18  O         17.4610   16.6880    6.5740 O.2    38  MET38      -0.2715
     19  CB        17.3210   14.0690    6.9890 C.3    38  MET38       0.0427
     20  CG        17.1010   12.7770    7.4900 C.3    38  MET38       0.0599
     21  SD        18.7510   12.0120    7.5980 S.3    38  MET38      -0.1393
     22  CE        18.2360   11.6490    9.1550 C.3    38  MET38       0.0692
     23  N         15.3590   16.7420    5.7600 N.am   39  GLY39      -0.1955
     24  CA        15.5320   18.1140    5.2170 C.3    39  GLY39       0.1869
     25  C         16.4230   18.0780    3.9660 C.2    39  GLY39       0.2309
     26  O         16.6590   17.0070    3.3680 O.2    39  GLY39      -0.2863
     27  N         14.8110   17.9250   -2.1310 N.3    42  HIS42      -0.1241
     28  CA        14.9910   18.0490   -3.5760 C.3    42  HIS42       0.1621
     29  C         13.7310   17.5100   -4.2540 C.2    42  HIS42       0.2264
     30  O         12.7780   17.0970   -3.5900 O.2    42  HIS42      -0.2867
     31  CB        16.2430   17.3000   -3.9530 C.3    42  HIS42       0.0745
     32  CG        16.2120   15.8560   -3.5170 C.ar   42  HIS42       0.0817
     33  ND1       17.1060   15.3220   -2.6160 N.ar   42  HIS42      -0.2268
     34  CD2       15.3200   14.8850   -3.7910 C.ar   42  HIS42       0.1154
     35  CE1       16.8120   14.0420   -2.4150 C.ar   42  HIS42       0.1986
     36  NE2       15.7220   13.7570   -3.1080 N.ar   42  HIS42      -0.2212
     37  N         13.0060   14.7650   -5.5220 N.3    44  GLY44      -0.1210
     38  CA        12.5690   13.4290   -5.0820 C.3    44  GLY44       0.1956
     39  C         11.6060   13.5040   -3.8980 C.2    44  GLY44       0.2611
     40  O         10.5800   12.8340   -3.8790 O.2    44  GLY44      -0.2717
     41  N         11.9000   14.4180   -2.9740 N.am   45  HIS45      -0.1975
     42  CA        10.9970   14.6610   -1.8600 C.3    45  HIS45       0.1656
     43  C          9.7100   15.2650   -2.3600 C.2    45  HIS45       0.2291
     44  O          8.6200   14.9550   -1.8320 O.2    45  HIS45      -0.2864
     45  CB        11.6230   15.5830   -0.7880 C.3    45  HIS45       0.0771
     46  CG        12.8610   15.0440   -0.1650 C.ar   45  HIS45       0.0820
     47  ND1       14.1120   15.5550   -0.4410 N.ar   45  HIS45      -0.2267
     48  CD2       13.0500   14.0550    0.7380 C.ar   45  HIS45       0.1154
     49  CE1       15.0220   14.8840    0.2360 C.ar   45  HIS45       0.1986
     50  NE2       14.4040   13.9670    0.9620 N.ar   45  HIS45      -0.2212
     51  N          8.3340   14.7260   -5.1290 N.3    47  ALA47      -0.1231
     52  CA         7.6040   13.5420   -5.6560 C.3    47  ALA47       0.1694
     53  C          6.8690   12.7840   -4.5410 C.2    47  ALA47       0.2591
     54  O          5.7400   12.2730   -4.7780 O.2    47  ALA47      -0.2718
     55  CB         8.4840   12.5880   -6.4400 C.3    47  ALA47       0.0304
     56  N          7.4970   12.6620   -3.3630 N.am   48  LEU48      -0.1980
     57  CA         6.8650   12.0090   -2.2090 C.3    48  LEU48       0.1596
     58  C          5.6380   12.7990   -1.7860 C.2    48  LEU48       0.2287
     59  O          4.5300   12.2070   -1.6070 O.2    48  LEU48      -0.2864
     60  CB         7.8350   11.8350   -1.0290 C.3    48  LEU48       0.0297
     61  CG         9.1340   11.1120   -1.2740 C.3    48  LEU48       0.0022
     62  CD1        9.8150   10.8450    0.1100 C.3    48  LEU48       0.0001
     63  CD2        8.8620    9.7380   -1.9700 C.3    48  LEU48       0.0001
     64  N         21.1770    7.9020   14.0280 N.3    70  GLN70      -0.1245
     65  CA        21.5980    7.0520   12.8980 C.3    70  GLN70       0.1566
     66  C         22.9910    7.4740   12.3250 C.2    70  GLN70       0.2260
     67  O         23.4580    6.9350   11.3150 O.2    70  GLN70      -0.2867
     68  CB        20.5500    7.0470   11.7850 C.3    70  GLN70       0.0367
     69  CG        20.3470    8.4060   11.0890 C.3    70  GLN70       0.0905
     70  CD        19.1300    8.4440   10.1850 C.2    70  GLN70       0.2608
     71  OE1       19.2670    8.4650    8.9330 O.2    70  GLN70      -0.2717
     72  NE2       17.9150    8.4190   10.7880 N.am   70  GLN70      -0.0878
     73  N         26.0990   16.9070    7.6840 N.3    80  TYR80      -0.1241
     74  CA        24.8570   16.7190    6.9500 C.3    80  TYR80       0.1605
     75  C         24.2650   18.0620    6.4410 C.2    80  TYR80       0.2264
     76  O         24.1760   19.0190    7.2170 O.2    80  TYR80      -0.2867
     77  CB        23.8460   15.9590    7.8010 C.3    80  TYR80       0.0534
     78  CG        22.8090   15.3530    6.9060 C.ar   80  TYR80      -0.0201
     79  CD1       23.0870   14.1670    6.2020 C.ar   80  TYR80      -0.0009
     80  CD2       21.5690   15.9570    6.7410 C.ar   80  TYR80      -0.0009
     81  CE1       22.1480   13.6060    5.3250 C.ar   80  TYR80       0.0417
     82  CE2       20.6170   15.4090    5.8680 C.ar   80  TYR80       0.0417
     83  CZ        20.9270   14.2380    5.1680 C.ar   80  TYR80       0.1957
     84  OH        20.0220   13.6750    4.3220 O.3    80  TYR80      -0.2866
     85  N         17.7370    4.6100   12.5790 N.3   137  VAL137     -0.1245
     86  CA        16.6840    4.9320   11.6190 C.3   137  VAL137      0.1561
     87  C         15.3370    4.3190   12.1060 C.2   137  VAL137      0.2260
     88  O         14.3480    4.9440   12.0860 O.2   137  VAL137     -0.2867
     89  CB        17.0210    4.3290   10.2550 C.3   137  VAL137      0.0252
     90  CG1       15.7560    4.4230    9.3450 C.3   137  VAL137      0.0019
     91  CG2       18.2590    4.9770    9.6060 C.3   137  VAL137      0.0019
     92  N         13.9160    6.2400   15.1560 N.3   140  VAL140     -0.1231
     93  CA        13.3090    7.5320   14.8430 C.3   140  VAL140      0.1692
     94  C         12.0000    7.3880   14.0250 C.2   140  VAL140      0.2591
     95  O         11.0500    8.1190   14.2390 O.2   140  VAL140     -0.2718
     96  CB        14.3230    8.5650   14.2370 C.3   140  VAL140      0.0266
     97  CG1       14.5670    8.3500   12.7210 C.3   140  VAL140      0.0020
     98  CG2       13.7260   10.0330   14.4540 C.3   140  VAL140      0.0020
     99  N         11.9620    6.4490   13.0690 N.am  141  VAL141     -0.1980
    100  CA        10.7970    6.3350   12.2140 C.3   141  VAL141      0.1595
    101  C          9.6280    5.8510   13.1160 C.2   141  VAL141      0.2287
    102  O          8.5180    6.3110   12.9750 O.2   141  VAL141     -0.2864
    103  CB        11.0380    5.3650   11.0560 C.3   141  VAL141      0.0276
    104  CG1        9.6370    4.9290   10.3370 C.3   141  VAL141      0.0022
    105  CG2       12.0140    5.9930   10.0190 C.3   141  VAL141      0.0022
    106  N          8.3120    8.8530   14.9760 N.3   144  LEU144     -0.1245
    107  CA         7.5690    9.7650   14.1020 C.3   144  LEU144      0.1561
    108  C          6.1980    9.2020   13.7830 C.2   144  LEU144      0.2260
    109  O          5.2010    9.9350   13.7840 O.2   144  LEU144     -0.2867
    110  CB         8.2940   10.0060   12.7590 C.3   144  LEU144      0.0270
    111  CG         9.6050   10.7750   12.9380 C.3   144  LEU144      0.0019
    112  CD1       10.4690   10.8320   11.6880 C.3   144  LEU144      0.0001
    113  CD2        9.2620   12.2480   13.3180 C.3   144  LEU144      0.0001
    114  N          8.1090    6.8720    1.2770 N.3   155  PHE155     -0.1227
    115  CA         9.5710    6.8430    1.1920 C.3   155  PHE155      0.1736
    116  C          9.9730    6.6680   -0.2690 C.2   155  PHE155      0.2596
    117  O          9.2760    5.9160   -1.0510 O.2   155  PHE155     -0.2718
    118  CB        10.1270    5.6560    2.0070 C.3   155  PHE155      0.0547
    119  CG         9.9340    5.8160    3.5020 C.ar  155  PHE155     -0.0202
    120  CD1       10.8390    6.5670    4.2720 C.ar  155  PHE155     -0.0042
    121  CD2        8.8790    5.1860    4.1360 C.ar  155  PHE155     -0.0042
    122  CE1       10.6450    6.6760    5.6650 C.ar  155  PHE155     -0.0003
    123  CE2        8.6670    5.3190    5.4780 C.ar  155  PHE155     -0.0003
    124  CZ         9.5220    6.0330    6.2650 C.ar  155  PHE155     -0.0000
    125  N         11.1410    7.2400   -0.6090 N.am  156  GLY156     -0.1957
    126  CA        11.7490    6.9740   -1.9330 C.3   156  GLY156      0.1869
    127  C         12.2920    5.5610   -1.9860 C.2   156  GLY156      0.2309
    128  O         12.6600    5.0140   -0.9890 O.2   156  GLY156     -0.2863
    129  N         15.0900    4.8000   -3.4660 N.3   158  LYS158     -0.1231
    130  CA        16.5570    4.8810   -3.6510 C.3   158  LYS158      0.1693
    131  C         17.3080    4.2000   -2.4930 C.2   158  LYS158      0.2592
    132  O         18.1580    3.3290   -2.6770 O.2   158  LYS158     -0.2718
    133  CB        17.0750    6.3330   -3.7870 C.3   158  LYS158      0.0285
    134  CG        18.5650    6.2890   -4.3680 C.3   158  LYS158      0.0035
    135  CD        19.4600    7.4760   -3.9080 C.3   158  LYS158      0.0206
    136  CE        20.2860    7.0070   -2.7360 C.3   158  LYS158      0.1093
    137  NZ        20.7350    8.1150   -1.8590 N.3   158  LYS158     -0.1314
    138  N         16.8720    4.4860   -1.2800 N.am  159  ASP159     -0.1974
    139  CA        17.3940    3.7740   -0.0980 C.3   159  ASP159      0.1709
    140  C         16.5220    2.5520    0.1640 C.2   159  ASP159      0.2293
    141  O         15.6660    2.5300    1.0630 O.2   159  ASP159     -0.2864
    142  CB        17.4220    4.7220    1.1060 C.3   159  ASP159      0.1436
    143  CG        18.3820    5.8970    0.8870 C.2   159  ASP159      0.3671
    144  OD1       19.5800    5.7010    1.0040 O.co2 159  ASP159     -0.2456
    145  OD2       17.9310    7.0090    0.5620 O.co2 159  ASP159     -0.2456
    146  N         16.7520    0.4930    3.4460 N.3   162  GLN162     -0.1245
    147  CA        16.0330    1.1800    4.4700 C.3   162  GLN162      0.1566
    148  C         14.5060    0.9930    4.3360 C.2   162  GLN162      0.2260
    149  O         13.7910    0.7500    5.3370 O.2   162  GLN162     -0.2867
    150  CB        16.3450    2.6850    4.3690 C.3   162  GLN162      0.0367
    151  CG        15.5730    3.4940    5.3890 C.3   162  GLN162      0.0905
    152  CD        15.9410    4.9420    5.3100 C.2   162  GLN162      0.2608
    153  OE1       16.9830    5.3360    5.8200 O.2   162  GLN162     -0.2717
    154  NE2       15.1170    5.7320    4.6280 N.am  162  GLN162     -0.0878
    155  N          7.9750    5.0730   -3.3110 N.3   182  VAL182     -0.1231
    156  CA         7.8280    5.8720   -4.5250 C.3   182  VAL182      0.1678
    157  C          9.0560    5.7300   -5.4170 C.2   182  VAL182      0.2434
    158  O         10.1830    5.8720   -4.9140 O.2   182  VAL182     -0.2733
    159  CB         7.6670    7.3140   -4.1280 C.3   182  VAL182      0.0265
    160  CG1        7.5940    8.3310   -5.3500 C.3   182  VAL182      0.0020
    161  CG2        6.3990    7.4920   -3.2070 C.3   182  VAL182      0.0020
    162  N          8.8580    5.4880   -6.7420 N.am  183  PRO183     -0.2718
    163  CA        10.0940    5.2930   -7.5790 C.3   183  PRO183      0.1535
    164  C         11.0070    6.4960   -7.5410 C.2   183  PRO183      0.2599
    165  O         10.5590    7.6580   -7.4900 O.2   183  PRO183     -0.2715
    166  CB         9.5800    5.0670   -9.0000 C.3   183  PRO183      0.0310
    167  CG         8.1020    4.4400   -8.7260 C.3   183  PRO183      0.0237
    168  CD         7.6110    5.3130   -7.5320 C.3   183  PRO183      0.0939
    169  N         12.2760    6.1690   -7.5760 N.am  184  THR184     -0.1937
    170  CA        13.3480    7.1360   -7.4680 C.3   184  THR184      0.2028
    171  C         13.2740    8.1810   -8.6210 C.2   184  THR184      0.2642
    172  O         13.2800    7.7950   -9.7950 O.2   184  THR184     -0.2714
    173  CB        14.6830    6.3610   -7.5340 C.3   184  THR184      0.1808
    174  OG1       14.7750    5.4990   -6.3820 O.3   184  THR184     -0.2208
    175  CG2       15.8460    7.3340   -7.4840 C.3   184  THR184      0.0379
    176  N         13.2730    9.4620   -8.2640 N.am  185  VAL185     -0.1977
    177  CA        13.3550   10.5520   -9.2550 C.3   185  VAL185      0.1596
    178  C         14.8160   10.7080   -9.6350 C.2   185  VAL185      0.2287
    179  O         15.6800   10.5440   -8.7830 O.2   185  VAL185     -0.2864
    180  CB        12.8110   11.9130   -8.6420 C.3   185  VAL185      0.0276
    181  CG1       13.0210   13.0960   -9.6350 C.3   185  VAL185      0.0022
    182  CG2       11.3110   11.7830   -8.3440 C.3   185  VAL185      0.0022
    183  N         18.3300   11.1390   -7.6660 N.3   193  MET193     -0.1230
    184  CA        18.3950   12.3470   -6.8060 C.3   193  MET193      0.1702
    185  C         18.9550   12.0140   -5.4510 C.2   193  MET193      0.2593
    186  O         18.7070   10.9340   -4.8550 O.2   193  MET193     -0.2718
    187  CB        16.9620   12.9640   -6.6150 C.3   193  MET193      0.0401
    188  CG        16.3810   13.5050   -7.8500 C.3   193  MET193      0.0596
    189  SD        17.4030   14.8690   -8.4480 S.3   193  MET193     -0.1393
    190  CE        16.2930   15.4580   -9.7570 C.3   193  MET193      0.0692
    191  N         19.7540   12.9230   -4.9200 N.am  194  SER194     -0.1938
    192  CA        20.2680   12.7210   -3.5890 C.3   194  SER194      0.2055
    193  C         20.8420   14.0160   -3.0300 C.2   194  SER194      0.2643
    194  O         21.4620   14.8200   -3.7770 O.2   194  SER194     -0.2714
    195  CB        21.3920   11.6940   -3.5650 C.3   194  SER194      0.2130
    196  OG        22.0040   11.7060   -2.2660 O.3   194  SER194     -0.2179
    197  N         20.6170   14.1790   -1.7220 N.am  195  SER195     -0.1949
    198  CA        21.2270   15.2520   -0.9310 C.3   195  SER195      0.1924
    199  C         22.6980   15.3380   -1.2110 C.2   195  SER195      0.2314
    200  O         23.2560   16.4430   -1.2640 O.2   195  SER195     -0.2863
    201  CB        21.0270   15.0300    0.5860 C.3   195  SER195      0.2116
    202  OG        21.9150   14.0480    1.0860 O.3   195  SER195     -0.2180
@<TRIPOS>BOND
     1   172   171    2
     2   190   189    1
     3   181   180    1
     4   178   177    1
     5   178   179    2
     6   177   180    1
     7   177   176    1
     8   166   167    1
     9   166   163    1
    10   167   168    1
    11   180   182    1
    12   171   176   am
    13   171   170    1
    14   189   188    1
    15   188   187    1
    16   183   184    1
    17   163   164    1
    18   163   162    1
    19   169   164   am
    20   169   170    1
    21   164   165    2
    22   173   175    1
    23   173   170    1
    24   173   174    1
    25   168   162    1
    26   184   187    1
    27   184   185    1
    28   162   157   am
    29    55    52    1
    30    52    51    1
    31    52    53    1
    32    37    38    1
    33   185   191   am
    34   185   186    2
    35   157   158    2
    36   157   156    1
    37   160   159    1
    38    38    39    1
    39   191   192    1
    40    54    53    2
    41    53    56   am
    42   156   159    1
    43   156   155    1
    44   134   135    1
    45   134   133    1
    46    29    30    2
    47    29    28    1
    48   159   161    1
    49    31    28    1
    50    31    32    1
    51   135   136    1
    52    39    40    2
    53    39    41   am
    54    34    32   ar
    55    34    36   ar
    56   133   130    1
    57   194   193    2
    58   130   129    1
    59   130   131    1
    60   192   195    1
    61   192   193    1
    62    28    27    1
    63   195   196    1
    64    32    33   ar
    65    56    57    1
    66    36    35   ar
    67   193   197   am
    68    41    42    1
    69   136   137    1
    70   132   131    2
    71    33    35   ar
    72   131   138   am
    73    43    42    1
    74    43    44    2
    75    57    58    1
    76    57    60    1
    77   127   126    1
    78   127   128    2
    79    63    61    1
    80   126   125    1
    81    42    45    1
    82    58    59    2
    83   197   198    1
    84   138   139    1
    85    61    60    1
    86    61    62    1
    87   200   199    2
    88   199   198    1
    89   117   116    2
    90   198   201    1
    91    45    46    1
    92   125   116   am
    93    47    46   ar
    94    47    49   ar
    95   116   115    1
    96    46    48   ar
    97   139   140    1
    98   139   142    1
    99   140   141    2
   100    49    50   ar
   101   145   143   ar
   102   201   202    1
   103    48    50   ar
   104   143   144   ar
   105   143   142    1
   106   115   114    1
   107   115   118    1
   108   118   119    1
   109    26    25    2
   110   146   147    1
   111   119   121   ar
   112   119   120   ar
   113    14    12    1
   114    25    24    1
   115   121   123   ar
   116   120   122   ar
   117    84    83    1
   118   148   147    1
   119   148   149    2
   120   150   147    1
   121   150   151    1
   122   154   152   am
   123    12    13    1
   124    12     9    1
   125     4     3    2
   126    83    81   ar
   127    83    82   ar
   128    24    23    1
   129   152   151    1
   130   152   153    2
   131    81    79   ar
   132   123   124   ar
   133   122   124   ar
   134     9     8    1
   135     9    10    1
   136     7     1    1
   137     7     6    1
   138    23    17   am
   139    82    80   ar
   140     1     2    1
   141     3     8   am
   142     3     2    1
   143    79    78   ar
   144    15    10   am
   145    15    16    1
   146    17    18    2
   147    17    16    1
   148    75    74    1
   149    75    76    2
   150    10    11    2
   151    80    78   ar
   152     2     5    1
   153    78    77    1
   154    74    73    1
   155    74    77    1
   156    19    16    1
   157    19    20    1
   158     6     5    1
   159    20    21    1
   160    21    22    1
   161    71    70    2
   162    90    89    1
   163    91    89    1
   164   105   103    1
   165    70    72   am
   166    70    69    1
   167    89    86    1
   168   104   103    1
   169   103   100    1
   170    69    68    1
   171    67    66    2
   172    86    87    1
   173    86    85    1
   174   112   111    1
   175    68    65    1
   176    88    87    2
   177   100    99    1
   178   100   101    1
   179    66    65    1
   180    97    96    1
   181   110   111    1
   182   110   107    1
   183    65    64    1
   184   111   113    1
   185   102   101    2
   186    99    94   am
   187   108   109    2
   188   108   107    1
   189    94    95    2
   190    94    93    1
   191   107   106    1
   192    96    98    1
   193    96    93    1
   194    93    92    1
