@<TRIPOS>MOLECULE
tmp/4mulA01.pdb
 80 75 0 0 0
SMALL
GASTEIGER

@<TRIPOS>ATOM
      1  N         20.7920    9.8950   15.9430 N.3    69  MET69      -0.1245
      2  CA        20.9810    8.4950   16.4070 C.3    69  MET69       0.1570
      3  C         21.3150    7.4860   15.2840 C.2    69  MET69       0.2261
      4  O         21.7080    6.3250   15.5580 O.2    69  MET69      -0.2867
      5  CB        19.7860    8.0220   17.2930 C.3    69  MET69       0.0387
      6  CG        19.5220    8.9290   18.5460 C.3    69  MET69       0.0595
      7  SD        21.0120    9.4140   19.4890 S.3    69  MET69      -0.1393
      8  CE        20.3600   10.3950   20.8540 C.3    69  MET69       0.0692
      9  N         23.6340    8.4710   12.9290 N.3    71  PHE71      -0.1241
     10  CA        24.9920    8.8130   12.4640 C.3    71  PHE71       0.1605
     11  C         26.0130    8.2040   13.4340 C.2    71  PHE71       0.2264
     12  O         25.7930    8.2000   14.6570 O.2    71  PHE71      -0.2867
     13  CB        25.1780   10.3260   12.3070 C.3    71  PHE71       0.0534
     14  CG        24.3050   10.9450   11.2460 C.ar   71  PHE71      -0.0203
     15  CD1       22.9680   11.3070   11.5240 C.ar   71  PHE71      -0.0042
     16  CD2       24.8130   11.2090    9.9800 C.ar   71  PHE71      -0.0042
     17  CE1       22.1800   11.9050   10.5630 C.ar   71  PHE71      -0.0003
     18  CE2       24.0160   11.8040    8.9890 C.ar   71  PHE71      -0.0003
     19  CZ        22.7020   12.1540    9.2820 C.ar   71  PHE71      -0.0000
     20  N         19.3310    8.3100   24.5100 N.3   112  LEU112     -0.1245
     21  CA        19.0330    7.0270   23.8940 C.3   112  LEU112      0.1561
     22  C         18.7790    5.9980   25.0010 C.2   112  LEU112      0.2260
     23  O         19.6040    5.8050   25.8730 O.2   112  LEU112     -0.2867
     24  CB        20.2190    6.5800   23.0470 C.3   112  LEU112      0.0270
     25  CG        19.7920    5.6700   21.9100 C.3   112  LEU112      0.0019
     26  CD1       18.8040    6.3740   20.9820 C.3   112  LEU112      0.0001
     27  CD2       21.0240    5.3400   21.1440 C.3   112  LEU112      0.0001
     28  N         15.1910    1.2670   22.4030 N.3   115  THR115     -0.1203
     29  CA        15.4420    1.4830   20.9660 C.3   115  THR115      0.1994
     30  C         14.8580    0.3030   20.2180 C.2   115  THR115      0.2618
     31  O         14.4800   -0.7400   20.8210 O.2   115  THR115     -0.2717
     32  CB        16.9530    1.6140   20.6050 C.3   115  THR115      0.1784
     33  OG1       17.6530    0.4530   21.0670 O.3   115  THR115     -0.2211
     34  CG2       17.6310    2.8410   21.2370 C.3   115  THR115      0.0376
     35  N         14.7860    0.4570   18.8950 N.am  116  VAL116     -0.1965
     36  CA        14.3720   -0.6420   18.0460 C.3   116  VAL116      0.1727
     37  C         15.6230   -1.3900   17.6220 C.2   116  VAL116      0.2616
     38  O         16.6350   -0.7950   17.2370 O.2   116  VAL116     -0.2715
     39  CB        13.6530   -0.1470   16.8080 C.3   116  VAL116      0.0290
     40  CG1       13.2200   -1.3520   15.9210 C.3   116  VAL116      0.0023
     41  CG2       12.4320    0.6350   17.1890 C.3   116  VAL116      0.0023
     42  N         15.5690   -2.7080   17.7710 N.am  117  GLN117     -0.1977
     43  CA        16.6100   -3.6330   17.2990 C.3   117  GLN117      0.1601
     44  C         16.1090   -4.2690   15.9590 C.2   117  GLN117      0.2287
     45  O         15.1890   -5.0980   15.9690 O.2   117  GLN117     -0.2864
     46  CB        16.8810   -4.6650   18.3990 C.3   117  GLN117      0.0394
     47  CG        17.8930   -5.8440   18.1390 C.3   117  GLN117      0.0908
     48  CD        19.2500   -5.4080   17.8580 C.2   117  GLN117      0.2608
     49  OE1       20.0330   -5.1220   18.7600 O.2   117  GLN117     -0.2717
     50  NE2       19.5810   -5.3660   16.5890 N.am  117  GLN117     -0.0878
     51  N         27.1020   -0.7170   12.3120 N.3   131  PRO131     -0.2102
     52  CA        26.2200   -1.7380   12.8900 C.3   131  PRO131      0.1504
     53  C         24.9740   -1.2230   13.6210 C.2   131  PRO131      0.2576
     54  O         24.0350   -1.9870   13.7780 O.2   131  PRO131     -0.2718
     55  CB        27.1410   -2.5050   13.8480 C.3   131  PRO131      0.0282
     56  CG        28.3340   -1.5670   14.1070 C.3   131  PRO131      0.0208
     57  CD        28.5010   -0.8190   12.7890 C.3   131  PRO131      0.0893
     58  N         24.9900    0.0270   14.0660 N.am  132  THR132     -0.1953
     59  CA        23.8520    0.6190   14.7810 C.3   132  THR132      0.1897
     60  C         23.0500    1.5530   13.8710 C.2   132  THR132      0.2313
     61  O         22.0710    2.1180   14.3050 O.2   132  THR132     -0.2863
     62  CB        24.2540    1.4730   16.0630 C.3   132  THR132      0.1794
     63  OG1       25.0150    2.6600   15.7050 O.3   132  THR132     -0.2208
     64  CG2       25.0700    0.6280   17.0240 C.3   132  THR132      0.0378
     65  N         19.3360    0.6790   13.4470 N.3   135  ALA135     -0.1231
     66  CA        18.6310    0.7750   14.7680 C.3   135  ALA135      0.1694
     67  C         18.2450    2.2660   15.0000 C.2   135  ALA135      0.2592
     68  O         17.1190    2.5770   15.3710 O.2   135  ALA135     -0.2718
     69  CB        19.5460    0.3040   15.9050 C.3   135  ALA135      0.0304
     70  N         19.1320    3.1650   14.6140 N.am  136  GLY136     -0.1957
     71  CA        18.9080    4.6440   14.7200 C.3   136  GLY136      0.1869
     72  C         17.7140    5.0860   13.8140 C.2   136  GLY136      0.2309
     73  O         16.8020    5.8360   14.2230 O.2   136  GLY136     -0.2863
     74  N         14.3440    3.4450   15.0020 N.3   139  THR139     -0.1218
     75  CA        13.8810    4.0530   16.2790 C.3   139  THR139      0.1862
     76  C         13.2310    5.4390   15.9490 C.2   139  THR139      0.2287
     77  O         12.1400    5.7690   16.4300 O.2   139  THR139     -0.2866
     78  CB        15.0510    4.2350   17.2610 C.3   139  THR139      0.1770
     79  OG1       15.5820    2.9330   17.6030 O.3   139  THR139     -0.2211
     80  CG2       14.5740    4.9190   18.5380 C.3   139  THR139      0.0375
@<TRIPOS>BOND
     1    18    19   ar
     2    18    16   ar
     3    19    17   ar
     4    16    14   ar
     5    17    15   ar
     6    14    15   ar
     7    14    13    1
     8    13    10    1
     9    51    57    1
    10    51    52    1
    11    10     9    1
    12    10    11    1
    13    57    56    1
    14    52    53    1
    15    52    55    1
    16    11    12    2
    17    65    66    1
    18    53    54    2
    19    53    58   am
    20    72    73    2
    21    72    71    1
    22    55    56    1
    23    60    61    2
    24    60    59    1
    25    58    59    1
    26    70    71    1
    27    70    67   am
    28    66    67    1
    29    66    69    1
    30    59    62    1
    31    67    68    2
    32    74    75    1
    33     3     4    2
    34     3     2    1
    35    63    62    1
    36    40    39    1
    37     1     2    1
    38    76    75    1
    39    76    77    2
    40    44    45    2
    41    44    43    1
    42    62    64    1
    43    75    78    1
    44     2     5    1
    45    50    48   am
    46    39    41    1
    47    39    36    1
    48    38    37    2
    49    78    79    1
    50    78    80    1
    51     5     6    1
    52    43    42    1
    53    43    46    1
    54    37    42   am
    55    37    36    1
    56    48    47    1
    57    48    49    2
    58    36    35    1
    59    47    46    1
    60     6     7    1
    61    35    30   am
    62     7     8    1
    63    30    31    2
    64    30    29    1
    65    32    29    1
    66    32    33    1
    67    32    34    1
    68    29    28    1
    69    26    25    1
    70    27    25    1
    71    25    24    1
    72    24    21    1
    73    21    20    1
    74    21    22    1
    75    22    23    2
