@<TRIPOS>MOLECULE
tmp/4mumA00.pdb
 132 129 0 0 0
SMALL
GASTEIGER

@<TRIPOS>ATOM
      1  N         -5.1340   20.9780   19.5270 N.3    12  ASP12      -0.1239
      2  CA        -4.6040   22.3540   19.5450 C.3    12  ASP12       0.1674
      3  C         -3.1480   22.3440   19.0970 C.2    12  ASP12       0.2266
      4  O         -2.3050   21.6200   19.6480 O.2    12  ASP12      -0.2867
      5  CB        -4.7220   22.9860   20.9150 C.3    12  ASP12       0.1410
      6  CG        -6.1830   23.1230   21.3540 C.2    12  ASP12       0.3668
      7  OD1       -6.9340   23.6930   20.5630 O.co2  12  ASP12      -0.2456
      8  OD2       -6.5260   22.6330   22.4870 O.co2  12  ASP12      -0.2456
      9  N         -4.8800   27.2390   17.6700 N.3    18  PHE18      -0.1241
     10  CA        -5.1140   27.8520   18.9680 C.3    18  PHE18       0.1605
     11  C         -4.3560   29.1700   19.0850 C.2    18  PHE18       0.2264
     12  O         -4.9100   30.1840   19.5250 O.2    18  PHE18      -0.2867
     13  CB        -4.6860   26.8700   20.0840 C.3    18  PHE18       0.0534
     14  CG        -4.9540   27.3430   21.4640 C.ar   18  PHE18      -0.0203
     15  CD1       -4.1890   28.3320   22.0610 C.ar   18  PHE18      -0.0042
     16  CD2       -5.9830   26.8120   22.2370 C.ar   18  PHE18      -0.0042
     17  CE1       -4.4640   28.7920   23.3440 C.ar   18  PHE18      -0.0003
     18  CE2       -6.2310   27.2560   23.5210 C.ar   18  PHE18      -0.0003
     19  CZ        -5.4730   28.2340   24.0590 C.ar   18  PHE18      -0.0000
     20  N          5.2400   26.6920   26.4310 N.3    44  PHE44      -0.1227
     21  CA         3.9370   26.1100   26.0870 C.3    44  PHE44       0.1736
     22  C          2.7660   26.8740   26.6410 C.2    44  PHE44       0.2595
     23  O          1.7130   26.9630   25.9850 O.2    44  PHE44      -0.2718
     24  CB         3.9030   24.6510   26.5750 C.3    44  PHE44       0.0547
     25  CG         2.6930   23.8950   26.1310 C.ar   44  PHE44      -0.0202
     26  CD1        2.5060   23.5650   24.7930 C.ar   44  PHE44      -0.0042
     27  CD2        1.7870   23.4520   27.0450 C.ar   44  PHE44      -0.0042
     28  CE1        1.3970   22.8710   24.3940 C.ar   44  PHE44      -0.0003
     29  CE2        0.6910   22.7190   26.6180 C.ar   44  PHE44      -0.0003
     30  CZ         0.5050   22.4600   25.2890 C.ar   44  PHE44      -0.0000
     31  N          2.8910   27.4220   27.8260 N.am   45  TRP45      -0.1976
     32  CA         1.7390   28.0190   28.4890 C.3    45  TRP45       0.1640
     33  C          1.6450   29.4920   28.1110 C.2    45  TRP45       0.2290
     34  O          2.3710   30.3650   28.6300 O.2    45  TRP45      -0.2864
     35  CB         1.8520   27.8030   29.9880 C.3    45  TRP45       0.0576
     36  CG         1.9540   26.3730   30.3980 C.ar   45  TRP45       0.0006
     37  CD1        3.0450   25.7640   30.9620 C.ar   45  TRP45       0.0946
     38  CD2        0.9870   25.3620   30.2390 C.ar   45  TRP45       0.0152
     39  NE1        2.7870   24.4430   31.1570 N.ar   45  TRP45      -0.2442
     40  CE2        1.5340   24.1660   30.7280 C.ar   45  TRP45       0.0810
     41  CE3       -0.3030   25.3320   29.7200 C.ar   45  TRP45       0.0012
     42  CZ2        0.8510   22.9720   30.7300 C.ar   45  TRP45       0.0191
     43  CZ3       -0.9680   24.1340   29.6950 C.ar   45  TRP45       0.0001
     44  CH2       -0.3920   22.9640   30.2340 C.ar   45  TRP45       0.0015
     45  N        -13.0570   27.5570   21.1510 N.3    71  PHE71      -0.1241
     46  CA       -12.5910   26.3250   20.5270 C.3    71  PHE71       0.1605
     47  C        -13.3030   26.0340   19.2270 C.2    71  PHE71       0.2264
     48  O        -12.6820   25.6200   18.2350 O.2    71  PHE71      -0.2867
     49  CB       -12.6760   25.1370   21.5030 C.3    71  PHE71       0.0534
     50  CG       -11.6140   25.1990   22.5490 C.ar   71  PHE71      -0.0203
     51  CD1      -10.3220   24.7410   22.2650 C.ar   71  PHE71      -0.0042
     52  CD2      -11.8090   25.7920   23.7990 C.ar   71  PHE71      -0.0042
     53  CE1       -9.3050   24.8670   23.1760 C.ar   71  PHE71      -0.0003
     54  CE2      -10.7820   25.9210   24.6970 C.ar   71  PHE71      -0.0003
     55  CZ        -9.5280   25.4550   24.3900 C.ar   71  PHE71      -0.0000
     56  N         -6.7030   14.8080   22.7600 N.3    99  THR99      -0.1203
     57  CA        -6.7340   16.2350   23.1310 C.3    99  THR99       0.1994
     58  C         -7.0310   16.4120   24.6000 C.2    99  THR99       0.2619
     59  O         -7.8290   15.6540   25.1650 O.2    99  THR99      -0.2717
     60  CB        -7.7580   16.9570   22.2330 C.3    99  THR99       0.1784
     61  OG1       -7.7610   18.3470   22.5410 O.3    99  THR99      -0.2211
     62  CG2       -9.1710   16.4460   22.3220 C.3    99  THR99       0.0376
     63  N         -6.4010   17.4000   25.2180 N.am  100  SER100     -0.1938
     64  CA        -6.5970   17.7450   26.5860 C.3   100  SER100      0.2040
     65  C         -7.5240   18.9350   26.7130 C.2   100  SER100      0.2485
     66  O         -7.1680   20.0140   26.2430 O.2   100  SER100     -0.2729
     67  CB        -5.2980   18.0530   27.3040 C.3   100  SER100      0.2129
     68  OG        -4.4580   16.9440   27.2680 O.3   100  SER100     -0.2179
     69  N         -8.6560   18.8340   27.3960 N.am  101  PRO101     -0.2715
     70  CA        -9.5240   19.9860   27.6690 C.3   101  PRO101      0.1536
     71  C         -8.8120   20.9580   28.6030 C.2   101  PRO101      0.2598
     72  O         -7.9960   20.5500   29.4150 O.2   101  PRO101     -0.2715
     73  CB       -10.7230   19.3290   28.3580 C.3   101  PRO101      0.0310
     74  CG       -10.2790   18.1350   28.9650 C.3   101  PRO101      0.0237
     75  CD        -9.0260   17.6700   28.2750 C.3   101  PRO101      0.0939
     76  N         -9.2030   22.2150   28.5700 N.am  102  ILE102     -0.1964
     77  CA        -8.8370   23.1910   29.5880 C.3   102  ILE102      0.1727
     78  C         -9.5330   22.8850   30.8870 C.2   102  ILE102      0.2616
     79  O        -10.4000   22.0120   30.9710 O.2   102  ILE102     -0.2715
     80  CB        -9.1040   24.6290   29.0920 C.3   102  ILE102      0.0290
     81  CG1      -10.6010   24.8590   28.8430 C.3   102  ILE102      0.0022
     82  CG2       -8.2330   24.9550   27.9110 C.3   102  ILE102      0.0023
     83  CD1      -10.9660   26.3250   28.7310 C.3   102  ILE102      0.0001
     84  N         -9.2010   23.6060   31.9450 N.am  103  LYS103     -0.1977
     85  CA        -9.8080   23.2720   33.2310 C.3   103  LYS103      0.1596
     86  C        -11.3100   23.6300   33.2970 C.2   103  LYS103      0.2287
     87  O        -12.0730   22.9090   33.9040 O.2   103  LYS103     -0.2864
     88  CB        -9.0820   23.9130   34.4260 C.3   103  LYS103      0.0298
     89  CG        -7.6180   23.4440   34.5710 C.3   103  LYS103      0.0038
     90  CD        -6.8980   24.2650   35.6500 C.3   103  LYS103      0.0206
     91  CE        -5.5250   23.7130   35.9830 C.3   103  LYS103      0.1093
     92  NZ        -4.5960   23.8960   34.8500 N.3   103  LYS103     -0.1314
     93  N        -14.9590   20.9070   21.1090 N.3   112  LYS112     -0.1245
     94  CA       -14.0030   20.0210   20.4330 C.3   112  LYS112      0.1561
     95  C        -14.7070   18.9210   19.6580 C.2   112  LYS112      0.2260
     96  O        -14.3400   18.6420   18.5250 O.2   112  LYS112     -0.2867
     97  CB       -12.9860   19.4940   21.4120 C.3   112  LYS112      0.0271
     98  CG       -11.9580   20.5610   21.8470 C.3   112  LYS112      0.0035
     99  CD       -11.0410   20.0430   22.8990 C.3   112  LYS112      0.0206
    100  CE        -9.8900   20.9000   23.2060 C.3   112  LYS112      0.1093
    101  NZ        -8.8370   20.9590   22.1890 N.3   112  LYS112     -0.1314
    102  N         -6.4640   14.6210   30.1470 N.3   132  ARG132     -0.1245
    103  CA        -5.3590   15.4690   30.5630 C.3   132  ARG132      0.1563
    104  C         -4.0570   14.7580   30.6160 C.2   132  ARG132      0.2260
    105  O         -3.0100   15.4220   30.6180 O.2   132  ARG132     -0.2867
    106  CB        -5.6880   16.1150   31.9090 C.3   132  ARG132      0.0307
    107  CG        -6.9100   16.9920   31.8880 C.3   132  ARG132      0.0489
    108  CD        -6.8140   18.4300   31.7510 C.3   132  ARG132      0.2205
    109  NE        -6.0010   19.1510   32.6940 N.pl3 132  ARG132     -0.0865
    110  CZ        -5.6850   20.4540   32.4930 C.cat 132  ARG132      0.5346
    111  NH1       -6.1590   21.1700   31.4580 N.pl3 132  ARG132      0.1354
    112  NH2       -4.8890   21.0480   33.3720 N.pl3 132  ARG132      0.1354
    113  N         -1.9940   12.1350   28.4850 N.3   134  LYS134     -0.1245
    114  CA        -1.8670   11.3750   27.2730 C.3   134  LYS134      0.1561
    115  C         -0.9490   10.1560   27.4220 C.2   134  LYS134      0.2260
    116  O         -0.9560    9.2860   26.5410 O.2   134  LYS134     -0.2867
    117  CB        -1.4120   12.2860   26.1110 C.3   134  LYS134      0.0271
    118  CG        -2.3410   13.5020   25.9220 C.3   134  LYS134      0.0035
    119  CD        -2.0980   14.2280   24.6380 C.3   134  LYS134      0.0206
    120  CE        -2.9670   15.5010   24.5990 C.3   134  LYS134      0.1093
    121  NZ        -2.8460   16.2630   23.3660 N.3   134  LYS134     -0.1314
    122  N          3.3300   19.9230   22.1770 N.3   146  ARG146     -0.1245
    123  CA         3.8070   20.1880   23.5190 C.3   146  ARG146      0.1563
    124  C          5.1890   19.5730   23.7070 C.2   146  ARG146      0.2260
    125  O          5.3170   18.3480   23.5670 O.2   146  ARG146     -0.2867
    126  CB         2.8630   19.6310   24.5640 C.3   146  ARG146      0.0307
    127  CG         3.2900   19.8980   25.9760 C.3   146  ARG146      0.0489
    128  CD         2.3060   19.4650   27.0180 C.3   146  ARG146      0.2205
    129  NE         2.8050   19.7840   28.3210 N.pl3 146  ARG146     -0.0865
    130  CZ         2.1710   19.5090   29.4440 C.cat 146  ARG146      0.5346
    131  NH1        0.9720   19.0040   29.3660 N.pl3 146  ARG146      0.1354
    132  NH2        2.7360   19.7640   30.6000 N.pl3 146  ARG146      0.1354
@<TRIPOS>BOND
     1     9    10    1
     2    48    47    2
     3    96    95    2
     4    10    11    1
     5    10    13    1
     6    11    12    2
     7     3     2    1
     8     3     4    2
     9    47    46    1
    10     1     2    1
    11     2     5    1
    12    95    94    1
    13    13    14    1
    14    94    93    1
    15    94    97    1
    16    46    45    1
    17    46    49    1
    18     7     6   ar
    19     5     6    1
    20     6     8   ar
    21    97    98    1
    22    14    15   ar
    23    14    16   ar
    24    49    50    1
    25    98    99    1
    26    15    17   ar
    27   122   123    1
    28   101   100    1
    29    60    62    1
    30    60    61    1
    31    60    57    1
    32    16    18   ar
    33    51    50   ar
    34    51    53   ar
    35    50    52   ar
    36    56    57    1
    37    99   100    1
    38    57    58    1
    39    53    55   ar
    40    17    19   ar
    41   121   120    1
    42   123   124    1
    43   123   126    1
    44    18    19   ar
    45   125   124    2
    46    52    54   ar
    47    55    54   ar
    48    28    26   ar
    49    28    30   ar
    50   126   127    1
    51   120   119    1
    52    58    59    2
    53    58    63   am
    54   119   118    1
    55    26    25   ar
    56    63    64    1
    57    30    29   ar
    58   118   117    1
    59   127   128    1
    60    23    22    2
    61    21    20    1
    62    21    24    1
    63    21    22    1
    64   117   114    1
    65    25    24    1
    66    25    27   ar
    67    66    65    2
    68   116   115    2
    69    64    65    1
    70    64    67    1
    71    29    27   ar
    72    22    31   am
    73    65    69   am
    74   128   129    1
    75    68    67    1
    76   114   115    1
    77   114   113    1
    78    69    70    1
    79    69    75    1
    80    70    73    1
    81    70    71    1
    82    31    32    1
    83    82    80    1
    84    33    32    1
    85    33    34    2
    86    75    74    1
    87   129   130    2
    88    73    74    1
    89    32    35    1
    90    76    71   am
    91    76    77    1
    92    71    72    2
    93    83    81    1
    94    81    80    1
    95    80    77    1
    96   131   130    1
    97   130   132    1
    98    77    78    1
    99    43    41   ar
   100    43    44   ar
   101    41    38   ar
   102    35    36    1
   103   102   103    1
   104    44    42   ar
   105    38    36   ar
   106    38    40   ar
   107    36    37   ar
   108   103   104    1
   109   103   106    1
   110   104   105    2
   111    40    42   ar
   112    40    39   ar
   113    78    79    2
   114    78    84   am
   115    37    39   ar
   116   111   110    1
   117   108   107    1
   118   108   109    1
   119   107   106    1
   120    84    85    1
   121   110   109    2
   122   110   112    1
   123    85    86    1
   124    85    88    1
   125    86    87    2
   126    88    89    1
   127    89    90    1
   128    92    91    1
   129    90    91    1
