@<TRIPOS>MOLECULE
tmp/4munA00.pdb
 213 208 0 0 0
SMALL
GASTEIGER

@<TRIPOS>ATOM
      1  N          8.3550   11.6200    5.9980 N.3    35  PRO35      -0.2102
      2  CA         9.4930   11.8710    6.9410 C.3    35  PRO35       0.1504
      3  C         10.7670   12.0860    6.1910 C.2    35  PRO35       0.2576
      4  O         11.1660   11.2640    5.3420 O.2    35  PRO35      -0.2718
      5  CB         9.6130   10.5840    7.7220 C.3    35  PRO35       0.0282
      6  CG         8.8010    9.5740    7.0410 C.3    35  PRO35       0.0208
      7  CD         8.1280   10.1740    5.8520 C.3    35  PRO35       0.0893
      8  N         11.4440   13.1920    6.4690 N.am   36  THR36      -0.1939
      9  CA        12.6780   13.5140    5.8110 C.3    36  THR36       0.2028
     10  C         13.7460   14.0000    6.8080 C.2    36  THR36       0.2642
     11  O         13.4020   14.3240    7.9330 O.2    36  THR36      -0.2714
     12  CB        12.4780   14.6350    4.7930 C.3    36  THR36       0.1808
     13  OG1       12.4520   15.9580    5.4090 O.3    36  THR36      -0.2208
     14  CG2       11.1660   14.3760    3.9490 C.3    36  THR36       0.0379
     15  N         14.9660   14.0960    6.3020 N.am   37  MET37      -0.1962
     16  CA        16.0840   14.7470    7.0470 C.3    37  MET37       0.1736
     17  C         16.4160   16.1450    6.4700 C.2    37  MET37       0.2617
     18  O         17.5280   16.6540    6.6200 O.2    37  MET37      -0.2715
     19  CB        17.2860   13.8440    7.2270 C.3    37  MET37       0.0427
     20  CG        16.9140   12.5670    7.9540 C.3    37  MET37       0.0599
     21  SD        18.1840   11.8060    9.0530 S.3    37  MET37      -0.1393
     22  CE        19.4280   11.6760    7.8030 C.3    37  MET37       0.0692
     23  N         15.4560   16.7340    5.7540 N.am   38  GLY38      -0.1955
     24  CA        15.6490   18.1060    5.1960 C.3    38  GLY38       0.1869
     25  C         16.4910   18.0210    3.9250 C.2    38  GLY38       0.2309
     26  O         16.7020   16.9920    3.2750 O.2    38  GLY38      -0.2863
     27  N         14.7990   17.9760   -2.0730 N.3    41  HIS41      -0.1241
     28  CA        14.8940   18.1110   -3.5050 C.3    41  HIS41       0.1621
     29  C         13.6070   17.5670   -4.1850 C.2    41  HIS41       0.2264
     30  O         12.6270   17.1920   -3.5640 O.2    41  HIS41      -0.2867
     31  CB        16.1540   17.4020   -3.9460 C.3    41  HIS41       0.0745
     32  CG        16.1220   15.9340   -3.6130 C.ar   41  HIS41       0.0817
     33  ND1       16.9840   15.3160   -2.7250 N.ar   41  HIS41      -0.2268
     34  CD2       15.2240   15.0080   -3.9700 C.ar   41  HIS41       0.1154
     35  CE1       16.6280   14.0310   -2.6050 C.ar   41  HIS41       0.1986
     36  NE2       15.5420   13.8430   -3.3270 N.ar   41  HIS41      -0.2212
     37  N         12.8260   14.8420   -5.5620 N.3    43  GLY43      -0.1210
     38  CA        12.3830   13.5160   -5.1240 C.3    43  GLY43       0.1956
     39  C         11.4960   13.5300   -3.8750 C.2    43  GLY43       0.2611
     40  O         10.4380   12.8900   -3.7890 O.2    43  GLY43      -0.2717
     41  N         11.8710   14.3220   -2.9180 N.am   44  HIS44      -0.1975
     42  CA        11.0170   14.5560   -1.7610 C.3    44  HIS44       0.1656
     43  C          9.6820   15.1860   -2.1870 C.2    44  HIS44       0.2291
     44  O          8.6360   14.8860   -1.6130 O.2    44  HIS44      -0.2864
     45  CB        11.6920   15.4800   -0.7100 C.3    44  HIS44       0.0771
     46  CG        12.9940   14.9800   -0.1350 C.ar   44  HIS44       0.0820
     47  ND1       14.2230   15.4690   -0.5240 N.ar   44  HIS44      -0.2267
     48  CD2       13.2570   14.0500    0.8110 C.ar   44  HIS44       0.1154
     49  CE1       15.1890   14.8690    0.1410 C.ar   44  HIS44       0.1986
     50  NE2       14.6170   13.9950    0.9750 N.ar   44  HIS44      -0.2212
     51  N          8.2230   14.7800   -4.9570 N.3    46  ALA46      -0.1231
     52  CA         7.4290   13.6820   -5.5240 C.3    46  ALA46       0.1694
     53  C          6.7050   12.9040   -4.4440 C.2    46  ALA46       0.2591
     54  O          5.5720   12.4160   -4.6310 O.2    46  ALA46      -0.2718
     55  CB         8.2890   12.7390   -6.3590 C.3    46  ALA46       0.0304
     56  N          7.3630   12.7150   -3.3040 N.am   47  LEU47      -0.1980
     57  CA         6.6570   12.1020   -2.1770 C.3    47  LEU47       0.1596
     58  C          5.4520   12.8980   -1.7280 C.2    47  LEU47       0.2287
     59  O          4.3890   12.3670   -1.4500 O.2    47  LEU47      -0.2864
     60  CB         7.6570   11.8080   -1.0170 C.3    47  LEU47       0.0297
     61  CG         8.9690   11.1570   -1.3070 C.3    47  LEU47       0.0022
     62  CD1        9.6770   11.0070    0.0180 C.3    47  LEU47       0.0001
     63  CD2        8.7540    9.7990   -1.9810 C.3    47  LEU47       0.0001
     64  N         21.1950    7.8710   14.1710 N.3    69  GLN69      -0.1231
     65  CA        21.5200    7.0550   13.0350 C.3    69  GLN69       0.1698
     66  C         22.9030    7.3710   12.4040 C.2    69  GLN69       0.2588
     67  O         23.2590    6.7940   11.3550 O.2    69  GLN69      -0.2718
     68  CB        20.4520    7.0860   11.9330 C.3    69  GLN69       0.0381
     69  CG        20.1660    8.4060   11.2640 C.3    69  GLN69       0.0905
     70  CD        18.9870    8.4030   10.3570 C.2    69  GLN69       0.2608
     71  OE1       17.8090    8.4130   10.8080 O.2    69  GLN69      -0.2717
     72  NE2       19.2620    8.4060    9.0290 N.am   69  GLN69      -0.0878
     73  N         23.6800    8.2400   13.0390 N.am   70  PHE70      -0.2029
     74  CA        25.0930    8.5440   12.6520 C.3    70  PHE70       0.1325
     75  C         26.1160    7.9580   13.6150 C.3    70  PHE70       0.2039
     76  O         25.7220    6.9600   14.2620 O.3    70  PHE70      -0.2185
     77  CB        25.2230   10.0470   12.6520 C.3    70  PHE70       0.0507
     78  CG        24.3980   10.7200   11.5620 C.ar   70  PHE70      -0.0204
     79  CD1       23.0590   11.0910   11.7030 C.ar   70  PHE70      -0.0042
     80  CD2       24.9900   10.9790   10.3450 C.ar   70  PHE70      -0.0042
     81  CE1       22.3900   11.7630   10.6860 C.ar   70  PHE70      -0.0003
     82  CE2       24.3000   11.5930    9.3130 C.ar   70  PHE70      -0.0003
     83  CZ        22.9770   11.9990    9.4770 C.ar   70  PHE70      -0.0000
     84  N         26.0680   16.7600    7.7000 N.3    76  TYR76      -0.1241
     85  CA        24.7880   16.6300    6.9610 C.3    76  TYR76       0.1605
     86  C         24.2430   17.9920    6.5560 C.2    76  TYR76       0.2264
     87  O         24.2070   18.9030    7.3940 O.2    76  TYR76      -0.2867
     88  CB        23.7510   15.8880    7.8350 C.3    76  TYR76       0.0534
     89  CG        22.7200   15.2560    6.9570 C.ar   76  TYR76      -0.0201
     90  CD1       22.9040   13.9800    6.4690 C.ar   76  TYR76      -0.0009
     91  CD2       21.5540   15.9190    6.6430 C.ar   76  TYR76      -0.0009
     92  CE1       21.9670   13.4460    5.5610 C.ar   76  TYR76       0.0417
     93  CE2       20.5830   15.3770    5.8030 C.ar   76  TYR76       0.0417
     94  CZ        20.8040   14.1220    5.2780 C.ar   76  TYR76       0.1957
     95  OH        19.9320   13.4560    4.4050 O.3    76  TYR76      -0.2866
     96  N         23.2080    1.8550   12.6190 N.3   129  HIS129     -0.1241
     97  CA        22.5780    2.8450   11.7330 C.3   129  HIS129      0.1621
     98  C         21.0730    2.5890   11.6100 C.2   129  HIS129      0.2264
     99  O         20.2570    3.4860   11.7890 O.2   129  HIS129     -0.2867
    100  CB        23.2210    2.8020   10.3340 C.3   129  HIS129      0.0745
    101  CG        22.4450    3.5440    9.3040 C.ar  129  HIS129      0.0817
    102  ND1       22.3260    4.9120    9.3360 N.ar  129  HIS129     -0.2268
    103  CD2       21.6330    3.1290    8.2880 C.ar  129  HIS129      0.1154
    104  CE1       21.5180    5.2960    8.3560 C.ar  129  HIS129      0.1986
    105  NE2       21.0890    4.2430    7.7270 N.ar  129  HIS129     -0.2212
    106  N          8.0120    7.0040    1.3310 N.3   151  PHE151     -0.1227
    107  CA         9.4520    6.9950    1.1750 C.3   151  PHE151      0.1736
    108  C          9.8280    6.8710   -0.2790 C.2   151  PHE151      0.2596
    109  O          9.1030    6.2030   -1.0650 O.2   151  PHE151     -0.2718
    110  CB        10.0410    5.8270    1.9310 C.3   151  PHE151      0.0547
    111  CG         9.8460    5.8940    3.4220 C.ar  151  PHE151     -0.0202
    112  CD1       10.6740    6.6210    4.2270 C.ar  151  PHE151     -0.0042
    113  CD2        8.7950    5.2350    3.9760 C.ar  151  PHE151     -0.0042
    114  CE1       10.4810    6.6640    5.5960 C.ar  151  PHE151     -0.0003
    115  CE2        8.5840    5.2870    5.3220 C.ar  151  PHE151     -0.0003
    116  CZ         9.4160    6.0000    6.1220 C.ar  151  PHE151     -0.0000
    117  N         11.0020    7.4000   -0.6360 N.am  152  GLY152     -0.1957
    118  CA        11.6090    7.0140   -1.9140 C.3   152  GLY152      0.1869
    119  C         12.1230    5.5740   -1.9800 C.2   152  GLY152      0.2309
    120  O         12.5120    4.9800   -0.9930 O.2   152  GLY152     -0.2863
    121  N         14.9670    4.9020   -3.5330 N.3   154  LYS154     -0.1231
    122  CA        16.3800    4.9050   -3.7420 C.3   154  LYS154      0.1693
    123  C         17.1190    4.1770   -2.6060 C.2   154  LYS154      0.2592
    124  O         18.0590    3.4490   -2.8500 O.2   154  LYS154     -0.2718
    125  CB        16.9380    6.3540   -3.8970 C.3   154  LYS154      0.0285
    126  CG        18.3950    6.3220   -4.4240 C.3   154  LYS154      0.0035
    127  CD        19.2600    7.4840   -3.9530 C.3   154  LYS154      0.0206
    128  CE        19.7080    7.0840   -2.5830 C.3   154  LYS154      0.1093
    129  NZ        20.4030    8.1430   -1.8710 N.3   154  LYS154     -0.1314
    130  N         16.6980    4.4810   -1.3630 N.am  155  ASP155     -0.1974
    131  CA        17.2640    3.8150   -0.1850 C.3   155  ASP155      0.1709
    132  C         16.3470    2.6040    0.0510 C.2   155  ASP155      0.2293
    133  O         15.5440    2.5580    0.9840 O.2   155  ASP155     -0.2864
    134  CB        17.2880    4.7770    1.0160 C.3   155  ASP155      0.1436
    135  CG        18.2430    5.9450    0.7890 C.2   155  ASP155      0.3671
    136  OD1       19.3950    5.7080    1.0590 O.co2 155  ASP155     -0.2456
    137  OD2       17.8170    7.0440    0.3150 O.co2 155  ASP155     -0.2456
    138  N         16.5190    0.6070    3.4040 N.3   158  GLN158     -0.1245
    139  CA        15.8270    1.2880    4.4260 C.3   158  GLN158      0.1566
    140  C         14.3080    1.0840    4.3290 C.2   158  GLN158      0.2260
    141  O         13.6000    0.7580    5.3070 O.2   158  GLN158     -0.2867
    142  CB        16.1690    2.7650    4.3910 C.3   158  GLN158      0.0367
    143  CG        15.5750    3.4770    5.5840 C.3   158  GLN158      0.0905
    144  CD        15.7450    4.9880    5.6270 C.2   158  GLN158      0.2608
    145  OE1       16.7890    5.5020    5.9210 O.2   158  GLN158     -0.2717
    146  NE2       14.6530    5.6530    5.4720 N.am  158  GLN158     -0.0878
    147  N          7.7560    5.1920   -3.3690 N.3   178  VAL178     -0.1231
    148  CA         7.6200    6.0050   -4.5750 C.3   178  VAL178      0.1678
    149  C          8.8380    5.8990   -5.4460 C.2   178  VAL178      0.2434
    150  O          9.9660    6.0410   -4.9830 O.2   178  VAL178     -0.2733
    151  CB         7.4530    7.4680   -4.2030 C.3   178  VAL178      0.0265
    152  CG1        7.3480    8.3280   -5.4440 C.3   178  VAL178      0.0020
    153  CG2        6.2120    7.6220   -3.3110 C.3   178  VAL178      0.0020
    154  N          8.6340    5.6120   -6.7370 N.am  179  PRO179     -0.2718
    155  CA         9.8550    5.3650   -7.5630 C.3   179  PRO179      0.1535
    156  C         10.7890    6.5950   -7.6230 C.2   179  PRO179      0.2599
    157  O         10.3000    7.7720   -7.5900 O.2   179  PRO179     -0.2715
    158  CB         9.2550    5.0020   -8.9320 C.3   179  PRO179      0.0310
    159  CG         7.9030    4.3510   -8.5810 C.3   179  PRO179      0.0237
    160  CD         7.3950    5.2060   -7.4520 C.3   179  PRO179      0.0939
    161  N         12.0720    6.2780   -7.6660 N.am  180  THR180     -0.1937
    162  CA        13.1350    7.2630   -7.5490 C.3   180  THR180      0.2028
    163  C         12.9760    8.2900   -8.6670 C.2   180  THR180      0.2642
    164  O         12.9620    7.9270   -9.8650 O.2   180  THR180     -0.2714
    165  CB        14.4720    6.5310   -7.6360 C.3   180  THR180      0.1808
    166  OG1       14.5520    5.5970   -6.5190 O.3   180  THR180     -0.2208
    167  CG2       15.6140    7.4420   -7.5840 C.3   180  THR180      0.0379
    168  N         12.9560    9.5700   -8.2940 N.am  181  VAL181     -0.1977
    169  CA        13.0390   10.6420   -9.2780 C.3   181  VAL181      0.1596
    170  C         14.5280   10.7410   -9.7200 C.2   181  VAL181      0.2287
    171  O         15.4900   10.6330   -8.9090 O.2   181  VAL181     -0.2864
    172  CB        12.5150   11.9670   -8.7000 C.3   181  VAL181      0.0276
    173  CG1       12.7090   13.0630   -9.7330 C.3   181  VAL181      0.0022
    174  CG2       11.0710   11.7710   -8.3620 C.3   181  VAL181      0.0022
    175  N         18.1740   11.2870   -7.8910 N.3   189  MET189     -0.1230
    176  CA        18.1700   12.5060   -7.0470 C.3   189  MET189      0.1702
    177  C         18.7040   12.1280   -5.6780 C.2   189  MET189      0.2593
    178  O         18.3490   11.0630   -5.0450 O.2   189  MET189     -0.2718
    179  CB        16.7350   13.0980   -6.8720 C.3   189  MET189      0.0401
    180  CG        16.0350   13.7210   -8.0550 C.3   189  MET189      0.0596
    181  SD        17.0420   15.0560   -8.6200 S.3   189  MET189     -0.1393
    182  CE        16.0030   15.6990   -9.9730 C.3   189  MET189      0.0692
    183  N         19.5770   12.9530   -5.1140 N.am  190  SER190     -0.1938
    184  CA        20.0480   12.7420   -3.7650 C.3   190  SER190      0.2055
    185  C         20.5380   14.0810   -3.1710 C.2   190  SER190      0.2644
    186  O         21.0960   14.9360   -3.8830 O.2   190  SER190     -0.2714
    187  CB        21.1750   11.7230   -3.7260 C.3   190  SER190      0.2130
    188  OG        21.7680   11.7490   -2.4840 O.3   190  SER190     -0.2179
    189  N         20.2910   14.2520   -1.8540 N.am  191  SER191     -0.1935
    190  CA        20.8530   15.4170   -1.1440 C.3   191  SER191      0.2055
    191  C         22.3860   15.3340   -1.1480 C.2   191  SER191      0.2642
    192  O         23.0100   16.3340   -0.8290 O.2   191  SER191     -0.2714
    193  CB        20.3460   15.4260    0.3040 C.3   191  SER191      0.2130
    194  OG        18.8700   15.4190    0.3320 O.3   191  SER191     -0.2179
    195  N         22.9870   14.1850   -1.4470 N.am  192  ARG192     -0.1977
    196  CA        24.4370   14.0910   -1.5180 C.3   192  ARG192      0.1597
    197  C         25.0530   14.4930   -2.9070 C.2   192  ARG192      0.2287
    198  O         26.2410   14.5720   -3.0360 O.2   192  ARG192     -0.2864
    199  CB        24.8900   12.6520   -1.2320 C.3   192  ARG192      0.0334
    200  CG        25.0340   12.2240    0.2420 C.3   192  ARG192      0.0492
    201  CD        26.2240   11.2600    0.3560 C.3   192  ARG192      0.2205
    202  NE        26.2550   10.2980    1.4700 N.pl3 192  ARG192     -0.0865
    203  CZ        25.3980    9.2880    1.6610 C.cat 192  ARG192      0.5346
    204  NH1       25.5900    8.4820    2.6960 N.pl3 192  ARG192      0.1354
    205  NH2       24.3300    9.0970    0.8700 N.pl3 192  ARG192      0.1354
    206  N         24.2360    5.6800   -3.8390 N.3   274  LEU274     -0.1245
    207  CA        23.4560    4.4350   -3.8860 C.3   274  LEU274      0.1561
    208  C         22.5220    4.5200   -5.0870 C.2   274  LEU274      0.2260
    209  O         21.9830    5.5610   -5.3960 O.2   274  LEU274     -0.2867
    210  CB        22.5810    4.2470   -2.6210 C.3   274  LEU274      0.0270
    211  CG        23.2850    4.2280   -1.2650 C.3   274  LEU274      0.0019
    212  CD1       22.3100    3.6280   -0.2560 C.3   274  LEU274      0.0001
    213  CD2       24.5390    3.4430   -1.2630 C.3   274  LEU274      0.0001
@<TRIPOS>BOND
     1   182   181    1
     2   164   163    2
     3   173   172    1
     4   170   169    1
     5   170   171    2
     6   169   172    1
     7   169   168    1
     8   158   159    1
     9   158   155    1
    10   172   174    1
    11   163   168   am
    12   163   162    1
    13   181   180    1
    14   159   160    1
    15   180   179    1
    16   175   176    1
    17   161   156   am
    18   161   162    1
    19   165   167    1
    20   165   162    1
    21   165   166    1
    22   156   157    2
    23   156   155    1
    24   155   154    1
    25   160   154    1
    26   176   179    1
    27   176   177    1
    28   154   149   am
    29    55    52    1
    30   177   183   am
    31   177   178    2
    32    37    38    1
    33    52    51    1
    34    52    53    1
    35   149   150    2
    36   149   148    1
    37   152   151    1
    38   209   208    2
    39    38    39    1
    40   183   184    1
    41   208   207    1
    42    54    53    2
    43   148   151    1
    44   148   147    1
    45    53    56   am
    46   126   127    1
    47   126   125    1
    48   151   153    1
    49    29    30    2
    50    29    28    1
    51    34    32   ar
    52    34    36   ar
    53   127   128    1
    54    31    32    1
    55    31    28    1
    56   125   122    1
    57   207   206    1
    58   207   210    1
    59   186   185    2
    60    39    40    2
    61    39    41   am
    62   184   187    1
    63   184   185    1
    64   122   121    1
    65   122   123    1
    66   187   188    1
    67    32    33   ar
    68    28    27    1
    69    36    35   ar
    70    56    57    1
    71   185   189   am
    72   198   197    2
    73    41    42    1
    74   197   196    1
    75   124   123    2
    76    33    35   ar
    77   210   211    1
    78   123   130   am
    79   128   129    1
    80    43    42    1
    81    43    44    2
    82    57    58    1
    83    57    60    1
    84    63    61    1
    85   119   118    1
    86   119   120    2
    87   118   117    1
    88   189   190    1
    89    42    45    1
    90    58    59    2
    91   196   195    1
    92   196   199    1
    93   195   191   am
    94   130   131    1
    95    61    60    1
    96    61    62    1
    97   211   213    1
    98   211   212    1
    99   199   200    1
   100   191   190    1
   101   191   192    2
   102   190   193    1
   103   109   108    2
   104    45    46    1
   105   117   108   am
   106    47    46   ar
   107    47    49   ar
   108   108   107    1
   109   131   132    1
   110   131   134    1
   111    46    48   ar
   112   132   133    2
   113    49    50   ar
   114   200   201    1
   115   193   194    1
   116   137   135   ar
   117   201   202    1
   118   135   134    1
   119   135   136   ar
   120    48    50   ar
   121   205   203    1
   122   107   106    1
   123   107   110    1
   124   202   203    2
   125   203   204    1
   126   110   111    1
   127    26    25    2
   128   138   139    1
   129   111   113   ar
   130   111   112   ar
   131    25    24    1
   132    14    12    1
   133   113   115   ar
   134   112   114   ar
   135   140   139    1
   136   140   141    2
   137   142   139    1
   138   142   143    1
   139    95    94    1
   140    12    13    1
   141    12     9    1
   142    24    23    1
   143    94    92   ar
   144    94    93   ar
   145   115   116   ar
   146     4     3    2
   147   146   144   am
   148    92    90   ar
   149   143   144    1
   150   114   116   ar
   151   144   145    2
   152    23    17   am
   153    93    91   ar
   154     9     8    1
   155     9    10    1
   156     7     1    1
   157     7     6    1
   158     1     2    1
   159     3     8   am
   160     3     2    1
   161    15    10   am
   162    15    16    1
   163    90    89   ar
   164    17    18    2
   165    17    16    1
   166    86    85    1
   167    86    87    2
   168    91    89   ar
   169    10    11    2
   170     2     5    1
   171    89    88    1
   172    85    84    1
   173    85    88    1
   174     6     5    1
   175    16    19    1
   176    19    20    1
   177   105   103   ar
   178   105   104   ar
   179    22    21    1
   180    20    21    1
   181   103   101   ar
   182   104   102   ar
   183    72    70   am
   184   101   102   ar
   185   101   100    1
   186    82    83   ar
   187    82    80   ar
   188    83    81   ar
   189   100    97    1
   190    80    78   ar
   191    70    71    2
   192    70    69    1
   193    81    79   ar
   194    69    68    1
   195    67    66    2
   196    78    79   ar
   197    78    77    1
   198    98    97    1
   199    98    99    2
   200    97    96    1
   201    68    65    1
   202    66    65    1
   203    66    73   am
   204    74    77    1
   205    74    73    1
   206    74    75    1
   207    65    64    1
   208    75    76    1
