@<TRIPOS>MOLECULE
tmp/4munA02.pdb
 164 160 0 0 0
SMALL
GASTEIGER

@<TRIPOS>ATOM
      1  N         14.9660   14.0960    6.3020 N.3    37  MET37      -0.1245
      2  CA        16.0840   14.7470    7.0470 C.3    37  MET37       0.1570
      3  C         16.4160   16.1450    6.4700 C.2    37  MET37       0.2261
      4  O         17.5280   16.6540    6.6200 O.2    37  MET37      -0.2867
      5  CB        17.2860   13.8440    7.2270 C.3    37  MET37       0.0387
      6  CG        16.9140   12.5670    7.9540 C.3    37  MET37       0.0595
      7  SD        18.1840   11.8060    9.0530 S.3    37  MET37      -0.1393
      8  CE        19.4280   11.6760    7.8030 C.3    37  MET37       0.0692
      9  N         21.1950    7.8710   14.1710 N.3    69  GLN69      -0.1231
     10  CA        21.5200    7.0550   13.0350 C.3    69  GLN69       0.1698
     11  C         22.9030    7.3710   12.4040 C.2    69  GLN69       0.2588
     12  O         23.2590    6.7940   11.3550 O.2    69  GLN69      -0.2718
     13  CB        20.4520    7.0860   11.9330 C.3    69  GLN69       0.0381
     14  CG        20.1660    8.4060   11.2640 C.3    69  GLN69       0.0905
     15  CD        18.9870    8.4030   10.3570 C.2    69  GLN69       0.2608
     16  OE1       17.8090    8.4130   10.8080 O.2    69  GLN69      -0.2717
     17  NE2       19.2620    8.4060    9.0290 N.am   69  GLN69      -0.0878
     18  N         23.6800    8.2400   13.0390 N.am   70  PHE70      -0.2029
     19  CA        25.0930    8.5440   12.6520 C.3    70  PHE70       0.1325
     20  C         26.1160    7.9580   13.6150 C.3    70  PHE70       0.2039
     21  O         25.7220    6.9600   14.2620 O.3    70  PHE70      -0.2185
     22  CB        25.2230   10.0470   12.6520 C.3    70  PHE70       0.0507
     23  CG        24.3980   10.7200   11.5620 C.ar   70  PHE70      -0.0204
     24  CD1       23.0590   11.0910   11.7030 C.ar   70  PHE70      -0.0042
     25  CD2       24.9900   10.9790   10.3450 C.ar   70  PHE70      -0.0042
     26  CE1       22.3900   11.7630   10.6860 C.ar   70  PHE70      -0.0003
     27  CE2       24.3000   11.5930    9.3130 C.ar   70  PHE70      -0.0003
     28  CZ        22.9770   11.9990    9.4770 C.ar   70  PHE70      -0.0000
     29  N         30.3440   12.9720   10.6270 N.3    72  ASP72      -0.1239
     30  CA        29.1820   12.5900    9.8690 C.3    72  ASP72       0.1674
     31  C         27.9710   13.4990   10.1490 C.2    72  ASP72       0.2266
     32  O         27.3700   14.0440    9.2310 O.2    72  ASP72      -0.2867
     33  CB        28.8160   11.1020   10.1420 C.3    72  ASP72       0.1410
     34  CG        29.7360   10.3940   11.1810 C.2    72  ASP72       0.3668
     35  OD1       30.8470    9.9650   10.7910 O.co2  72  ASP72      -0.2456
     36  OD2       29.3600   10.2200   12.3660 O.co2  72  ASP72      -0.2456
     37  N         28.3100   17.0980    9.2540 N.3    75  ALA75      -0.1231
     38  CA        28.4710   17.2470    7.8120 C.3    75  ALA75       0.1694
     39  C         27.1270   17.2300    7.0680 C.2    75  ALA75       0.2592
     40  O         27.0760   17.5390    5.8840 O.2    75  ALA75      -0.2718
     41  CB        29.3080   16.0830    7.2640 C.3    75  ALA75       0.0304
     42  N         26.0680   16.7600    7.7000 N.am   76  TYR76      -0.1963
     43  CA        24.7880   16.6300    6.9610 C.3    76  TYR76       0.1756
     44  C         24.2430   17.9920    6.5560 C.2    76  TYR76       0.2461
     45  O         24.2070   18.9030    7.3940 O.2    76  TYR76      -0.2730
     46  CB        23.7510   15.8880    7.8350 C.3    76  TYR76       0.0574
     47  CG        22.7200   15.2560    6.9570 C.ar   76  TYR76      -0.0198
     48  CD1       22.9040   13.9800    6.4690 C.ar   76  TYR76      -0.0009
     49  CD2       21.5540   15.9190    6.6430 C.ar   76  TYR76      -0.0009
     50  CE1       21.9670   13.4460    5.5610 C.ar   76  TYR76       0.0417
     51  CE2       20.5830   15.3770    5.8030 C.ar   76  TYR76       0.0417
     52  CZ        20.8040   14.1220    5.2780 C.ar   76  TYR76       0.1957
     53  OH        19.9320   13.4560    4.4050 O.3    76  TYR76      -0.2866
     54  N         23.8110   18.1460    5.2860 N.am   77  PRO77      -0.2727
     55  CA        23.4310   19.5170    4.8710 C.3    77  PRO77       0.1402
     56  C         22.1680   19.9480    5.5090 C.2    77  PRO77       0.2269
     57  O         21.2000   19.1730    5.6180 O.2    77  PRO77      -0.2865
     58  CB        23.2430   19.4050    3.3760 C.3    77  PRO77       0.0296
     59  CG        22.9920   17.9280    3.1280 C.3    77  PRO77       0.0237
     60  CD        23.7990   17.2160    4.1850 C.3    77  PRO77       0.0939
     61  N         24.6990   -5.2200    3.6890 N.3   121  LEU121     -0.1231
     62  CA        24.7120   -4.1110    2.7530 C.3   121  LEU121      0.1693
     63  C         25.1110   -2.7990    3.4760 C.2   121  LEU121      0.2591
     64  O         26.2530   -2.6810    3.9610 O.2   121  LEU121     -0.2718
     65  CB        23.3540   -4.0150    1.9840 C.3   121  LEU121      0.0284
     66  CG        22.9350   -5.2970    1.2360 C.3   121  LEU121      0.0019
     67  CD1       21.4550   -5.2660    0.8840 C.3   121  LEU121      0.0001
     68  CD2       23.7720   -5.3740   -0.0270 C.3   121  LEU121      0.0001
     69  N         24.2320   -1.7950    3.5030 N.am  122  GLU122     -0.1979
     70  CA        24.6330   -0.5100    4.0810 C.3   122  GLU122      0.1602
     71  C         24.9740   -0.6430    5.5500 C.2   122  GLU122      0.2287
     72  O         25.7420    0.1140    6.1120 O.2   122  GLU122     -0.2864
     73  CB        23.4490    0.4680    4.0390 C.3   122  GLU122      0.0415
     74  CG        23.2730    0.9520    2.5990 C.3   122  GLU122      0.1163
     75  CD        24.4840    1.6110    2.0340 C.2   122  GLU122      0.3649
     76  OE1       24.8650    2.6980    2.4800 O.co2 122  GLU122     -0.2457
     77  OE2       25.0800    1.0570    1.1050 O.co2 122  GLU122     -0.2457
     78  N         29.0500   -2.1190    7.7390 N.3   125  PRO125     -0.2102
     79  CA        30.0840   -1.3180    8.3790 C.3   125  PRO125      0.1504
     80  C         29.5430   -0.3190    9.3970 C.2   125  PRO125      0.2575
     81  O         30.3400    0.3690   10.0130 O.2   125  PRO125     -0.2718
     82  CB        30.7010   -0.4770    7.2310 C.3   125  PRO125      0.0282
     83  CG        30.1190   -1.0200    6.0010 C.3   125  PRO125      0.0208
     84  CD        28.8630   -1.7370    6.3260 C.3   125  PRO125      0.0893
     85  N         28.2090   -0.2360    9.5190 N.am  126  ARG126     -0.1980
     86  CA        27.5440    0.7670   10.3530 C.3   126  ARG126      0.1597
     87  C         26.5440    0.1100   11.2810 C.2   126  ARG126      0.2287
     88  O         25.3450    0.2140   11.0920 O.2   126  ARG126     -0.2864
     89  CB        26.8390    1.8170    9.4380 C.3   126  ARG126      0.0334
     90  CG        27.8420    2.7300    8.6860 C.3   126  ARG126      0.0492
     91  CD        28.5190    3.7910    9.5720 C.3   126  ARG126      0.2205
     92  NE        29.0640    4.8900    8.7540 N.pl3 126  ARG126     -0.0865
     93  CZ        28.4030    6.0180    8.4270 C.cat 126  ARG126      0.5346
     94  NH1       29.0170    6.9050    7.6360 N.pl3 126  ARG126      0.1354
     95  NH2       27.1490    6.2670    8.8720 N.pl3 126  ARG126      0.1354
     96  N         23.2080    1.8550   12.6190 N.3   129  HIS129     -0.1226
     97  CA        22.5780    2.8450   11.7330 C.3   129  HIS129      0.1752
     98  C         21.0730    2.5890   11.6100 C.2   129  HIS129      0.2596
     99  O         20.2570    3.4860   11.7890 O.2   129  HIS129     -0.2718
    100  CB        23.2210    2.8020   10.3340 C.3   129  HIS129      0.0759
    101  CG        22.4450    3.5440    9.3040 C.ar  129  HIS129      0.0818
    102  ND1       22.3260    4.9120    9.3360 N.ar  129  HIS129     -0.2268
    103  CD2       21.6330    3.1290    8.2880 C.ar  129  HIS129      0.1154
    104  CE1       21.5180    5.2960    8.3560 C.ar  129  HIS129      0.1986
    105  NE2       21.0890    4.2430    7.7270 N.ar  129  HIS129     -0.2212
    106  N         20.6780    1.3890   11.2420 N.am  130  PHE130     -0.1976
    107  CA        19.2740    1.1110   10.9690 C.3   130  PHE130      0.1639
    108  C         18.4150    0.9660   12.2590 C.2   130  PHE130      0.2290
    109  O         17.2680    1.2800   12.2150 O.2   130  PHE130     -0.2864
    110  CB        19.1120   -0.1510   10.1310 C.3   130  PHE130      0.0560
    111  CG        19.4880    0.0540    8.6680 C.ar  130  PHE130     -0.0200
    112  CD1       18.7850    0.9920    7.9360 C.ar  130  PHE130     -0.0042
    113  CD2       20.4580   -0.6720    8.0510 C.ar  130  PHE130     -0.0042
    114  CE1       19.0240    1.1620    6.5860 C.ar  130  PHE130     -0.0003
    115  CE2       20.7880   -0.4450    6.7210 C.ar  130  PHE130     -0.0003
    116  CZ        20.0600    0.4880    5.9770 C.ar  130  PHE130     -0.0000
    117  N         20.2910   14.2520   -1.8540 N.3   191  SER191     -0.1202
    118  CA        20.8530   15.4170   -1.1440 C.3   191  SER191      0.2020
    119  C         22.3860   15.3340   -1.1480 C.2   191  SER191      0.2618
    120  O         23.0100   16.3340   -0.8290 O.2   191  SER191     -0.2717
    121  CB        20.3460   15.4260    0.3040 C.3   191  SER191      0.2103
    122  OG        18.8700   15.4190    0.3320 O.3   191  SER191     -0.2182
    123  N         22.9870   14.1850   -1.4470 N.am  192  ARG192     -0.1979
    124  CA        24.4370   14.0910   -1.5180 C.3   192  ARG192      0.1597
    125  C         25.0530   14.4930   -2.9070 C.2   192  ARG192      0.2287
    126  O         26.2410   14.5720   -3.0360 O.2   192  ARG192     -0.2864
    127  CB        24.8900   12.6520   -1.2320 C.3   192  ARG192      0.0334
    128  CG        25.0340   12.2240    0.2420 C.3   192  ARG192      0.0492
    129  CD        26.2240   11.2600    0.3560 C.3   192  ARG192      0.2205
    130  NE        26.2550   10.2980    1.4700 N.pl3 192  ARG192     -0.0865
    131  CZ        25.3980    9.2880    1.6610 C.cat 192  ARG192      0.5346
    132  NH1       25.5900    8.4820    2.6960 N.pl3 192  ARG192      0.1354
    133  NH2       24.3300    9.0970    0.8700 N.pl3 192  ARG192      0.1354
    134  N         27.6620   17.2210   -3.4510 N.3   195  TYR195     -0.1241
    135  CA        29.0820   16.9810   -3.1690 C.3   195  TYR195      0.1605
    136  C         29.8730   16.3880   -4.3510 C.2   195  TYR195      0.2264
    137  O         31.0520   16.1360   -4.2040 O.2   195  TYR195     -0.2867
    138  CB        29.2340   16.1060   -1.9450 C.3   195  TYR195      0.0534
    139  CG        28.6220   16.7360   -0.7530 C.ar  195  TYR195     -0.0201
    140  CD1       28.9700   18.0250   -0.3940 C.ar  195  TYR195     -0.0009
    141  CD2       27.5640   16.1610   -0.0990 C.ar  195  TYR195     -0.0009
    142  CE1       28.3100   18.6950    0.6680 C.ar  195  TYR195      0.0417
    143  CE2       26.9730   16.7430    1.0170 C.ar  195  TYR195      0.0417
    144  CZ        27.3140   18.0050    1.3960 C.ar  195  TYR195      0.1957
    145  OH        26.6500   18.5580    2.5080 O.3   195  TYR195     -0.2866
    146  N         31.5490   -0.2220   -3.9090 N.3   242  ASP242     -0.1239
    147  CA        31.5570   -0.8520   -2.5900 C.3   242  ASP242      0.1674
    148  C         30.8170   -2.1780   -2.6220 C.2   242  ASP242      0.2266
    149  O         31.2630   -3.1690   -2.0370 O.2   242  ASP242     -0.2867
    150  CB        30.9570    0.0710   -1.5410 C.3   242  ASP242      0.1410
    151  CG        31.8800    1.2190   -1.1940 C.2   242  ASP242      0.3668
    152  OD1       33.0780    1.1820   -1.5940 O.co2 242  ASP242     -0.2456
    153  OD2       31.4220    2.1470   -0.5130 O.co2 242  ASP242     -0.2456
    154  N         29.5090    8.9120   -1.2750 N.3   272  ARG272     -0.1245
    155  CA        28.9700    7.5730   -1.4590 C.3   272  ARG272      0.1563
    156  C         27.5770    7.6920   -2.0760 C.2   272  ARG272      0.2260
    157  O         26.6960    8.3490   -1.5400 O.2   272  ARG272     -0.2867
    158  CB        28.8780    6.8610   -0.1340 C.3   272  ARG272      0.0307
    159  CG        29.0660    5.3950   -0.3400 C.3   272  ARG272      0.0489
    160  CD        29.6230    4.7750    0.9670 C.3   272  ARG272      0.2205
    161  NE        29.2550    3.3960    0.9230 N.pl3 272  ARG272     -0.0865
    162  CZ        28.0200    2.9860    1.1870 C.cat 272  ARG272      0.5346
    163  NH1       27.1380    3.8570    1.5960 N.pl3 272  ARG272      0.1354
    164  NH2       27.7940    1.6990    1.0800 N.pl3 272  ARG272      0.1354
@<TRIPOS>BOND
     1   136   137    2
     2   136   135    1
     3   146   147    1
     4   134   135    1
     5   135   138    1
     6   126   125    2
     7   125   124    1
     8   148   147    1
     9   148   149    2
    10   147   150    1
    11   156   157    2
    12   156   155    1
    13   138   139    1
    14   117   118    1
    15   152   151   ar
    16   150   151    1
    17   124   123    1
    18   124   127    1
    19   155   154    1
    20   155   158    1
    21   123   119   am
    22   127   128    1
    23   151   153   ar
    24   119   118    1
    25   119   120    2
    26   118   121    1
    27   139   140   ar
    28   139   141   ar
    29   140   142   ar
    30   159   158    1
    31   159   160    1
    32   141   143   ar
    33    68    66    1
    34   128   129    1
    35   121   122    1
    36   129   130    1
    37   142   144   ar
    38   133   131    1
    39    67    66    1
    40   161   160    1
    41   161   162    2
    42   143   144   ar
    43   164   162    1
    44    77    75   ar
    45   162   163    1
    46    66    65    1
    47   144   145    1
    48   130   131    2
    49   131   132    1
    50    65    62    1
    51    75    76   ar
    52    75    74    1
    53    74    73    1
    54    62    63    1
    55    62    61    1
    56    59    58    1
    57    59    60    1
    58    58    55    1
    59    63    69   am
    60    63    64    2
    61    69    70    1
    62    73    70    1
    63    70    71    1
    64    60    54    1
    65    53    52    1
    66    55    54    1
    67    55    56    1
    68    52    50   ar
    69    52    51   ar
    70    54    44   am
    71    56    57    2
    72    71    72    2
    73    50    48   ar
    74    51    49   ar
    75    40    39    2
    76   116   114   ar
    77   116   115   ar
    78    83    84    1
    79    83    82    1
    80     1     2    1
    81    84    78    1
    82    48    47   ar
    83     3     4    2
    84     3     2    1
    85    44    43    1
    86    44    45    2
    87   114   112   ar
    88    49    47   ar
    89   115   113   ar
    90    47    46    1
    91    43    42    1
    92    43    46    1
    93     2     5    1
    94    39    42   am
    95    39    38    1
    96     5     6    1
    97    82    79    1
    98    41    38    1
    99    94    93    1
   100   105   103   ar
   101   105   104   ar
   102    78    79    1
   103     8     7    1
   104    38    37    1
   105   112   111   ar
   106     6     7    1
   107   113   111   ar
   108   103   101   ar
   109   104   102   ar
   110    79    80    1
   111    93    92    2
   112    93    95    1
   113   111   110    1
   114    90    89    1
   115    90    91    1
   116    92    91    1
   117    17    15   am
   118    32    31    2
   119   101   102   ar
   120   101   100    1
   121    27    28   ar
   122    27    25   ar
   123    80    85   am
   124    80    81    2
   125    89    86    1
   126    28    26   ar
   127    85    86    1
   128    30    33    1
   129    30    31    1
   130    30    29    1
   131   110   107    1
   132    33    34    1
   133   100    97    1
   134    25    23   ar
   135    86    87    1
   136    15    16    2
   137    15    14    1
   138    26    24   ar
   139    35    34   ar
   140   107   106    1
   141   107   108    1
   142    88    87    2
   143    34    36   ar
   144   106    98   am
   145    14    13    1
   146    12    11    2
   147    23    24   ar
   148    23    22    1
   149    98    97    1
   150    98    99    2
   151    97    96    1
   152    13    10    1
   153   109   108    2
   154    11    10    1
   155    11    18   am
   156    19    22    1
   157    19    18    1
   158    19    20    1
   159    10     9    1
   160    20    21    1
