@<TRIPOS>MOLECULE
tmp/4muqA01.pdb
 157 153 0 0 0
SMALL
GASTEIGER

@<TRIPOS>ATOM
      1  N         13.6220   -8.4240   10.5360 N.3    75  ARG75      -0.1245
      2  CA        13.6400   -9.0170    9.2010 C.3    75  ARG75       0.1563
      3  C         14.3720  -10.3370    9.2710 C.2    75  ARG75       0.2260
      4  O         15.4140  -10.4550    9.9320 O.2    75  ARG75      -0.2867
      5  CB        14.3060   -8.0840    8.1840 C.3    75  ARG75       0.0307
      6  CG        13.6190   -6.7310    8.1310 C.3    75  ARG75       0.0489
      7  CD        13.9030   -5.9330    6.8780 C.3    75  ARG75       0.2205
      8  NE        15.3000   -5.5330    6.7410 N.pl3  75  ARG75      -0.0865
      9  CZ        15.7460   -4.2700    6.7870 C.cat  75  ARG75       0.5346
     10  NH1       14.9380   -3.2430    7.0240 N.pl3  75  ARG75       0.1354
     11  NH2       17.0300   -4.0380    6.6180 N.pl3  75  ARG75       0.1354
     12  N         16.0030   -9.9710    4.2270 N.3    80  GLN80      -0.1245
     13  CA        17.1700   -9.1250    4.0390 C.3    80  GLN80       0.1566
     14  C         17.8430   -9.4010    2.6870 C.2    80  GLN80       0.2260
     15  O         18.3120   -8.4790    2.0000 O.2    80  GLN80      -0.2867
     16  CB        18.1610   -9.3340    5.1860 C.3    80  GLN80       0.0367
     17  CG        19.3620   -8.4000    5.1430 C.3    80  GLN80       0.0905
     18  CD        18.9800   -6.9650    5.4680 C.2    80  GLN80       0.2608
     19  OE1       17.9270   -6.7090    6.0620 O.2    80  GLN80      -0.2717
     20  NE2       19.8360   -6.0230    5.0820 N.am   80  GLN80      -0.0878
     21  N         15.7810   -7.7970   -0.0310 N.3    83  ILE83      -0.1245
     22  CA        15.9600   -6.3470   -0.0670 C.3    83  ILE83       0.1561
     23  C         17.2850   -6.0200   -0.7390 C.2    83  ILE83       0.2260
     24  O         17.3440   -5.1490   -1.6090 O.2    83  ILE83      -0.2867
     25  CB        15.8990   -5.7140    1.3330 C.3    83  ILE83       0.0252
     26  CG1       14.4770   -5.7980    1.8820 C.3    83  ILE83       0.0019
     27  CG2       16.3940   -4.2570    1.3100 C.3    83  ILE83       0.0019
     28  CD1       14.4140   -5.5500    3.3810 C.3    83  ILE83       0.0001
     29  N         23.6210    1.5290    1.6790 N.3    99  TYR99      -0.1227
     30  CA        22.3220    1.6560    2.3390 C.3    99  TYR99       0.1736
     31  C         21.6180    0.3480    2.6950 C.2    99  TYR99       0.2595
     32  O         20.4890    0.3680    3.2030 O.2    99  TYR99      -0.2718
     33  CB        21.3820    2.5190    1.4870 C.3    99  TYR99       0.0548
     34  CG        21.7520    3.9740    1.4720 C.ar   99  TYR99      -0.0200
     35  CD1       21.3560    4.8220    2.5070 C.ar   99  TYR99      -0.0009
     36  CD2       22.5110    4.5200    0.4440 C.ar   99  TYR99      -0.0009
     37  CE1       21.6900    6.1720    2.4950 C.ar   99  TYR99       0.0417
     38  CE2       22.8620    5.8740    0.4360 C.ar   99  TYR99       0.0417
     39  CZ        22.4540    6.6890    1.4640 C.ar   99  TYR99       0.1957
     40  OH        22.8000    8.0170    1.4500 O.3    99  TYR99      -0.2866
     41  N         22.2240   -0.7920    2.3770 N.am  100  VAL100     -0.1966
     42  CA        21.6110   -2.0610    2.7390 C.3   100  VAL100      0.1727
     43  C         22.6900   -2.9690    3.3210 C.2   100  VAL100      0.2616
     44  O         23.6880   -3.2540    2.6580 O.2   100  VAL100     -0.2715
     45  CB        20.9470   -2.7700    1.5380 C.3   100  VAL100      0.0290
     46  CG1       20.1900   -3.9780    2.0410 C.3   100  VAL100      0.0023
     47  CG2       19.9960   -1.8240    0.7810 C.3   100  VAL100      0.0023
     48  N         22.5030   -3.4430    4.5530 N.am  101  ALA101     -0.1977
     49  CA        23.4580   -4.3820    5.1120 C.3   101  ALA101      0.1597
     50  C         23.4610   -5.7140    4.3540 C.2   101  ALA101      0.2287
     51  O         22.4330   -6.1520    3.8410 O.2   101  ALA101     -0.2864
     52  CB        23.1640   -4.6280    6.5870 C.3   101  ALA101      0.0319
     53  N         22.8630   -7.5750    9.1390 N.3   106  SER106     -0.1202
     54  CA        21.8690   -6.5320    9.4320 C.3   106  SER106      0.2020
     55  C         21.3630   -6.6110   10.8650 C.2   106  SER106      0.2619
     56  O         20.9820   -7.6840   11.3420 O.2   106  SER106     -0.2717
     57  CB        20.6610   -6.6850    8.5130 C.3   106  SER106      0.2103
     58  OG        19.6150   -5.7920    8.8950 O.3   106  SER106     -0.2182
     59  N         21.3550   -5.4720   11.5560 N.am  107  GLU107     -0.1965
     60  CA        20.7240   -5.3800   12.8680 C.3   107  GLU107      0.1733
     61  C         19.2690   -5.7150   12.8360 C.2   107  GLU107      0.2616
     62  O         18.6960   -6.0630   13.8660 O.2   107  GLU107     -0.2715
     63  CB        20.7970   -3.9600   13.4160 C.3   107  GLU107      0.0429
     64  CG        22.1710   -3.4520   13.6450 C.3   107  GLU107      0.1163
     65  CD        22.1590   -2.1680   14.4410 C.2   107  GLU107      0.3649
     66  OE1       21.2830   -1.2850   14.2030 O.co2 107  GLU107     -0.2457
     67  OE2       23.0420   -2.0640   15.2920 O.co2 107  GLU107     -0.2457
     68  N         18.6310   -5.5930   11.6730 N.am  108  HIS108     -0.1973
     69  CA        17.2110   -5.9180   11.6300 C.3   108  HIS108      0.1656
     70  C         16.9520   -7.3980   11.9170 C.2   108  HIS108      0.2291
     71  O         15.8700   -7.7690   12.3680 O.2   108  HIS108     -0.2864
     72  CB        16.5640   -5.4950   10.3060 C.3   108  HIS108      0.0771
     73  CG        16.3250   -4.0260   10.2170 C.ar  108  HIS108      0.0820
     74  ND1       15.1650   -3.4300   10.6690 N.ar  108  HIS108     -0.2267
     75  CD2       17.1070   -3.0290    9.7490 C.ar  108  HIS108      0.1154
     76  CE1       15.2420   -2.1270   10.4720 C.ar  108  HIS108      0.1986
     77  NE2       16.4090   -1.8540    9.9100 N.ar  108  HIS108     -0.2212
     78  N         13.2280    0.8690   11.7650 N.3   115  ASP115     -0.1239
     79  CA        13.1970    2.0260   10.8820 C.3   115  ASP115      0.1674
     80  C         11.8800    2.7400   11.1200 C.2   115  ASP115      0.2266
     81  O         10.8150    2.1140   11.0790 O.2   115  ASP115     -0.2867
     82  CB        13.3340    1.5900    9.4140 C.3   115  ASP115      0.1410
     83  CG        14.6880    0.9540    9.1120 C.2   115  ASP115      0.3668
     84  OD1       15.6330    1.2320    9.8300 O.co2 115  ASP115     -0.2456
     85  OD2       14.8570    0.1390    8.1820 O.co2 115  ASP115     -0.2456
     86  N         10.2600    2.7240    1.4980 N.3   125  PHE125     -0.1227
     87  CA        10.6120    1.6190    2.3790 C.3   125  PHE125      0.1736
     88  C         12.1030    1.5630    2.7150 C.2   125  PHE125      0.2595
     89  O         12.4730    1.2860    3.8590 O.2   125  PHE125     -0.2718
     90  CB        10.1700    0.2950    1.7570 C.3   125  PHE125      0.0547
     91  CG        10.5730   -0.9100    2.5570 C.ar  125  PHE125     -0.0202
     92  CD1        9.8430   -1.2870    3.6740 C.ar  125  PHE125     -0.0042
     93  CD2       11.6820   -1.6640    2.1950 C.ar  125  PHE125     -0.0042
     94  CE1       10.2100   -2.3960    4.4190 C.ar  125  PHE125     -0.0003
     95  CE2       12.0580   -2.7710    2.9350 C.ar  125  PHE125     -0.0003
     96  CZ        11.3170   -3.1400    4.0470 C.ar  125  PHE125     -0.0000
     97  N         12.9520    1.8140    1.7200 N.am  126  ILE126     -0.1980
     98  CA        14.4030    1.7420    1.9050 C.3   126  ILE126      0.1595
     99  C         14.9510    2.9770    2.6280 C.2   126  ILE126      0.2287
    100  O         15.8050    2.8690    3.5070 O.2   126  ILE126     -0.2864
    101  CB        15.1480    1.4930    0.5580 C.3   126  ILE126      0.0276
    102  CG1       15.2810   -0.0130    0.3010 C.3   126  ILE126      0.0022
    103  CG2       16.5230    2.1710    0.5350 C.3   126  ILE126      0.0022
    104  CD1       16.3880   -0.3790   -0.6720 C.3   126  ILE126      0.0001
    105  N         23.3360    5.1590   12.5350 N.3   152  TYR152     -0.1241
    106  CA        24.2110    5.4770   11.4140 C.3   152  TYR152      0.1605
    107  C         24.2720    6.9740   11.1910 C.2   152  TYR152      0.2264
    108  O         23.4520    7.5600   10.4750 O.2   152  TYR152     -0.2867
    109  CB        23.7180    4.7590   10.1430 C.3   152  TYR152      0.0534
    110  CG        23.6580    3.2510   10.2700 C.ar  152  TYR152     -0.0201
    111  CD1       24.8020    2.5010   10.5320 C.ar  152  TYR152     -0.0009
    112  CD2       22.4580    2.5660   10.1260 C.ar  152  TYR152     -0.0009
    113  CE1       24.7490    1.1250   10.6670 C.ar  152  TYR152      0.0417
    114  CE2       22.3990    1.1780   10.2430 C.ar  152  TYR152      0.0417
    115  CZ        23.5510    0.4610   10.5170 C.ar  152  TYR152      0.1957
    116  OH        23.5150   -0.9150   10.6530 O.3   152  TYR152     -0.2866
    117  N         28.2200    2.2750    6.7110 N.3   162  ILE162     -0.1245
    118  CA        26.8740    2.5130    6.1870 C.3   162  ILE162      0.1561
    119  C         26.6870    4.0210    6.1090 C.2   162  ILE162      0.2260
    120  O         27.1320    4.7490    6.9980 O.2   162  ILE162     -0.2867
    121  CB        25.8180    1.8600    7.1240 C.3   162  ILE162      0.0252
    122  CG1       25.9550    0.3200    7.1100 C.3   162  ILE162      0.0019
    123  CG2       24.3870    2.2890    6.7650 C.3   162  ILE162      0.0019
    124  CD1       25.6620   -0.3410    5.7710 C.3   162  ILE162      0.0001
    125  N         21.8650    7.5080    7.9740 N.3   165  GLU165     -0.1245
    126  CA        20.4470    7.1240    7.9140 C.3   165  GLU165      0.1567
    127  C         19.6700    7.8020    9.0380 C.2   165  GLU165      0.2260
    128  O         19.7680    7.4140   10.1900 O.2   165  GLU165     -0.2867
    129  CB        20.2820    5.6070    7.9850 C.3   165  GLU165      0.0388
    130  CG        20.9480    4.8680    6.8360 C.3   165  GLU165      0.1160
    131  CD        20.4410    3.4620    6.6980 C.2   165  GLU165      0.3649
    132  OE1       19.9650    2.9200    7.7240 O.co2 165  GLU165     -0.2457
    133  OE2       20.5170    2.9390    5.5770 O.co2 165  GLU165     -0.2457
    134  N         16.7160    7.4820    9.8340 N.3   167  TRP167     -0.1227
    135  CA        15.5190    6.7250   10.2300 C.3   167  TRP167      0.1737
    136  C         15.7490    5.4570   11.0410 C.2   167  TRP167      0.2595
    137  O         14.7800    4.8910   11.5370 O.2   167  TRP167     -0.2718
    138  CB        14.7410    6.3110    8.9780 C.3   167  TRP167      0.0564
    139  CG        15.5910    5.4760    8.0510 C.ar  167  TRP167      0.0003
    140  CD1       15.8490    4.1330    8.1470 C.ar  167  TRP167      0.0946
    141  CD2       16.3210    5.9420    6.9060 C.ar  167  TRP167      0.0152
    142  NE1       16.6920    3.7420    7.1340 N.ar  167  TRP167     -0.2442
    143  CE2       16.9920    4.8300    6.3550 C.ar  167  TRP167      0.0810
    144  CE3       16.4750    7.1940    6.2990 C.ar  167  TRP167      0.0012
    145  CZ2       17.8090    4.9340    5.2270 C.ar  167  TRP167      0.0191
    146  CZ3       17.2840    7.2950    5.1680 C.ar  167  TRP167      0.0001
    147  CH2       17.9530    6.1700    4.6580 C.ar  167  TRP167      0.0015
    148  N         16.9930    4.9860   11.1320 N.am  168  HIS168     -0.1975
    149  CA        17.2930    3.6670   11.6930 C.3   168  HIS168      0.1656
    150  C         17.7750    3.7550   13.1370 C.2   168  HIS168      0.2291
    151  O         18.8110    4.3710   13.4290 O.2   168  HIS168     -0.2864
    152  CB        18.3130    2.9460   10.7940 C.3   168  HIS168      0.0771
    153  CG        18.7320    1.5970   11.2920 C.ar  168  HIS168      0.0820
    154  ND1       18.4530    0.4270   10.6100 N.ar  168  HIS168     -0.2267
    155  CD2       19.4640    1.2400   12.3720 C.ar  168  HIS168      0.1154
    156  CE1       18.9790   -0.5930   11.2690 C.ar  168  HIS168      0.1986
    157  NE2       19.6040   -0.1230   12.3350 N.ar  168  HIS168     -0.2212
@<TRIPOS>BOND
     1    24    23    2
     2    23    22    1
     3   104   102    1
     4    22    21    1
     5    22    25    1
     6   102   101    1
     7    38    36   ar
     8    38    39   ar
     9    36    34   ar
    10   103   101    1
    11   101    98    1
    12    47    45    1
    13    27    25    1
    14    25    26    1
    15    40    39    1
    16    39    37   ar
    17    34    33    1
    18    34    35   ar
    19    33    30    1
    20    86    87    1
    21    45    46    1
    22    45    42    1
    23    29    30    1
    24    97    98    1
    25    97    88   am
    26    90    87    1
    27    90    91    1
    28    26    28    1
    29    98    99    1
    30    15    14    2
    31    93    91   ar
    32    93    95   ar
    33    30    31    1
    34    41    31   am
    35    41    42    1
    36    87    88    1
    37    37    35   ar
    38    91    92   ar
    39    99   100    2
    40    44    43    2
    41    14    13    1
    42    31    32    2
    43    88    89    2
    44    42    43    1
    45    95    96   ar
    46    43    48   am
    47    92    94   ar
    48    51    50    2
    49    13    12    1
    50    13    16    1
    51    96    94   ar
    52    50    49    1
    53    48    49    1
    54   147   146   ar
    55   147   145   ar
    56    20    18   am
    57    49    52    1
    58    17    16    1
    59    17    18    1
    60   146   144   ar
    61   145   143   ar
    62    18    19    2
    63   133   131   ar
    64   124   122    1
    65   119   118    1
    66   119   120    2
    67   118   117    1
    68   118   121    1
    69   144   141   ar
    70   143   141   ar
    71   143   142   ar
    72    11     9    1
    73   131   130    1
    74   131   132   ar
    75     8     9    2
    76     8     7    1
    77   123   121    1
    78     9    10    1
    79   130   129    1
    80     7     6    1
    81   141   139   ar
    82   122   121    1
    83   142   140   ar
    84   126   125    1
    85   126   129    1
    86   126   127    1
    87   139   140   ar
    88   139   138    1
    89     6     5    1
    90    85    83   ar
    91     5     2    1
    92    57    58    1
    93    57    54    1
    94   138   135    1
    95   127   128    2
    96    83    82    1
    97    83    84   ar
    98    53    54    1
    99     2     3    1
   100     2     1    1
   101     3     4    2
   102    82    79    1
   103    54    55    1
   104    75    77   ar
   105    75    73   ar
   106   134   135    1
   107    77    76   ar
   108   112   114   ar
   109   112   110   ar
   110   109   110    1
   111   109   106    1
   112    73    72    1
   113    73    74   ar
   114   135   136    1
   115   114   115   ar
   116   110   111   ar
   117    72    69    1
   118    76    74   ar
   119   108   107    2
   120   115   116    1
   121   115   113   ar
   122   111   113   ar
   123   154   156   ar
   124   154   153   ar
   125   152   153    1
   126   152   149    1
   127    55    56    2
   128    55    59   am
   129    79    80    1
   130    79    78    1
   131   136   148   am
   132   136   137    2
   133    81    80    2
   134   148   149    1
   135   107   106    1
   136   156   157   ar
   137   153   155   ar
   138   106   105    1
   139    59    60    1
   140    69    68    1
   141    69    70    1
   142    68    61   am
   143   149   150    1
   144    70    71    2
   145   157   155   ar
   146    61    60    1
   147    61    62    2
   148    60    63    1
   149   150   151    2
   150    63    64    1
   151    64    65    1
   152    66    65   ar
   153    65    67   ar
