@<TRIPOS>MOLECULE
tmp/4musA00.pdb
 166 160 0 0 0
SMALL
GASTEIGER

@<TRIPOS>ATOM
      1  N         34.0150   -6.0670   48.8100 N.3    59  SER59      -0.1217
      2  CA        32.9820   -5.3870   48.0440 C.3    59  SER59       0.1889
      3  C         32.3290   -4.3230   48.9020 C.2    59  SER59       0.2288
      4  O         32.2120   -4.4820   50.1150 O.2    59  SER59      -0.2866
      5  CB        31.9420   -6.3900   47.5350 C.3    59  SER59       0.2089
      6  OG        31.2410   -5.8710   46.4100 O.3    59  SER59      -0.2183
      7  N         27.7150   -0.6440   45.1690 N.3    62  ARG62      -0.1245
      8  CA        27.3360   -1.0850   43.8320 C.3    62  ARG62       0.1563
      9  C         26.1670   -0.2610   43.3740 C.2    62  ARG62       0.2260
     10  O         25.2520   -0.0220   44.1520 O.2    62  ARG62      -0.2867
     11  CB        26.8880   -2.5510   43.8270 C.3    62  ARG62       0.0307
     12  CG        27.8980   -3.5250   44.2300 C.3    62  ARG62       0.0489
     13  CD        27.3770   -4.9110   43.9720 C.3    62  ARG62       0.2205
     14  NE        28.1330   -5.8220   44.7930 N.pl3  62  ARG62      -0.0865
     15  CZ        27.5970   -6.6550   45.6700 C.cat  62  ARG62       0.5346
     16  NH1       26.2800   -6.7330   45.8050 N.pl3  62  ARG62       0.1354
     17  NH2       28.3860   -7.4310   46.3920 N.pl3  62  ARG62       0.1354
     18  N         24.4010   -4.1600   40.3980 N.3    67  GLN67      -0.1245
     19  CA        23.7300   -5.2490   41.0960 C.3    67  GLN67       0.1566
     20  C         22.9990   -6.1310   40.0850 C.2    67  GLN67       0.2260
     21  O         23.0100   -7.3670   40.2030 O.2    67  GLN67      -0.2867
     22  CB        22.7520   -4.7100   42.1520 C.3    67  GLN67       0.0367
     23  CG        22.0910   -5.8020   43.0080 C.3    67  GLN67       0.0905
     24  CD        23.0530   -6.4310   43.9800 C.2    67  GLN67       0.2608
     25  OE1       24.0640   -5.8300   44.3480 O.2    67  GLN67      -0.2717
     26  NE2       22.7280   -7.6400   44.4420 N.am   67  GLN67      -0.0878
     27  N         25.5330   -8.2970   38.3740 N.3    70  LEU70      -0.1245
     28  CA        25.9210   -9.3600   39.2990 C.3    70  LEU70       0.1561
     29  C         24.8590  -10.4670   39.3310 C.2    70  LEU70       0.2260
     30  O         25.1670  -11.6550   39.1760 O.2    70  LEU70      -0.2867
     31  CB        26.1440   -8.7790   40.6970 C.3    70  LEU70       0.0270
     32  CG        26.5060   -9.7730   41.7860 C.3    70  LEU70       0.0019
     33  CD1       27.8430  -10.3890   41.4730 C.3    70  LEU70       0.0001
     34  CD2       26.5160   -9.0630   43.1520 C.3    70  LEU70       0.0001
     35  N         21.8680  -16.2210   47.4400 N.3    86  PHE86      -0.1227
     36  CA        23.0430  -15.4610   47.8250 C.3    86  PHE86       0.1736
     37  C         23.1640  -14.0860   47.2090 C.2    86  PHE86       0.2595
     38  O         24.0310  -13.3200   47.6080 O.2    86  PHE86      -0.2718
     39  CB        24.3040  -16.2570   47.4980 C.3    86  PHE86       0.0547
     40  CG        24.4590  -17.4820   48.3400 C.ar   86  PHE86      -0.0202
     41  CD1       24.7410  -17.3620   49.6950 C.ar   86  PHE86      -0.0042
     42  CD2       24.3120  -18.7470   47.7930 C.ar   86  PHE86      -0.0042
     43  CE1       24.8750  -18.4790   50.4920 C.ar   86  PHE86      -0.0003
     44  CE2       24.4460  -19.8770   48.5910 C.ar   86  PHE86      -0.0003
     45  CZ        24.7340  -19.7400   49.9440 C.ar   86  PHE86      -0.0000
     46  N         22.3220  -13.7700   46.2340 N.am   87  VAL87      -0.1966
     47  CA        22.3980  -12.4650   45.6010 C.3    87  VAL87       0.1727
     48  C         21.0770  -11.7240   45.7330 C.2    87  VAL87       0.2616
     49  O         20.0150  -12.2720   45.4270 O.2    87  VAL87      -0.2715
     50  CB        22.7570  -12.5700   44.0960 C.3    87  VAL87       0.0290
     51  CG1       22.9640  -11.1770   43.5190 C.3    87  VAL87       0.0023
     52  CG2       24.0080  -13.4050   43.9140 C.3    87  VAL87       0.0023
     53  N         21.1350  -10.4760   46.1840 N.am   88  ALA88      -0.1977
     54  CA        19.9120   -9.7060   46.3190 C.3    88  ALA88       0.1597
     55  C         19.4560   -9.2320   44.9530 C.2    88  ALA88       0.2287
     56  O         20.2670   -8.9820   44.0490 O.2    88  ALA88      -0.2864
     57  CB        20.1050   -8.5230   47.2680 C.3    88  ALA88       0.0319
     58  N         19.5070   -4.5990   47.3490 N.3    93  SER93      -0.1202
     59  CA        20.8150   -4.8310   47.9520 C.3    93  SER93       0.2020
     60  C         21.2490   -3.6750   48.8300 C.2    93  SER93       0.2619
     61  O         21.2230   -2.5190   48.4040 O.2    93  SER93      -0.2717
     62  CB        21.8810   -5.0630   46.8790 C.3    93  SER93       0.2103
     63  OG        23.1710   -5.1830   47.4790 O.3    93  SER93      -0.2182
     64  N         21.6980   -3.9900   50.0420 N.am   94  GLU94      -0.1965
     65  CA        22.3130   -2.9940   50.9000 C.3    94  GLU94       0.1733
     66  C         23.5520   -2.3820   50.2710 C.2    94  GLU94       0.2616
     67  O         23.9610   -1.2800   50.6170 O.2    94  GLU94      -0.2715
     68  CB        22.6990   -3.6150   52.2350 C.3    94  GLU94       0.0429
     69  CG        21.5500   -4.1830   52.9780 C.3    94  GLU94       0.1163
     70  CD        21.9730   -4.6550   54.3510 C.2    94  GLU94       0.3649
     71  OE1       23.1160   -5.1720   54.4700 O.co2  94  GLU94      -0.2457
     72  OE2       21.1780   -4.4960   55.2790 O.co2  94  GLU94      -0.2457
     73  N         24.1820   -3.1130   49.3600 N.am   95  HIS95      -0.1973
     74  CA        25.3580   -2.5760   48.7100 C.3    95  HIS95       0.1656
     75  C         25.0240   -1.3140   47.9200 C.2    95  HIS95       0.2291
     76  O         25.8800   -0.4810   47.7160 O.2    95  HIS95      -0.2864
     77  CB        25.9990   -3.6340   47.8150 C.3    95  HIS95       0.0771
     78  CG        26.7650   -4.6690   48.5830 C.ar   95  HIS95       0.0820
     79  ND1       28.0740   -4.4830   48.9670 N.ar   95  HIS95      -0.2267
     80  CD2       26.4070   -5.8950   49.0420 C.ar   95  HIS95       0.1154
     81  CE1       28.4880   -5.5360   49.6520 C.ar   95  HIS95       0.1986
     82  NE2       27.4990   -6.4130   49.7030 N.ar   95  HIS95      -0.2212
     83  N         31.5030   -6.5180   52.1300 N.3   102  ASP102     -0.1239
     84  CA        31.8500   -7.9270   52.0900 C.3   102  ASP102      0.1674
     85  C         33.2970   -8.0260   52.4990 C.2   102  ASP102      0.2266
     86  O         34.1310   -7.3300   51.9370 O.2   102  ASP102     -0.2867
     87  CB        31.6570   -8.5350   50.7000 C.3   102  ASP102      0.1410
     88  CG        30.2080   -8.6050   50.2850 C.2   102  ASP102      0.3668
     89  OD1       29.3020   -8.6200   51.1570 O.co2 102  ASP102     -0.2456
     90  OD2       29.9690   -8.6690   49.0620 O.co2 102  ASP102     -0.2456
     91  N         33.6780  -15.0410   43.8180 N.3   113  LEU113     -0.1231
     92  CA        32.9300  -13.8280   43.5470 C.3   113  LEU113      0.1693
     93  C         31.8100  -13.6040   44.5530 C.2   113  LEU113      0.2591
     94  O         31.8630  -12.6910   45.3770 O.2   113  LEU113     -0.2718
     95  CB        32.3430  -13.9100   42.1390 C.3   113  LEU113      0.0284
     96  CG        32.4200  -12.6960   41.2260 C.3   113  LEU113      0.0019
     97  CD1       33.7980  -12.1030   41.3090 C.3   113  LEU113      0.0001
     98  CD2       32.1290  -13.1600   39.8170 C.3   113  LEU113      0.0001
     99  N         30.8030  -14.4660   44.4770 N.am  114  ILE114     -0.1980
    100  CA        29.5710  -14.2910   45.2350 C.3   114  ILE114      0.1595
    101  C         29.7730  -14.5380   46.7240 C.2   114  ILE114      0.2287
    102  O         29.2290  -13.8240   47.5600 O.2   114  ILE114     -0.2864
    103  CB        28.4650  -15.2340   44.7100 C.3   114  ILE114      0.0276
    104  CG1       28.4700  -15.2570   43.1760 C.3   114  ILE114      0.0022
    105  CG2       27.1020  -14.8370   45.2640 C.3   114  ILE114      0.0022
    106  CD1       28.2720  -13.8930   42.5440 C.3   114  ILE114      0.0001
    107  N         32.7000  -14.7480   49.1910 N.3   116  PRO116     -0.2116
    108  CA        34.0740  -14.6480   49.6930 C.3   116  PRO116      0.1372
    109  C         34.2480  -15.4360   50.9840 C.2   116  PRO116      0.2244
    110  O         33.3370  -15.4890   51.8080 O.2   116  PRO116     -0.2868
    111  CB        34.2660  -13.1420   49.9260 C.3   116  PRO116      0.0268
    112  CG        32.9120  -12.5620   49.9210 C.3   116  PRO116      0.0207
    113  CD        32.0560  -13.4290   49.0720 C.3   116  PRO116      0.0892
    114  N         23.1760  -11.5120   57.5730 N.3   140  TYR140     -0.1241
    115  CA        22.4490  -12.6990   57.1510 C.3   140  TYR140      0.1605
    116  C         22.9520  -13.9070   57.9060 C.2   140  TYR140      0.2264
    117  O         23.7480  -14.6900   57.3850 O.2   140  TYR140     -0.2867
    118  CB        22.6100  -12.9070   55.6330 C.3   140  TYR140      0.0534
    119  CG        22.1740  -11.7070   54.8120 C.ar  140  TYR140     -0.0201
    120  CD1       20.8400  -11.3170   54.7640 C.ar  140  TYR140     -0.0009
    121  CD2       23.0980  -10.9720   54.0700 C.ar  140  TYR140     -0.0009
    122  CE1       20.4430  -10.2250   54.0050 C.ar  140  TYR140      0.0417
    123  CE2       22.7070   -9.8770   53.3040 C.ar  140  TYR140      0.0417
    124  CZ        21.3810   -9.5050   53.2840 C.ar  140  TYR140      0.1957
    125  OH        20.9930   -8.4170   52.5290 O.3   140  TYR140     -0.2866
    126  N         17.5660  -14.4090   52.6550 N.3   150  ILE150     -0.1245
    127  CA        18.9050  -14.6490   52.1450 C.3   150  ILE150      0.1561
    128  C         19.5540  -15.7430   52.9890 C.2   150  ILE150      0.2260
    129  O         19.3410  -15.8030   54.2080 O.2   150  ILE150     -0.2867
    130  CB        19.7500  -13.3520   52.1740 C.3   150  ILE150      0.0252
    131  CG1       19.1700  -12.3250   51.2070 C.3   150  ILE150      0.0019
    132  CG2       21.2080  -13.6170   51.8400 C.3   150  ILE150      0.0019
    133  CD1       19.4890  -12.6120   49.7250 C.3   150  ILE150      0.0001
    134  N         25.4140  -15.8060   55.1760 N.3   153  GLU153     -0.1245
    135  CA        26.5570  -15.1420   54.5510 C.3   153  GLU153      0.1567
    136  C         27.5400  -14.6150   55.5890 C.2   153  GLU153      0.2260
    137  O         27.4420  -13.4670   56.0150 O.2   153  GLU153     -0.2867
    138  CB        26.0940  -13.9920   53.6580 C.3   153  GLU153      0.0388
    139  CG        25.1350  -14.4470   52.5640 C.3   153  GLU153      0.1160
    140  CD        25.0060  -13.4540   51.4170 C.2   153  GLU153      0.3649
    141  OE1       25.3260  -12.2620   51.6080 O.co2 153  GLU153     -0.2457
    142  OE2       24.5790  -13.8860   50.3280 O.co2 153  GLU153     -0.2457
    143  N         30.3100  -13.3910   55.3200 N.3   155  TRP155     -0.1227
    144  CA        31.2080  -12.3440   54.8580 C.3   155  TRP155      0.1737
    145  C         30.5710  -10.9690   54.7680 C.2   155  TRP155      0.2595
    146  O         31.2730   -9.9840   54.5090 O.2   155  TRP155     -0.2718
    147  CB        31.7280  -12.7090   53.4820 C.3   155  TRP155      0.0564
    148  CG        30.5850  -12.8390   52.5140 C.ar  155  TRP155      0.0003
    149  CD1       29.9600  -11.8340   51.8340 C.ar  155  TRP155      0.0946
    150  CD2       29.9250  -14.0470   52.1470 C.ar  155  TRP155      0.0152
    151  NE1       28.9470  -12.3490   51.0580 N.ar  155  TRP155     -0.2442
    152  CE2       28.9110  -13.7060   51.2260 C.ar  155  TRP155      0.0810
    153  CE3       30.0990  -15.3900   52.4990 C.ar  155  TRP155      0.0012
    154  CZ2       28.0680  -14.6580   50.6640 C.ar  155  TRP155      0.0191
    155  CZ3       29.2620  -16.3360   51.9320 C.ar  155  TRP155      0.0001
    156  CH2       28.2560  -15.9600   51.0280 C.ar  155  TRP155      0.0015
    157  N         29.2470  -10.9150   54.9230 N.am  156  HIS156     -0.1975
    158  CA        28.4930   -9.6990   54.6150 C.3   156  HIS156      0.1656
    159  C         28.0810   -8.9890   55.8820 C.2   156  HIS156      0.2291
    160  O         27.3230   -9.5350   56.7150 O.2   156  HIS156     -0.2864
    161  CB        27.2490  -10.0140   53.7680 C.3   156  HIS156      0.0771
    162  CG        26.4190   -8.8090   53.4510 C.ar  156  HIS156      0.0820
    163  ND1       26.3460   -8.2520   52.1930 N.ar  156  HIS156     -0.2267
    164  CD2       25.6240   -8.0430   54.2420 C.ar  156  HIS156      0.1154
    165  CE1       25.5300   -7.2120   52.2160 C.ar  156  HIS156      0.1986
    166  NE2       25.0850   -7.0610   53.4540 N.ar  156  HIS156     -0.2212
@<TRIPOS>BOND
     1    27    28    1
     2    30    29    2
     3    28    29    1
     4    28    31    1
     5    98    96    1
     6    20    21    2
     7    20    19    1
     8    18    19    1
     9    31    32    1
    10    19    22    1
    11    96    97    1
    12    96    95    1
    13    33    32    1
    14    32    34    1
    15    95    92    1
    16    22    23    1
    17   106   104    1
    18    23    24    1
    19   104   103    1
    20     9     8    1
    21     9    10    2
    22    51    50    1
    23    92    91    1
    24    92    93    1
    25    11     8    1
    26    11    12    1
    27     8     7    1
    28    52    50    1
    29    13    12    1
    30    13    14    1
    31    24    25    2
    32    24    26   am
    33    56    55    2
    34    50    47    1
    35    99    93   am
    36    99   100    1
    37    93    94    2
    38   103   100    1
    39   103   105    1
    40    14    15    2
    41    55    54    1
    42   100   101    1
    43    49    48    2
    44    47    48    1
    45    47    46    1
    46    15    16    1
    47    15    17    1
    48    48    53   am
    49    53    54    1
    50    46    37   am
    51    54    57    1
    52     6     5    1
    53   101   102    2
    54    62    63    1
    55    62    59    1
    56    37    38    2
    57    37    36    1
    58    58    59    1
    59    35    36    1
    60    39    36    1
    61    39    40    1
    62     5     2    1
    63    76    75    2
    64    42    40   ar
    65    42    44   ar
    66    77    78    1
    67    77    74    1
    68    75    74    1
    69    59    60    1
    70     2     1    1
    71     2     3    1
    72    40    41   ar
    73    61    60    2
    74    78    79   ar
    75    78    80   ar
    76    44    45   ar
    77    74    73    1
    78    60    64   am
    79     3     4    2
    80    79    81   ar
    81    80    82   ar
    82    90    88   ar
    83   113   107    1
    84   113   112    1
    85   107   108    1
    86    73    66   am
    87    81    82   ar
    88   108   111    1
    89   108   109    1
    90    41    43   ar
    91   133   131    1
    92   112   111    1
    93    45    43   ar
    94    64    65    1
    95    66    67    2
    96    66    65    1
    97    88    87    1
    98    88    89   ar
    99   142   140   ar
   100   154   156   ar
   101   154   152   ar
   102    87    84    1
   103    65    68    1
   104   109   110    2
   105   156   155   ar
   106   151   152   ar
   107   151   149   ar
   108   131   130    1
   109   152   150   ar
   110   140   141   ar
   111   140   139    1
   112   149   148   ar
   113   132   130    1
   114   155   153   ar
   115    86    85    2
   116    84    83    1
   117    84    85    1
   118   127   130    1
   119   127   126    1
   120   127   128    1
   121   150   153   ar
   122   150   148   ar
   123   163   165   ar
   124   163   162   ar
   125   165   166   ar
   126    68    69    1
   127   148   147    1
   128   125   124    1
   129   139   138    1
   130    69    70    1
   131   128   129    2
   132   124   123   ar
   133   124   122   ar
   134   123   121   ar
   135   162   161    1
   136   162   164   ar
   137   166   164   ar
   138   147   144    1
   139   138   135    1
   140   161   158    1
   141   122   120   ar
   142   121   119   ar
   143    70    71   ar
   144    70    72   ar
   145   146   145    2
   146   135   134    1
   147   135   136    1
   148   158   157    1
   149   158   159    1
   150   120   119   ar
   151   145   144    1
   152   145   157   am
   153   119   118    1
   154   144   143    1
   155   136   137    2
   156   118   115    1
   157   159   160    2
   158   115   114    1
   159   115   116    1
   160   117   116    2
