@<TRIPOS>MOLECULE
tmp/4muuA09.pdb
 180 176 0 0 0
SMALL
GASTEIGER

@<TRIPOS>ATOM
      1  N         29.1260   22.4610   45.9900 N.3    25  ASN25      -0.1240
      2  CA        28.8210   21.7690   44.7330 C.3    25  ASN25       0.1653
      3  C         27.8270   22.4880   43.8350 C.2    25  ASN25       0.2266
      4  O         27.2360   21.8780   42.9480 O.2    25  ASN25      -0.2867
      5  CB        28.2900   20.3660   45.0370 C.3    25  ASN25       0.1155
      6  CG        26.9930   20.3900   45.7900 C.2    25  ASN25       0.2627
      7  OD1       26.5370   21.4380   46.2280 O.2    25  ASN25      -0.2716
      8  ND2       26.4170   19.2280   45.9960 N.am   25  ASN25      -0.0877
      9  N         20.0340   26.1490   42.4790 N.3    30  TRP30      -0.1241
     10  CA        19.9000   24.7590   42.8900 C.3    30  TRP30       0.1605
     11  C         20.4160   23.7550   41.8570 C.2    30  TRP30       0.2264
     12  O         20.2230   22.5560   42.0000 O.2    30  TRP30      -0.2867
     13  CB        18.4580   24.4830   43.2870 C.3    30  TRP30       0.0550
     14  CG        18.3230   24.5380   44.7900 C.ar   30  TRP30       0.0003
     15  CD1       17.7420   25.5190   45.5240 C.ar   30  TRP30       0.0946
     16  CD2       18.8200   23.5740   45.7230 C.ar   30  TRP30       0.0152
     17  NE1       17.8270   25.2270   46.8720 N.ar   30  TRP30      -0.2442
     18  CE2       18.4820   24.0350   47.0200 C.ar   30  TRP30       0.0810
     19  CE3       19.5000   22.3590   45.5920 C.ar   30  TRP30       0.0012
     20  CZ2       18.8000   23.3170   48.1790 C.ar   30  TRP30       0.0191
     21  CZ3       19.8170   21.6430   46.7500 C.ar   30  TRP30       0.0001
     22  CH2       19.4660   22.1290   48.0240 C.ar   30  TRP30       0.0015
     23  N         23.2520   21.7000   40.8840 N.3    32  ILE32      -0.1245
     24  CA        24.3990   21.2170   41.6340 C.3    32  ILE32       0.1561
     25  C         24.9920   19.9830   40.9710 C.2    32  ILE32       0.2260
     26  O         24.3580   19.3480   40.1380 O.2    32  ILE32      -0.2867
     27  CB        23.9670   20.8650   43.0540 C.3    32  ILE32       0.0252
     28  CG1       22.9180   19.7410   43.0690 C.3    32  ILE32       0.0019
     29  CG2       23.3180   22.1020   43.7290 C.3    32  ILE32       0.0019
     30  CD1       22.4430   19.3670   44.5020 C.3    32  ILE32       0.0001
     31  N         26.0820   16.5680   42.4850 N.3    34  GLU34      -0.1245
     32  CA        25.9940   15.9380   43.7840 C.3    34  GLU34       0.1567
     33  C         26.9280   14.7400   43.8910 C.2    34  GLU34       0.2260
     34  O         26.5180   13.5830   43.8910 O.2    34  GLU34      -0.2867
     35  CB        24.5390   15.5850   44.1170 C.3    34  GLU34       0.0388
     36  CG        24.4290   15.3490   45.6410 C.3    34  GLU34       0.1160
     37  CD        23.0350   15.1150   46.1130 C.2    34  GLU34       0.3649
     38  OE1       22.2310   14.5740   45.3210 O.co2  34  GLU34      -0.2457
     39  OE2       22.7550   15.4420   47.2910 O.co2  34  GLU34      -0.2457
     40  N         18.2640   21.2410   53.6140 N.3    70  TYR70      -0.1241
     41  CA        17.3930   22.3960   53.4060 C.3    70  TYR70       0.1605
     42  C         15.9620   21.8920   53.4600 C.2    70  TYR70       0.2264
     43  O         15.4890   21.1970   52.5550 O.2    70  TYR70      -0.2867
     44  CB        17.7000   23.0980   52.0640 C.3    70  TYR70       0.0534
     45  CG        19.1240   23.6140   51.9980 C.ar   70  TYR70      -0.0201
     46  CD1       20.1580   22.7990   51.5550 C.ar   70  TYR70      -0.0009
     47  CD2       19.4370   24.9070   52.3910 C.ar   70  TYR70      -0.0009
     48  CE1       21.4850   23.2720   51.5090 C.ar   70  TYR70       0.0417
     49  CE2       20.7410   25.3780   52.3460 C.ar   70  TYR70       0.0417
     50  CZ        21.7600   24.5590   51.9010 C.ar   70  TYR70       0.1957
     51  OH        23.0630   25.0330   51.8600 O.3    70  TYR70      -0.2866
     52  N          8.3060   17.4920   52.5400 N.3    76  GLN76      -0.1245
     53  CA         9.3970   17.7710   51.6100 C.3    76  GLN76       0.1566
     54  C         10.7120   17.1450   52.0970 C.2    76  GLN76       0.2260
     55  O         11.4650   16.5810   51.2900 O.2    76  GLN76      -0.2867
     56  CB         9.5190   19.2780   51.3790 C.3    76  GLN76       0.0367
     57  CG        10.7690   19.7140   50.6390 C.3    76  GLN76       0.0905
     58  CD        11.9490   19.9380   51.5640 C.2    76  GLN76       0.2608
     59  OE1       11.7920   20.0430   52.7910 O.2    76  GLN76      -0.2717
     60  NE2       13.1450   20.0000   50.9840 N.am   76  GLN76      -0.0878
     61  N         12.9450   14.4850   50.1280 N.3    80  GLU80      -0.1231
     62  CA        14.2110   14.8770   49.5450 C.3    80  GLU80       0.1699
     63  C         15.4200   14.4300   50.3210 C.2    80  GLU80       0.2592
     64  O         16.5250   14.4480   49.7910 O.2    80  GLU80      -0.2718
     65  CB        14.2610   16.3820   49.3420 C.3    80  GLU80       0.0402
     66  CG        13.2570   16.8760   48.3290 C.3    80  GLU80       0.1161
     67  CD        13.7460   18.1400   47.6970 C.2    80  GLU80       0.3649
     68  OE1       14.5410   17.9970   46.7480 O.co2  80  GLU80      -0.2457
     69  OE2       13.3880   19.2580   48.1790 O.co2  80  GLU80      -0.2457
     70  N         15.2010   14.0510   51.5750 N.am   81  TYR81      -0.1976
     71  CA        16.2760   13.6460   52.4450 C.3    81  TYR81       0.1639
     72  C         16.0990   12.2660   53.0700 C.2    81  TYR81       0.2290
     73  O         16.9560   11.8340   53.8170 O.2    81  TYR81      -0.2864
     74  CB        16.4890   14.7170   53.5010 C.3    81  TYR81       0.0560
     75  CG        17.1680   15.9430   52.9250 C.ar   81  TYR81      -0.0198
     76  CD1       18.5300   15.9520   52.7400 C.ar   81  TYR81      -0.0009
     77  CD2       16.4430   17.0850   52.5890 C.ar   81  TYR81      -0.0009
     78  CE1       19.1700   17.0450   52.2400 C.ar   81  TYR81       0.0417
     79  CE2       17.0770   18.2010   52.0490 C.ar   81  TYR81       0.0417
     80  CZ        18.4470   18.1730   51.8990 C.ar   81  TYR81       0.1957
     81  OH        19.1480   19.2470   51.4150 O.3    81  TYR81      -0.2866
     82  N         16.8080    9.3260   41.7740 N.3   117  LYS117     -0.1231
     83  CA        16.9780   10.3040   42.8490 C.3   117  LYS117      0.1693
     84  C         16.5330   11.6700   42.3450 C.2   117  LYS117      0.2592
     85  O         15.7760   12.3520   43.0210 O.2   117  LYS117     -0.2718
     86  CB        18.4340   10.3810   43.3160 C.3   117  LYS117      0.0285
     87  CG        18.6240   11.2090   44.5890 C.3   117  LYS117      0.0035
     88  CD        20.0960   11.2230   45.0270 C.3   117  LYS117      0.0206
     89  CE        20.3120   11.8190   46.3930 C.3   117  LYS117      0.1093
     90  NZ        19.7950   13.1940   46.6780 N.3   117  LYS117     -0.1314
     91  N         16.9670   12.0520   41.1430 N.am  118  TYR118     -0.1976
     92  CA        16.6160   13.3740   40.6390 C.3   118  TYR118      0.1639
     93  C         15.1910   13.4560   40.1320 C.2   118  TYR118      0.2290
     94  O         14.5950   14.5550   40.0420 O.2   118  TYR118     -0.2864
     95  CB        17.7100   13.8970   39.6880 C.3   118  TYR118      0.0560
     96  CG        18.7490   14.5110   40.5850 C.ar  118  TYR118     -0.0198
     97  CD1       19.6910   13.7170   41.2390 C.ar  118  TYR118     -0.0009
     98  CD2       18.6740   15.8610   40.9280 C.ar  118  TYR118     -0.0009
     99  CE1       20.5780   14.2760   42.1490 C.ar  118  TYR118      0.0417
    100  CE2       19.5360   16.4210   41.8120 C.ar  118  TYR118      0.0417
    101  CZ        20.4920   15.6380   42.4290 C.ar  118  TYR118      0.1957
    102  OH        21.3450   16.2460   43.3210 O.3   118  TYR118     -0.2866
    103  N         13.5900   14.6300   43.3060 N.3   121  HIS121     -0.1241
    104  CA        13.8180   16.0830   43.4580 C.3   121  HIS121      0.1621
    105  C         12.9870   16.8880   42.5070 C.2   121  HIS121      0.2264
    106  O         12.4960   17.9640   42.8760 O.2   121  HIS121     -0.2867
    107  CB        15.2860   16.4710   43.2820 C.3   121  HIS121      0.0745
    108  CG        16.1750   15.8430   44.2990 C.ar  121  HIS121      0.0817
    109  ND1       15.9880   16.0160   45.6580 N.ar  121  HIS121     -0.2268
    110  CD2       17.2560   15.0370   44.1660 C.ar  121  HIS121      0.1154
    111  CE1       16.9080   15.3270   46.3100 C.ar  121  HIS121      0.1986
    112  NE2       17.6910   14.7320   45.4300 N.ar  121  HIS121     -0.2212
    113  N          9.6530   17.1530   43.8660 N.3   124  ALA124     -0.1231
    114  CA         9.7640   18.0580   45.0140 C.3   124  ALA124      0.1694
    115  C          9.8610   19.4920   44.5460 C.2   124  ALA124      0.2592
    116  O          9.4480   20.4300   45.2480 O.2   124  ALA124     -0.2718
    117  CB        11.0070   17.7020   45.8070 C.3   124  ALA124      0.0304
    118  N         10.4290   19.6700   43.3590 N.am  125  GLY125     -0.1957
    119  CA        10.6360   20.9930   42.8280 C.3   125  GLY125      0.1869
    120  C          9.2980   21.5810   42.4270 C.2   125  GLY125      0.2309
    121  O          9.0160   22.7280   42.7100 O.2   125  GLY125     -0.2863
    122  N          9.2220   24.1100   45.6050 N.3   129  TRP129     -0.1241
    123  CA        10.2090   25.1350   45.2660 C.3   129  TRP129      0.1605
    124  C          9.7680   26.0390   44.1360 C.2   129  TRP129      0.2264
    125  O         10.5770   26.7560   43.5900 O.2   129  TRP129     -0.2867
    126  CB        11.5470   24.4570   44.8640 C.3   129  TRP129      0.0550
    127  CG        12.1630   23.6520   45.9410 C.ar  129  TRP129      0.0003
    128  CD1       11.9300   22.3250   46.2150 C.ar  129  TRP129      0.0946
    129  CD2       13.1160   24.1010   46.9190 C.ar  129  TRP129      0.0152
    130  NE1       12.6630   21.9400   47.3150 N.ar  129  TRP129     -0.2442
    131  CE2       13.4050   23.0030   47.7580 C.ar  129  TRP129      0.0810
    132  CE3       13.7520   25.3260   47.1650 C.ar  129  TRP129      0.0012
    133  CZ2       14.3140   23.0810   48.7960 C.ar  129  TRP129      0.0191
    134  CZ3       14.6460   25.4080   48.2150 C.ar  129  TRP129      0.0001
    135  CH2       14.9190   24.2890   49.0170 C.ar  129  TRP129      0.0015
    136  N         10.6280   29.8730   43.6000 N.3   132  TYR132     -0.1241
    137  CA        11.9350   30.2920   43.1110 C.3   132  TYR132      0.1605
    138  C         12.0550   30.2270   41.5850 C.2   132  TYR132      0.2264
    139  O         13.1010   30.5610   41.0380 O.2   132  TYR132     -0.2867
    140  CB        13.0210   29.4340   43.7700 C.3   132  TYR132      0.0534
    141  CG        12.9680   29.5210   45.2760 C.ar  132  TYR132     -0.0201
    142  CD1       13.6150   30.5530   45.9560 C.ar  132  TYR132     -0.0009
    143  CD2       12.2430   28.6030   46.0150 C.ar  132  TYR132     -0.0009
    144  CE1       13.5470   30.6540   47.3490 C.ar  132  TYR132      0.0417
    145  CE2       12.1760   28.6840   47.4020 C.ar  132  TYR132      0.0417
    146  CZ        12.8280   29.7150   48.0610 C.ar  132  TYR132      0.1957
    147  OH        12.7550   29.7940   49.4370 O.3   132  TYR132     -0.2866
    148  N         10.6170   24.8980   35.3390 N.3   142  TYR142     -0.1227
    149  CA        11.7060   25.2180   36.2530 C.3   142  TYR142      0.1736
    150  C         12.2960   23.9500   36.9000 C.2   142  TYR142      0.2596
    151  O         13.5170   23.7480   36.9120 O.2   142  TYR142     -0.2718
    152  CB        11.2010   26.1810   37.3260 C.3   142  TYR142      0.0548
    153  CG        12.2250   26.5530   38.3660 C.ar  142  TYR142     -0.0200
    154  CD1       13.3850   27.2440   38.0220 C.ar  142  TYR142     -0.0009
    155  CD2       12.0220   26.2360   39.7030 C.ar  142  TYR142     -0.0009
    156  CE1       14.3110   27.6060   38.9840 C.ar  142  TYR142      0.0417
    157  CE2       12.9370   26.5970   40.6730 C.ar  142  TYR142      0.0417
    158  CZ        14.0800   27.2720   40.3160 C.ar  142  TYR142      0.1957
    159  OH        14.9960   27.6050   41.2960 O.3   142  TYR142     -0.2866
    160  N         11.4340   23.1060   37.4510 N.am  143  SER143     -0.1952
    161  CA        11.9170   21.9340   38.1600 C.3   143  SER143      0.1924
    162  C         12.6510   20.9920   37.2110 C.2   143  SER143      0.2314
    163  O         13.6990   20.4730   37.5620 O.2   143  SER143     -0.2863
    164  CB        10.8100   21.1830   38.8480 C.3   143  SER143      0.2116
    165  OG        11.4090   20.3120   39.7830 O.3   143  SER143     -0.2180
    166  N         16.0820   22.5930   36.4180 N.3   146  VAL146     -0.1231
    167  CA        16.9460   22.5770   37.5770 C.3   146  VAL146      0.1692
    168  C         17.3810   21.1530   37.8900 C.2   146  VAL146      0.2592
    169  O         18.5580   20.8840   37.9780 O.2   146  VAL146     -0.2718
    170  CB        16.2960   23.2550   38.8250 C.3   146  VAL146      0.0266
    171  CG1       17.1000   23.0260   40.0530 C.3   146  VAL146      0.0020
    172  CG2       16.1600   24.8200   38.5910 C.3   146  VAL146      0.0020
    173  N         16.4250   20.2490   38.0530 N.am  147  ASN147     -0.1974
    174  CA        16.7350   18.9430   38.5810 C.3   147  ASN147      0.1688
    175  C         17.2530   18.0090   37.4710 C.2   147  ASN147      0.2292
    176  O         18.1060   17.1680   37.7030 O.2   147  ASN147     -0.2864
    177  CB        15.5250   18.4230   39.3560 C.3   147  ASN147      0.1181
    178  CG        15.2760   19.2360   40.6010 C.2   147  ASN147      0.2629
    179  OD1       14.2400   19.8940   40.7520 O.2   147  ASN147     -0.2716
    180  ND2       16.2740   19.2810   41.4570 N.am  147  ASN147     -0.0877
@<TRIPOS>BOND
     1   148   149    1
     2   149   150    1
     3   149   152    1
     4   166   167    1
     5   150   151    2
     6   150   160   am
     7   162   163    2
     8   162   161    1
     9   152   153    1
    10   160   161    1
    11   175   176    2
    12   175   174    1
    13   167   168    1
    14   167   170    1
    15   168   169    2
    16   168   173   am
    17   154   153   ar
    18   154   156   ar
    19   173   174    1
    20   161   164    1
    21   153   155   ar
    22   174   177    1
    23   172   170    1
    24   170   171    1
    25   164   165    1
    26   156   158   ar
    27   177   178    1
    28    95    96    1
    29    95    92    1
    30   155   157   ar
    31    94    93    2
    32    93    92    1
    33    26    25    2
    34   158   157   ar
    35   158   159    1
    36    96    98   ar
    37    96    97   ar
    38   178   179    2
    39   178   180   am
    40    92    91    1
    41    23    24    1
    42    98   100   ar
    43    25    24    1
    44   139   138    2
    45    91    84   am
    46    97    99   ar
    47   138   137    1
    48    24    27    1
    49    82    83    1
    50   100   101   ar
    51    11    12    2
    52    11    10    1
    53    99   101   ar
    54    84    83    1
    55    84    85    2
    56   120   121    2
    57   120   119    1
    58   101   102    1
    59     9    10    1
    60    31    32    1
    61   105   106    2
    62   105   104    1
    63   119   118    1
    64    83    86    1
    65    10    13    1
    66     4     3    2
    67    27    28    1
    68    27    29    1
    69    28    30    1
    70   137   136    1
    71   137   140    1
    72   107   104    1
    73   107   108    1
    74    13    14    1
    75   103   104    1
    76    86    87    1
    77   118   115   am
    78   125   124    2
    79   140   141    1
    80    32    33    1
    81    32    35    1
    82     3     2    1
    83   113   114    1
    84    33    34    2
    85    35    36    1
    86   124   123    1
    87   110   108   ar
    88   110   112   ar
    89   108   109   ar
    90   115   114    1
    91   115   116    2
    92    87    88    1
    93     2     5    1
    94     2     1    1
    95    14    15   ar
    96    14    16   ar
    97   126   123    1
    98   126   127    1
    99   114   117    1
   100    88    89    1
   101     5     6    1
   102   123   122    1
   103   141   142   ar
   104   141   143   ar
   105    38    37   ar
   106   112   111   ar
   107    15    17   ar
   108    19    16   ar
   109    19    21   ar
   110    36    37    1
   111   109   111   ar
   112    16    18   ar
   113     6     8   am
   114     6     7    2
   115   127   128   ar
   116   127   129   ar
   117   142   144   ar
   118   143   145   ar
   119    37    39   ar
   120   128   130   ar
   121    89    90    1
   122    68    67   ar
   123    21    22   ar
   124    17    18   ar
   125   129   132   ar
   126   129   131   ar
   127    18    20   ar
   128   132   134   ar
   129   130   131   ar
   130   144   146   ar
   131   145   146   ar
   132    67    69   ar
   133    67    66    1
   134   131   133   ar
   135    22    20   ar
   136   146   147    1
   137   134   135   ar
   138    66    65    1
   139   133   135   ar
   140    65    62    1
   141    62    61    1
   142    62    63    1
   143    64    63    2
   144    63    70   am
   145    57    56    1
   146    57    58    1
   147    60    58   am
   148    55    54    2
   149    56    53    1
   150    81    80    1
   151    48    46   ar
   152    48    50   ar
   153    46    45   ar
   154    58    59    2
   155    70    71    1
   156    53    54    1
   157    53    52    1
   158    51    50    1
   159    80    79   ar
   160    80    78   ar
   161    50    49   ar
   162    45    44    1
   163    45    47   ar
   164    79    77   ar
   165    44    41    1
   166    78    76   ar
   167    49    47   ar
   168    71    72    1
   169    71    74    1
   170    43    42    2
   171    77    75   ar
   172    76    75   ar
   173    75    74    1
   174    72    73    2
   175    41    42    1
   176    41    40    1
