@<TRIPOS>MOLECULE
tmp/4muuA06.pdb
 147 145 0 0 0
SMALL
GASTEIGER

@<TRIPOS>ATOM
      1  N         31.6160   14.1310   52.0210 N.3    20  ILE20      -0.1231
      2  CA        31.7490   14.7120   50.6790 C.3    20  ILE20       0.1692
      3  C         30.6770   15.7600   50.4270 C.2    20  ILE20       0.2592
      4  O         30.9380   16.7380   49.7380 O.2    20  ILE20      -0.2718
      5  CB        31.7500   13.6330   49.6000 C.3    20  ILE20       0.0266
      6  CG1       33.0410   12.8210   49.7030 C.3    20  ILE20       0.0019
      7  CG2       31.6120   14.2530   48.2000 C.3    20  ILE20       0.0020
      8  CD1       32.9800   11.4960   49.0200 C.3    20  ILE20       0.0001
      9  N         29.4850   15.5560   51.0050 N.am   21  SER21      -0.1952
     10  CA        28.3560   16.4780   50.8640 C.3    21  SER21       0.1924
     11  C         28.6580   17.8460   51.5070 C.2    21  SER21       0.2314
     12  O         27.9160   18.8130   51.3300 O.2    21  SER21      -0.2863
     13  CB        27.0650   15.8730   51.4520 C.3    21  SER21       0.2116
     14  OG        26.9970   15.9720   52.8680 O.3    21  SER21      -0.2180
     15  N         31.4300   19.4190   50.7220 N.3    23  ILE23      -0.1245
     16  CA        32.1490   20.1520   49.6880 C.3    23  ILE23       0.1561
     17  C         31.1520   21.0290   48.9210 C.2    23  ILE23       0.2260
     18  O         30.0860   20.5440   48.5500 O.2    23  ILE23      -0.2867
     19  CB        32.8510   19.1830   48.7250 C.3    23  ILE23       0.0252
     20  CG1       33.9190   18.3880   49.4830 C.3    23  ILE23       0.0019
     21  CG2       33.4920   19.9360   47.5700 C.3    23  ILE23       0.0019
     22  CD1       34.4280   17.1590   48.7410 C.3    23  ILE23       0.0001
     23  N         29.1260   22.4610   45.9900 N.3    25  ASN25      -0.1225
     24  CA        28.8210   21.7690   44.7330 C.3    25  ASN25       0.1785
     25  C         27.8270   22.4880   43.8350 C.2    25  ASN25       0.2597
     26  O         27.2360   21.8780   42.9480 O.2    25  ASN25      -0.2718
     27  CB        28.2900   20.3660   45.0370 C.3    25  ASN25       0.1169
     28  CG        26.9930   20.3900   45.7900 C.2    25  ASN25       0.2627
     29  OD1       26.5370   21.4380   46.2280 O.2    25  ASN25      -0.2716
     30  ND2       26.4170   19.2280   45.9960 N.am   25  ASN25      -0.0877
     31  N         27.6360   23.7800   44.0740 N.am   26  THR26      -0.1953
     32  CA        26.6540   24.5610   43.3370 C.3    26  THR26       0.1897
     33  C         27.2310   25.0690   42.0260 C.2    26  THR26       0.2313
     34  O         28.3220   25.6380   42.0070 O.2    26  THR26      -0.2863
     35  CB        26.2150   25.7800   44.1760 C.3    26  THR26       0.1794
     36  OG1       25.4550   25.3160   45.2950 O.3    26  THR26      -0.2208
     37  CG2       25.3660   26.7640   43.3590 C.3    26  THR26       0.0378
     38  N         22.3880   28.4150   41.3830 N.3    29  GLY29      -0.1210
     39  CA        21.1830   28.2510   42.1770 C.3    29  GLY29       0.1956
     40  C         21.1490   26.8290   42.7000 C.2    29  GLY29       0.2611
     41  O         22.1360   26.3510   43.2610 O.2    29  GLY29      -0.2717
     42  N         20.0340   26.1490   42.4790 N.am   30  TRP30      -0.1976
     43  CA        19.9000   24.7590   42.8900 C.3    30  TRP30       0.1640
     44  C         20.4160   23.7550   41.8570 C.2    30  TRP30       0.2290
     45  O         20.2230   22.5560   42.0000 O.2    30  TRP30      -0.2864
     46  CB        18.4580   24.4830   43.2870 C.3    30  TRP30       0.0576
     47  CG        18.3230   24.5380   44.7900 C.ar   30  TRP30       0.0006
     48  CD1       17.7420   25.5190   45.5240 C.ar   30  TRP30       0.0946
     49  CD2       18.8200   23.5740   45.7230 C.ar   30  TRP30       0.0152
     50  NE1       17.8270   25.2270   46.8720 N.ar   30  TRP30      -0.2442
     51  CE2       18.4820   24.0350   47.0200 C.ar   30  TRP30       0.0810
     52  CE3       19.5000   22.3590   45.5920 C.ar   30  TRP30       0.0012
     53  CZ2       18.8000   23.3170   48.1790 C.ar   30  TRP30       0.0191
     54  CZ3       19.8170   21.6430   46.7500 C.ar   30  TRP30       0.0001
     55  CH2       19.4660   22.1290   48.0240 C.ar   30  TRP30       0.0015
     56  N         23.2520   21.7000   40.8840 N.3    32  ILE32      -0.1245
     57  CA        24.3990   21.2170   41.6340 C.3    32  ILE32       0.1561
     58  C         24.9920   19.9830   40.9710 C.2    32  ILE32       0.2260
     59  O         24.3580   19.3480   40.1380 O.2    32  ILE32      -0.2867
     60  CB        23.9670   20.8650   43.0540 C.3    32  ILE32       0.0252
     61  CG1       22.9180   19.7410   43.0690 C.3    32  ILE32       0.0019
     62  CG2       23.3180   22.1020   43.7290 C.3    32  ILE32       0.0019
     63  CD1       22.4430   19.3670   44.5020 C.3    32  ILE32       0.0001
     64  N         26.0820   16.5680   42.4850 N.3    34  GLU34      -0.1231
     65  CA        25.9940   15.9380   43.7840 C.3    34  GLU34       0.1699
     66  C         26.9280   14.7400   43.8910 C.2    34  GLU34       0.2592
     67  O         26.5180   13.5830   43.8910 O.2    34  GLU34      -0.2718
     68  CB        24.5390   15.5850   44.1170 C.3    34  GLU34       0.0402
     69  CG        24.4290   15.3490   45.6410 C.3    34  GLU34       0.1161
     70  CD        23.0350   15.1150   46.1130 C.2    34  GLU34       0.3649
     71  OE1       22.2310   14.5740   45.3210 O.co2  34  GLU34      -0.2457
     72  OE2       22.7550   15.4420   47.2910 O.co2  34  GLU34      -0.2457
     73  N         28.2020   15.0640   43.9900 N.am   35  ILE35      -0.1966
     74  CA        29.2510   14.1040   44.0910 C.3    35  ILE35       0.1727
     75  C         29.0860   13.1980   45.3000 C.2    35  ILE35       0.2616
     76  O         29.6560   12.0930   45.3460 O.2    35  ILE35      -0.2715
     77  CB        30.6480   14.7860   44.1030 C.3    35  ILE35       0.0290
     78  CG1       30.7110   15.9770   45.0560 C.3    35  ILE35       0.0022
     79  CG2       31.0000   15.2620   42.7170 C.3    35  ILE35       0.0023
     80  CD1       32.1660   16.4770   45.3050 C.3    35  ILE35       0.0001
     81  N         28.3100   13.6620   46.2730 N.am   36  ALA36      -0.1977
     82  CA        28.0690   12.9030   47.5190 C.3    36  ALA36       0.1597
     83  C         27.2520   11.6000   47.3000 C.2    36  ALA36       0.2287
     84  O         27.2300   10.7140   48.1530 O.2    36  ALA36      -0.2864
     85  CB        27.3560   13.8150   48.5360 C.3    36  ALA36       0.0319
     86  N         22.7530    8.3520   55.3060 N.3    59  TRP59      -0.1241
     87  CA        23.3050    9.6170   54.8180 C.3    59  TRP59       0.1605
     88  C         22.2730   10.7650   54.9370 C.2    59  TRP59       0.2264
     89  O         22.5960   11.8810   55.3610 O.2    59  TRP59      -0.2867
     90  CB        23.7630    9.4470   53.3730 C.3    59  TRP59       0.0550
     91  CG        24.1190   10.7190   52.6920 C.ar   59  TRP59       0.0003
     92  CD1       24.7400   11.8000   53.2520 C.ar   59  TRP59       0.0946
     93  CD2       23.8950   11.0540   51.3170 C.ar   59  TRP59       0.0152
     94  NE1       24.9180   12.7880   52.3220 N.ar   59  TRP59      -0.2442
     95  CE2       24.3980   12.3700   51.1250 C.ar   59  TRP59       0.0810
     96  CE3       23.3200   10.3810   50.2310 C.ar   59  TRP59       0.0012
     97  CZ2       24.3360   13.0270   49.8990 C.ar   59  TRP59       0.0191
     98  CZ3       23.2680   11.0340   48.9960 C.ar   59  TRP59       0.0001
     99  CH2       23.7820   12.3470   48.8440 C.ar   59  TRP59       0.0015
    100  N         22.4110   20.3070   57.7780 N.3    68  HIS68      -0.1241
    101  CA        22.8650   20.5520   56.4020 C.3    68  HIS68       0.1621
    102  C         21.7800   20.3590   55.3690 C.2    68  HIS68       0.2264
    103  O         21.9620   20.7020   54.2030 O.2    68  HIS68      -0.2867
    104  CB        24.0750   19.6850   56.0750 C.3    68  HIS68       0.0745
    105  CG        25.3320   20.1750   56.7270 C.ar   68  HIS68       0.0817
    106  ND1       25.6820   19.8360   58.0160 N.ar   68  HIS68      -0.2268
    107  CD2       26.2910   21.0230   56.2900 C.ar   68  HIS68       0.1154
    108  CE1       26.8200   20.4270   58.3330 C.ar   68  HIS68       0.1986
    109  NE2       27.2090   21.1570   57.3050 N.ar   68  HIS68      -0.2212
    110  N         18.2640   21.2410   53.6140 N.3    70  TYR70      -0.1241
    111  CA        17.3930   22.3960   53.4060 C.3    70  TYR70       0.1605
    112  C         15.9620   21.8920   53.4600 C.2    70  TYR70       0.2264
    113  O         15.4890   21.1970   52.5550 O.2    70  TYR70      -0.2867
    114  CB        17.7000   23.0980   52.0640 C.3    70  TYR70       0.0534
    115  CG        19.1240   23.6140   51.9980 C.ar   70  TYR70      -0.0201
    116  CD1       20.1580   22.7990   51.5550 C.ar   70  TYR70      -0.0009
    117  CD2       19.4370   24.9070   52.3910 C.ar   70  TYR70      -0.0009
    118  CE1       21.4850   23.2720   51.5090 C.ar   70  TYR70       0.0417
    119  CE2       20.7410   25.3780   52.3460 C.ar   70  TYR70       0.0417
    120  CZ        21.7600   24.5590   51.9010 C.ar   70  TYR70       0.1957
    121  OH        23.0630   25.0330   51.8600 O.3    70  TYR70      -0.2866
    122  N         15.2010   14.0510   51.5750 N.3    81  TYR81      -0.1241
    123  CA        16.2760   13.6460   52.4450 C.3    81  TYR81       0.1605
    124  C         16.0990   12.2660   53.0700 C.2    81  TYR81       0.2264
    125  O         16.9560   11.8340   53.8170 O.2    81  TYR81      -0.2867
    126  CB        16.4890   14.7170   53.5010 C.3    81  TYR81       0.0534
    127  CG        17.1680   15.9430   52.9250 C.ar   81  TYR81      -0.0201
    128  CD1       18.5300   15.9520   52.7400 C.ar   81  TYR81      -0.0009
    129  CD2       16.4430   17.0850   52.5890 C.ar   81  TYR81      -0.0009
    130  CE1       19.1700   17.0450   52.2400 C.ar   81  TYR81       0.0417
    131  CE2       17.0770   18.2010   52.0490 C.ar   81  TYR81       0.0417
    132  CZ        18.4470   18.1730   51.8990 C.ar   81  TYR81       0.1957
    133  OH        19.1480   19.2470   51.4150 O.3    81  TYR81      -0.2866
    134  N          9.2220   24.1100   45.6050 N.3   129  TRP129     -0.1241
    135  CA        10.2090   25.1350   45.2660 C.3   129  TRP129      0.1605
    136  C          9.7680   26.0390   44.1360 C.2   129  TRP129      0.2264
    137  O         10.5770   26.7560   43.5900 O.2   129  TRP129     -0.2867
    138  CB        11.5470   24.4570   44.8640 C.3   129  TRP129      0.0550
    139  CG        12.1630   23.6520   45.9410 C.ar  129  TRP129      0.0003
    140  CD1       11.9300   22.3250   46.2150 C.ar  129  TRP129      0.0946
    141  CD2       13.1160   24.1010   46.9190 C.ar  129  TRP129      0.0152
    142  NE1       12.6630   21.9400   47.3150 N.ar  129  TRP129     -0.2442
    143  CE2       13.4050   23.0030   47.7580 C.ar  129  TRP129      0.0810
    144  CE3       13.7520   25.3260   47.1650 C.ar  129  TRP129      0.0012
    145  CZ2       14.3140   23.0810   48.7960 C.ar  129  TRP129      0.0191
    146  CZ3       14.6460   25.4080   48.2150 C.ar  129  TRP129      0.0001
    147  CH2       14.9190   24.2890   49.0170 C.ar  129  TRP129      0.0015
@<TRIPOS>BOND
     1    59    58    2
     2    56    57    1
     3    58    57    1
     4    38    39    1
     5    57    60    1
     6    44    45    2
     7    44    43    1
     8    34    33    2
     9    33    32    1
    10    39    40    1
    11    42    40   am
    12    42    43    1
    13    64    65    1
    14    40    41    2
    15    79    77    1
    16    43    46    1
    17    26    25    2
    18    60    61    1
    19    60    62    1
    20    61    63    1
    21    46    47    1
    22    32    31    1
    23    32    35    1
    24    37    35    1
    25   137   136    2
    26    65    66    1
    27    65    68    1
    28    25    31   am
    29    25    24    1
    30    66    67    2
    31    66    73   am
    32    73    74    1
    33    74    77    1
    34    74    75    1
    35    77    78    1
    36    68    69    1
    37   136   135    1
    38    35    36    1
    39    24    27    1
    40    24    23    1
    41    47    48   ar
    42    47    49   ar
    43   138   135    1
    44   138   139    1
    45    27    28    1
    46    78    80    1
    47   135   134    1
    48    75    76    2
    49    75    81   am
    50    71    70   ar
    51    48    50   ar
    52    52    49   ar
    53    52    54   ar
    54    69    70    1
    55    49    51   ar
    56    28    30   am
    57    28    29    2
    58   139   140   ar
    59   139   141   ar
    60    70    72   ar
    61   140   142   ar
    62    81    82    1
    63    54    55   ar
    64    50    51   ar
    65   141   144   ar
    66   141   143   ar
    67    51    53   ar
    68   144   146   ar
    69    83    82    1
    70    83    84    2
    71   142   143   ar
    72    82    85    1
    73    21    19    1
    74   143   145   ar
    75    55    53   ar
    76     7     5    1
    77   146   147   ar
    78    18    17    2
    79    19    20    1
    80    19    16    1
    81    22    20    1
    82   145   147   ar
    83    99    98   ar
    84    99    97   ar
    85    17    16    1
    86    98    96   ar
    87     8     6    1
    88     5     6    1
    89     5     2    1
    90    16    15    1
    91     4     3    2
    92    97    95   ar
    93    96    93   ar
    94     3     2    1
    95     3     9   am
    96     2     1    1
    97    10     9    1
    98    10    13    1
    99    10    11    1
   100    95    93   ar
   101    95    94   ar
   102    93    91   ar
   103    12    11    2
   104   133   132    1
   105    13    14    1
   106   118   116   ar
   107   118   120   ar
   108   116   115   ar
   109   122   123    1
   110   121   120    1
   111   132   131   ar
   112   132   130   ar
   113   120   119   ar
   114   115   114    1
   115   115   117   ar
   116   131   129   ar
   117   114   111    1
   118   130   128   ar
   119    94    92   ar
   120   119   117   ar
   121   123   124    1
   122   123   126    1
   123   113   112    2
   124   129   127   ar
   125    91    92   ar
   126    91    90    1
   127   128   127   ar
   128   127   126    1
   129   124   125    2
   130    90    87    1
   131   111   112    1
   132   111   110    1
   133   103   102    2
   134    87    88    1
   135    87    86    1
   136    88    89    2
   137   102   101    1
   138   104   101    1
   139   104   105    1
   140   107   105   ar
   141   107   109   ar
   142   101   100    1
   143   105   106   ar
   144   109   108   ar
   145   106   108   ar
