@<TRIPOS>MOLECULE
tmp/4muuB19.pdb
 126 123 0 0 0
SMALL
GASTEIGER

@<TRIPOS>ATOM
      1  N         35.0350    8.9190   13.2920 N.3    20  SER20      -0.1217
      2  CA        33.9610    7.9550   13.5160 C.3    20  SER20       0.1889
      3  C         34.3340    6.5220   13.0930 C.2    20  SER20       0.2288
      4  O         33.6390    5.5780   13.4680 O.2    20  SER20      -0.2866
      5  CB        32.6970    8.3790   12.7790 C.3    20  SER20       0.2089
      6  OG        32.8250    8.1210   11.3970 O.3    20  SER20      -0.2183
      7  N         34.2400    2.5390   19.0360 N.3    24  ASN24      -0.1225
      8  CA        33.7260    3.4380   20.0710 C.3    24  ASN24       0.1785
      9  C         32.5880    2.8570   20.9240 C.2    24  ASN24       0.2597
     10  O         31.9000    3.5810   21.6540 O.2    24  ASN24      -0.2718
     11  CB        33.2880    4.7060   19.4010 C.3    24  ASN24       0.1169
     12  CG        31.9740    4.5580   18.7250 C.2    24  ASN24       0.2627
     13  OD1       31.5080    3.4480   18.4760 O.2    24  ASN24      -0.2716
     14  ND2       31.3500    5.6770   18.4220 N.am   24  ASN24      -0.0877
     15  N         32.4500    1.5390   20.8540 N.am   25  THR25      -0.1953
     16  CA        31.3620    0.8110   21.5000 C.3    25  THR25       0.1897
     17  C         31.7540    0.3190   22.9010 C.2    25  THR25       0.2313
     18  O         32.7120   -0.4560   23.0600 O.2    25  THR25      -0.2863
     19  CB        30.9440   -0.4070   20.6200 C.3    25  THR25       0.1794
     20  OG1       30.4570    0.0650   19.3600 O.3    25  THR25      -0.2208
     21  CG2       29.8510   -1.2260   21.2950 C.3    25  THR25       0.0378
     22  N         26.8890   -2.8220   23.0660 N.3    28  GLY28      -0.1210
     23  CA        25.7720   -2.6710   22.1460 C.3    28  GLY28       0.1956
     24  C         25.7440   -1.2790   21.5270 C.2    28  GLY28       0.2611
     25  O         26.7650   -0.7730   21.0590 O.2    28  GLY28      -0.2717
     26  N         24.5980   -0.6130   21.5870 N.am   29  TRP29      -0.1976
     27  CA        24.5370    0.7960   21.1490 C.3    29  TRP29       0.1640
     28  C         24.8980    1.8290   22.2070 C.2    29  TRP29       0.2290
     29  O         24.6670    3.0290   22.0210 O.2    29  TRP29      -0.2864
     30  CB        23.1910    1.1010   20.5060 C.3    29  TRP29       0.0576
     31  CG        23.2320    0.8660   19.0220 C.ar   29  TRP29       0.0006
     32  CD1       22.7340   -0.1970   18.3590 C.ar   29  TRP29       0.0946
     33  CD2       23.8280    1.7230   18.0330 C.ar   29  TRP29       0.0152
     34  NE1       22.9560   -0.0660   17.0080 N.ar   29  TRP29      -0.2442
     35  CE2       23.6270    1.1090   16.7790 C.ar   29  TRP29       0.0810
     36  CE3       24.4830    2.9480   18.0870 C.ar   29  TRP29       0.0012
     37  CZ2       24.0740    1.6730   15.5870 C.ar   29  TRP29       0.0191
     38  CZ3       24.9270    3.5300   16.8920 C.ar   29  TRP29       0.0001
     39  CH2       24.7110    2.8900   15.6570 C.ar   29  TRP29       0.0015
     40  N         27.6850    3.8470   23.2440 N.3    31  ILE31      -0.1245
     41  CA        28.8930    4.2770   22.5450 C.3    31  ILE31       0.1561
     42  C         29.4950    5.5810   23.0970 C.2    31  ILE31       0.2260
     43  O         28.8750    6.2930   23.8600 O.2    31  ILE31      -0.2867
     44  CB        28.5900    4.4660   21.0300 C.3    31  ILE31       0.0252
     45  CG1       27.5870    5.6130   20.7990 C.3    31  ILE31       0.0019
     46  CG2       28.0710    3.1390   20.4290 C.3    31  ILE31       0.0019
     47  CD1       27.3750    5.9650   19.3100 C.3    31  ILE31       0.0001
     48  N         30.7610    8.8120   21.3940 N.3    33  GLU33      -0.1245
     49  CA        30.8050    9.3620   20.0400 C.3    33  GLU33       0.1567
     50  C         31.7110   10.5690   19.9320 C.2    33  GLU33       0.2260
     51  O         31.2620   11.7200   19.8250 O.2    33  GLU33      -0.2867
     52  CB        29.4090    9.6730   19.5160 C.3    33  GLU33       0.0388
     53  CG        29.3730    9.8000   17.9650 C.3    33  GLU33       0.1160
     54  CD        27.9630   10.1490   17.4410 C.2    33  GLU33       0.3649
     55  OE1       27.1620   10.7710   18.1880 O.co2  33  GLU33      -0.2457
     56  OE2       27.6740    9.8210   16.2890 O.co2  33  GLU33      -0.2457
     57  N         23.9780    3.3610   10.0100 N.3    69  TYR69      -0.1241
     58  CA        23.0750    2.2450   10.2680 C.3    69  TYR69       0.1605
     59  C         21.6550    2.7190   10.0060 C.2    69  TYR69       0.2264
     60  O         21.0760    3.4470   10.7970 O.2    69  TYR69      -0.2867
     61  CB        23.2390    1.7510   11.7120 C.3    69  TYR69       0.0534
     62  CG        24.6040    1.1720   11.9390 C.ar   69  TYR69      -0.0201
     63  CD1       24.8800   -0.1350   11.5810 C.ar   69  TYR69      -0.0009
     64  CD2       25.6320    1.9390   12.4750 C.ar   69  TYR69      -0.0009
     65  CE1       26.1300   -0.6730   11.7540 C.ar   69  TYR69       0.0417
     66  CE2       26.9040    1.3980   12.6540 C.ar   69  TYR69       0.0417
     67  CZ        27.1380    0.0990   12.2800 C.ar   69  TYR69       0.1957
     68  OH        28.3760   -0.4660   12.4470 O.3    69  TYR69      -0.2866
     69  N         17.6810    2.1110    9.0210 N.3    71  LEU71      -0.1245
     70  CA        16.5830    1.1780    9.1490 C.3    71  LEU71       0.1561
     71  C         15.4390    1.6350    8.2530 C.2    71  LEU71       0.2260
     72  O         14.6200    0.8400    7.8520 O.2    71  LEU71      -0.2867
     73  CB        16.1360    1.0620   10.6270 C.3    71  LEU71       0.0270
     74  CG        17.1620    0.5160   11.6200 C.3    71  LEU71       0.0019
     75  CD1       16.6150    0.5590   13.0690 C.3    71  LEU71       0.0001
     76  CD2       17.5760   -0.8960   11.2990 C.3    71  LEU71       0.0001
     77  N         20.9340   10.6630   11.0480 N.3    80  TYR80      -0.1241
     78  CA        22.0920   11.1250   10.3130 C.3    80  TYR80       0.1605
     79  C         21.8690   12.4440    9.5750 C.2    80  TYR80       0.2264
     80  O         22.7290   12.8690    8.7910 O.2    80  TYR80      -0.2867
     81  CB        22.5500   10.0240    9.3490 C.3    80  TYR80       0.0534
     82  CG        23.0650    8.8200   10.0730 C.ar   80  TYR80      -0.0201
     83  CD1       24.3960    8.7460   10.4850 C.ar   80  TYR80      -0.0009
     84  CD2       22.2250    7.7530   10.3670 C.ar   80  TYR80      -0.0009
     85  CE1       24.8780    7.6450   11.1350 C.ar   80  TYR80       0.0417
     86  CE2       22.6980    6.6360   11.0300 C.ar   80  TYR80       0.0417
     87  CZ        24.0240    6.5940   11.4190 C.ar   80  TYR80       0.1957
     88  OH        24.5000    5.4650   12.0340 O.3    80  TYR80      -0.2866
     89  N         14.1770    1.1230   17.3110 N.3   128  TRP128     -0.1241
     90  CA        15.1750    0.1960   17.8440 C.3   128  TRP128      0.1605
     91  C         14.6270   -0.6790   18.9840 C.2   128  TRP128      0.2264
     92  O         15.3860   -1.3590   19.6560 O.2   128  TRP128     -0.2867
     93  CB        16.4420    0.9710   18.2960 C.3   128  TRP128      0.0550
     94  CG        17.2180    1.6360   17.1390 C.ar  128  TRP128      0.0003
     95  CD1       17.0620    2.9050   16.6680 C.ar  128  TRP128      0.0946
     96  CD2       18.2390    1.0330   16.3170 C.ar  128  TRP128      0.0152
     97  NE1       17.9110    3.1340   15.5960 N.ar  128  TRP128     -0.2442
     98  CE2       18.6540    2.0060   15.3770 C.ar  128  TRP128      0.0810
     99  CE3       18.8450   -0.2300   16.2940 C.ar  128  TRP128      0.0012
    100  CZ2       19.6360    1.7630   14.4360 C.ar  128  TRP128      0.0191
    101  CZ3       19.8300   -0.4820   15.3310 C.ar  128  TRP128      0.0001
    102  CH2       20.2150    0.5060   14.4210 C.ar  128  TRP128      0.0015
    103  N         15.3850   -4.5050   20.0270 N.3   131  TYR131     -0.1241
    104  CA        16.5710   -4.9340   20.7610 C.3   131  TYR131      0.1605
    105  C         16.5280   -4.6680   22.2640 C.2   131  TYR131      0.2264
    106  O         17.5160   -4.8950   22.9620 O.2   131  TYR131     -0.2867
    107  CB        17.7860   -4.2550   20.1720 C.3   131  TYR131      0.0534
    108  CG        17.9210   -4.4690   18.6900 C.ar  131  TYR131     -0.0201
    109  CD1       18.2480   -5.7210   18.1850 C.ar  131  TYR131     -0.0009
    110  CD2       17.7260   -3.4230   17.7920 C.ar  131  TYR131     -0.0009
    111  CE1       18.3800   -5.9370   16.8300 C.ar  131  TYR131      0.0417
    112  CE2       17.8550   -3.6310   16.4270 C.ar  131  TYR131      0.0417
    113  CZ        18.1860   -4.8960   15.9590 C.ar  131  TYR131      0.1957
    114  OH        18.3240   -5.1350   14.6150 O.3   131  TYR131     -0.2866
    115  N         14.4230    1.3660   27.6590 N.3   141  TYR141     -0.1241
    116  CA        15.6060    0.8900   26.9470 C.3   141  TYR141      0.1605
    117  C         16.3050    2.0390   26.2080 C.2   141  TYR141      0.2264
    118  O         17.5310    2.1860   26.2730 O.2   141  TYR141     -0.2867
    119  CB        15.2040   -0.2010   25.9580 C.3   141  TYR141      0.0534
    120  CG        16.2890   -0.6470   25.0480 C.ar  141  TYR141     -0.0201
    121  CD1       17.4240   -1.2940   25.5390 C.ar  141  TYR141     -0.0009
    122  CD2       16.1740   -0.4620   23.6700 C.ar  141  TYR141     -0.0009
    123  CE1       18.4260   -1.7180   24.6690 C.ar  141  TYR141      0.0417
    124  CE2       17.1600   -0.8870   22.8100 C.ar  141  TYR141      0.0417
    125  CZ        18.2860   -1.5190   23.3150 C.ar  141  TYR141      0.1957
    126  OH        19.2760   -1.9130   22.4340 O.3   141  TYR141     -0.2866
@<TRIPOS>BOND
     1    72    71    2
     2    71    70    1
     3    80    79    2
     4    69    70    1
     5    70    73    1
     6    81    82    1
     7    81    78    1
     8    79    78    1
     9    59    58    1
    10    59    60    2
    11    57    58    1
    12    82    84   ar
    13    82    83   ar
    14    58    61    1
    15    78    77    1
    16    84    86   ar
    17    83    85   ar
    18    73    74    1
    19    86    87   ar
    20    85    87   ar
    21    76    74    1
    22     6     5    1
    23    87    88    1
    24    63    65   ar
    25    63    62   ar
    26    74    75    1
    27    61    62    1
    28    65    67   ar
    29    62    64   ar
    30    67    68    1
    31    67    66   ar
    32    64    66   ar
    33     5     2    1
    34     3     4    2
    35     3     2    1
    36     1     2    1
    37   102   100   ar
    38   102   101   ar
    39   100    98   ar
    40   114   113    1
    41   101    99   ar
    42    98    97   ar
    43    98    96   ar
    44    37    39   ar
    45    37    35   ar
    46    97    95   ar
    47    39    38   ar
    48   113   112   ar
    49   113   111   ar
    50    56    54   ar
    51    99    96   ar
    52    96    94   ar
    53   112   110   ar
    54    95    94   ar
    55    35    34   ar
    56    35    33   ar
    57   111   109   ar
    58    38    36   ar
    59    34    32   ar
    60    94    93    1
    61    89    90    1
    62    54    53    1
    63    54    55   ar
    64   110   108   ar
    65    90    93    1
    66    90    91    1
    67    53    52    1
    68    33    36   ar
    69    33    31   ar
    70   109   108   ar
    71    32    31   ar
    72    14    12   am
    73    13    12    2
    74   108   107    1
    75    12    11    1
    76    91    92    2
    77    31    30    1
    78     7     8    1
    79    47    45    1
    80    20    19    1
    81    11     8    1
    82    52    49    1
    83    51    50    2
    84    50    49    1
    85   103   104    1
    86    49    48    1
    87     8     9    1
    88   107   104    1
    89    46    44    1
    90    30    27    1
    91    19    21    1
    92    19    16    1
    93   104   105    1
    94    45    44    1
    95    15     9   am
    96    15    16    1
    97     9    10    2
    98    44    41    1
    99    25    24    2
   100    27    26    1
   101    27    28    1
   102    16    17    1
   103    24    26   am
   104    24    23    1
   105    29    28    2
   106    23    22    1
   107   105   106    2
   108   126   125    1
   109    41    42    1
   110    41    40    1
   111   124   125   ar
   112   124   122   ar
   113    17    18    2
   114    42    43    2
   115   125   123   ar
   116   122   120   ar
   117   123   121   ar
   118   120   121   ar
   119   120   119    1
   120   119   116    1
   121   117   118    2
   122   117   116    1
   123   116   115    1
