@<TRIPOS>MOLECULE
tmp/4muuB07.pdb
 83 77 0 0 0
SMALL
GASTEIGER

@<TRIPOS>ATOM
      1  N         34.5820   28.1370    4.4880 N.3     6  LEU6       -0.1231
      2  CA        34.1560   26.9530    3.7470 C.3     6  LEU6        0.1693
      3  C         35.1030   25.7800    3.9520 C.2     6  LEU6        0.2592
      4  O         34.6530   24.6440    4.1500 O.2     6  LEU6       -0.2718
      5  CB        34.0580   27.2830    2.2740 C.3     6  LEU6        0.0284
      6  CG        32.6910   27.7260    1.7510 C.3     6  LEU6        0.0019
      7  CD1       32.0010   28.7030    2.6750 C.3     6  LEU6        0.0001
      8  CD2       32.8730   28.3330    0.3660 C.3     6  LEU6        0.0001
      9  N         36.4020   26.0630    3.9500 N.am    7  THR7       -0.1953
     10  CA        37.4120   25.0310    4.1400 C.3     7  THR7        0.1897
     11  C         37.4210   24.5060    5.5740 C.2     7  THR7        0.2313
     12  O         37.7060   23.3220    5.7910 O.2     7  THR7       -0.2863
     13  CB        38.8360   25.5030    3.7520 C.3     7  THR7        0.1794
     14  OG1       39.1030   26.7840    4.3260 O.3     7  THR7       -0.2208
     15  CG2       38.9630   25.6320    2.2500 C.3     7  THR7        0.0378
     16  N         34.4000   22.2090    5.8610 N.3    10  ALA10      -0.1231
     17  CA        34.7350   20.9990    5.1320 C.3    10  ALA10       0.1694
     18  C         35.6700   20.0890    5.9180 C.2    10  ALA10       0.2592
     19  O         35.3710   18.9030    6.1030 O.2    10  ALA10      -0.2718
     20  CB        35.3510   21.3550    3.7540 C.3    10  ALA10       0.0304
     21  N         36.7830   20.6360    6.3970 N.am   11  PHE11      -0.1976
     22  CA        37.7720   19.8250    7.1180 C.3    11  PHE11       0.1639
     23  C         37.2720   19.2310    8.4130 C.2    11  PHE11       0.2290
     24  O         37.6780   18.1350    8.7920 O.2    11  PHE11      -0.2864
     25  CB        39.0650   20.6070    7.3640 C.3    11  PHE11       0.0560
     26  CG        40.0970   20.3720    6.2910 C.ar   11  PHE11      -0.0200
     27  CD1       40.9270   19.2570    6.3360 C.ar   11  PHE11      -0.0042
     28  CD2       40.1950   21.2290    5.2070 C.ar   11  PHE11      -0.0042
     29  CE1       41.8550   19.0270    5.3310 C.ar   11  PHE11      -0.0003
     30  CE2       41.1160   21.0010    4.2060 C.ar   11  PHE11      -0.0003
     31  CZ        41.9500   19.9050    4.2670 C.ar   11  PHE11      -0.0000
     32  N         34.9330   16.3630    7.3840 N.3    14  ALA14      -0.1245
     33  CA        35.7730   15.2460    6.9790 C.3    14  ALA14       0.1562
     34  C         36.4000   14.6060    8.2150 C.2    14  ALA14       0.2260
     35  O         36.3840   13.3950    8.3430 O.2    14  ALA14      -0.2867
     36  CB        36.8470   15.7010    5.9950 C.3    14  ALA14       0.0290
     37  N         25.9720   23.2820    9.3000 N.3    53  VAL53      -0.1245
     38  CA        26.3070   22.8390    7.9670 C.3    53  VAL53       0.1561
     39  C         27.3810   21.7850    8.1000 C.2    53  VAL53       0.2260
     40  O         27.3980   20.8330    7.3420 O.2    53  VAL53      -0.2867
     41  CB        26.8030   24.0090    7.0970 C.3    53  VAL53       0.0252
     42  CG1       27.3920   23.5100    5.7700 C.3    53  VAL53       0.0019
     43  CG2       25.6620   24.9860    6.8490 C.3    53  VAL53       0.0019
     44  N         25.6480   18.7100    8.9880 N.3    56  LEU56      -0.1231
     45  CA        24.9190   18.2240    7.8510 C.3    56  LEU56       0.1693
     46  C         25.8460   17.4160    6.9740 C.2    56  LEU56       0.2591
     47  O         25.4940   16.3260    6.5170 O.2    56  LEU56      -0.2718
     48  CB        24.3340   19.3910    7.0440 C.3    56  LEU56       0.0284
     49  CG        23.4770   18.9440    5.8500 C.3    56  LEU56       0.0019
     50  CD1       22.1770   18.3340    6.3460 C.3    56  LEU56       0.0001
     51  CD2       23.2180   20.0810    4.9300 C.3    56  LEU56       0.0001
     52  N         27.0250   17.9620    6.7170 N.am   57  ILE57      -0.1980
     53  CA        27.9740   17.3130    5.8160 C.3    57  ILE57       0.1595
     54  C         28.4550   15.9810    6.4120 C.2    57  ILE57       0.2287
     55  O         28.5710   14.9840    5.7090 O.2    57  ILE57      -0.2864
     56  CB        29.1590   18.2350    5.4850 C.3    57  ILE57       0.0276
     57  CG1       28.6610   19.4710    4.7220 C.3    57  ILE57       0.0022
     58  CG2       30.1880   17.5150    4.6320 C.3    57  ILE57       0.0022
     59  CD1       29.6090   20.6560    4.7600 C.3    57  ILE57       0.0001
     60  N         25.8270   13.3520    5.8950 N.3    60  ILE60      -0.1231
     61  CA        25.7700   12.8820    4.5250 C.3    60  ILE60       0.1692
     62  C         26.9660   11.9790    4.2460 C.2    60  ILE60       0.2591
     63  O         26.8090   10.9190    3.7060 O.2    60  ILE60      -0.2718
     64  CB        25.6800   14.0730    3.5420 C.3    60  ILE60       0.0266
     65  CG1       24.3140   14.7470    3.7110 C.3    60  ILE60       0.0019
     66  CG2       25.8770   13.6170    2.0840 C.3    60  ILE60       0.0020
     67  CD1       24.1960   16.0860    2.9920 C.3    60  ILE60       0.0001
     68  N         28.1550   12.3820    4.6750 N.am   61  LEU61      -0.1980
     69  CA        29.3380   11.5590    4.4830 C.3    61  LEU61       0.1596
     70  C         29.1360   10.1630    5.0490 C.2    61  LEU61       0.2287
     71  O         29.4490    9.1810    4.4000 O.2    61  LEU61      -0.2864
     72  CB        30.5220   12.1920    5.1750 C.3    61  LEU61       0.0297
     73  CG        31.7940   12.5190    4.4020 C.3    61  LEU61       0.0022
     74  CD1       31.5540   13.0670    2.9730 C.3    61  LEU61       0.0001
     75  CD2       32.5780   13.5160    5.2480 C.3    61  LEU61       0.0001
     76  N         26.7230    8.2000    2.7150 N.3    64  ILE64      -0.1245
     77  CA        27.1080    7.8350    1.3500 C.3    64  ILE64       0.1561
     78  C         28.3500    6.9540    1.3020 C.2    64  ILE64       0.2260
     79  O         28.6940    6.4430    0.2530 O.2    64  ILE64      -0.2867
     80  CB        27.2850    9.0500    0.3840 C.3    64  ILE64       0.0252
     81  CG1       28.3520   10.0170    0.9010 C.3    64  ILE64       0.0019
     82  CG2       25.9490    9.7440    0.1400 C.3    64  ILE64       0.0019
     83  CD1       28.5640   11.2400    0.0130 C.3    64  ILE64       0.0001
@<TRIPOS>BOND
     1    83    81    1
     2    82    80    1
     3    79    78    2
     4     8     6    1
     5    80    81    1
     6    80    77    1
     7    78    77    1
     8    77    76    1
     9     6     5    1
    10     6     7    1
    11    66    64    1
    12    15    13    1
    13     5     2    1
    14    74    73    1
    15    67    65    1
    16    64    65    1
    17    64    61    1
    18    63    62    2
    19     2     3    1
    20     2     1    1
    21    13    10    1
    22    13    14    1
    23    20    17    1
    24     9     3   am
    25     9    10    1
    26     3     4    2
    27    10    11    1
    28    30    31   ar
    29    30    28   ar
    30    62    61    1
    31    62    68   am
    32    31    29   ar
    33    71    70    2
    34    73    72    1
    35    73    75    1
    36    69    68    1
    37    69    70    1
    38    69    72    1
    39    61    60    1
    40    58    56    1
    41    57    59    1
    42    57    56    1
    43    51    49    1
    44    17    16    1
    45    17    18    1
    46    28    26   ar
    47    29    27   ar
    48    56    53    1
    49    11    12    2
    50    55    54    2
    51    42    41    1
    52    53    54    1
    53    53    52    1
    54    49    50    1
    55    49    48    1
    56    18    19    2
    57    18    21   am
    58    36    33    1
    59    26    27   ar
    60    26    25    1
    61    21    22    1
    62    47    46    2
    63    52    46   am
    64    43    41    1
    65    46    45    1
    66    33    32    1
    67    33    34    1
    68    48    45    1
    69    41    38    1
    70    22    25    1
    71    22    23    1
    72    40    39    2
    73    45    44    1
    74    38    39    1
    75    38    37    1
    76    34    35    2
    77    23    24    2
