@<TRIPOS>MOLECULE
tmp/4muuB03.pdb
 96 94 0 0 0
SMALL
GASTEIGER

@<TRIPOS>ATOM
      1  N         35.7110   35.6710    6.1720 N.3     1  PHE1       -0.1241
      2  CA        36.1440   35.4420    4.7950 C.3     1  PHE1        0.1605
      3  C         35.6760   34.0910    4.2630 C.2     1  PHE1        0.2264
      4  O         35.8370   33.0360    4.9200 O.2     1  PHE1       -0.2867
      5  CB        37.6550   35.5000    4.6940 C.3     1  PHE1        0.0534
      6  CG        38.1610   35.4050    3.2980 C.ar    1  PHE1       -0.0203
      7  CD1       38.3120   34.1780    2.6820 C.ar    1  PHE1       -0.0042
      8  CD2       38.5000   36.5550    2.5940 C.ar    1  PHE1       -0.0042
      9  CE1       38.7890   34.1080    1.3660 C.ar    1  PHE1       -0.0003
     10  CE2       38.9710   36.4870    1.2980 C.ar    1  PHE1       -0.0003
     11  CZ        39.1120   35.2620    0.6840 C.ar    1  PHE1       -0.0000
     12  N         38.0400   30.6210    3.5580 N.3     4  ARG4       -0.1245
     13  CA        38.5490   30.1430    4.8320 C.3     4  ARG4        0.1563
     14  C         37.4570   29.3970    5.6190 C.2     4  ARG4        0.2260
     15  O         37.6580   28.2570    6.0470 O.2     4  ARG4       -0.2867
     16  CB        39.1030   31.3090    5.6410 C.3     4  ARG4        0.0307
     17  CG        40.5730   31.6790    5.3130 C.3     4  ARG4        0.0489
     18  CD        40.7270   32.4860    4.0220 C.3     4  ARG4        0.2205
     19  NE        42.1310   32.6490    3.6270 N.pl3   4  ARG4       -0.0865
     20  CZ        43.0020   33.4330    4.2590 C.cat   4  ARG4        0.5346
     21  NH1       42.6290   34.1320    5.3240 N.pl3   4  ARG4        0.1354
     22  NH2       44.2530   33.5170    3.8290 N.pl3   4  ARG4        0.1354
     23  N         36.4020   26.0630    3.9500 N.3     7  THR7       -0.1203
     24  CA        37.4120   25.0310    4.1400 C.3     7  THR7        0.1994
     25  C         37.4210   24.5060    5.5740 C.2     7  THR7        0.2617
     26  O         37.7060   23.3220    5.7910 O.2     7  THR7       -0.2717
     27  CB        38.8360   25.5030    3.7520 C.3     7  THR7        0.1784
     28  OG1       39.1030   26.7840    4.3260 O.3     7  THR7       -0.2211
     29  CG2       38.9630   25.6320    2.2500 C.3     7  THR7        0.0376
     30  N         37.1180   25.3760    6.5420 N.am    8  GLU8       -0.1979
     31  CA        37.0260   24.9560    7.9350 C.3     8  GLU8        0.1602
     32  C         35.8310   24.0230    8.1220 C.2     8  GLU8        0.2287
     33  O         35.9350   22.9850    8.7570 O.2     8  GLU8       -0.2864
     34  CB        36.9400   26.1670    8.8910 C.3     8  GLU8        0.0415
     35  CG        38.2960   26.7780    9.2270 C.3     8  GLU8        0.1163
     36  CD        38.2380   27.9880   10.1500 C.2     8  GLU8        0.3649
     37  OE1       37.2510   28.1770   10.8830 O.co2   8  GLU8       -0.2457
     38  OE2       39.2160   28.7660   10.1490 O.co2   8  GLU8       -0.2457
     39  N         33.6510   27.8360   17.3920 N.3    45  ARG45      -0.1231
     40  CA        34.5630   28.7650   16.7130 C.3    45  ARG45       0.1694
     41  C         33.8480   29.6880   15.7220 C.2    45  ARG45       0.2591
     42  O         34.1330   30.8770   15.6830 O.2    45  ARG45      -0.2718
     43  CB        35.6490   27.9600   15.9900 C.3    45  ARG45       0.0321
     44  CG        36.6840   28.7630   15.1970 C.3    45  ARG45       0.0489
     45  CD        37.6620   27.7990   14.5070 C.3    45  ARG45       0.2205
     46  NE        38.4580   28.4510   13.4860 N.pl3  45  ARG45      -0.0865
     47  CZ        39.4830   29.2620   13.7190 C.cat  45  ARG45       0.5346
     48  NH1       39.8630   29.5430   14.9610 N.pl3  45  ARG45       0.1354
     49  NH2       40.1280   29.8040   12.6980 N.pl3  45  ARG45       0.1354
     50  N         32.9000   29.1660   14.9450 N.am   46  ARG46      -0.1980
     51  CA        32.3470   29.9490   13.8180 C.3    46  ARG46       0.1597
     52  C         30.8570   30.2320   13.9370 C.2    46  ARG46       0.2287
     53  O         30.2840   30.9710   13.1460 O.2    46  ARG46      -0.2864
     54  CB        32.6430   29.2280   12.5090 C.3    46  ARG46       0.0334
     55  CG        34.1130   29.1320   12.2350 C.3    46  ARG46       0.0492
     56  CD        34.6560   30.5110   11.8810 C.3    46  ARG46       0.2205
     57  NE        35.7900   30.4210   10.9790 N.pl3  46  ARG46      -0.0865
     58  CZ        36.1000   31.3370   10.0650 C.cat  46  ARG46       0.5346
     59  NH1       35.3580   32.4350    9.9010 N.pl3  46  ARG46       0.1354
     60  NH2       37.1540   31.1280    9.3090 N.pl3  46  ARG46       0.1354
     61  N         37.9440   33.0600   16.4210 N.3   174  HIS174     -0.1226
     62  CA        38.3040   33.3850   15.0550 C.3   174  HIS174      0.1752
     63  C         38.6470   34.8580   14.9490 C.2   174  HIS174      0.2597
     64  O         37.9190   35.7010   15.4710 O.2   174  HIS174     -0.2718
     65  CB        37.1480   33.0930   14.1100 C.3   174  HIS174      0.0759
     66  CG        37.2740   33.7820   12.7900 C.ar  174  HIS174      0.0818
     67  ND1       38.2730   33.4880   11.8900 N.ar  174  HIS174     -0.2268
     68  CD2       36.5350   34.7660   12.2220 C.ar  174  HIS174      0.1154
     69  CE1       38.1400   34.2520   10.8200 C.ar  174  HIS174      0.1986
     70  NE2       37.0940   35.0380   10.9990 N.ar  174  HIS174     -0.2212
     71  N         39.7510   35.1550   14.2770 N.am  175  SER175     -0.1938
     72  CA        40.0520   36.5230   13.8710 C.3   175  SER175      0.2055
     73  C         40.4210   36.5620   12.4060 C.2   175  SER175      0.2643
     74  O         40.9760   35.6030   11.8700 O.2   175  SER175     -0.2714
     75  CB        41.2090   37.1060   14.6700 C.3   175  SER175      0.2130
     76  OG        41.6510   38.3290   14.0790 O.3   175  SER175     -0.2179
     77  N         40.1310   37.6900   11.7710 N.am  176  ASN176     -0.1957
     78  CA        40.3600   37.8390   10.3450 C.3   176  ASN176      0.1819
     79  C         41.8070   38.1620   10.0730 C.2   176  ASN176      0.2621
     80  O         42.3320   37.8770    8.9960 O.2   176  ASN176     -0.2715
     81  CB        39.4730   38.9440    9.7950 C.3   176  ASN176      0.1195
     82  CG        38.0220   38.7280   10.1260 C.2   176  ASN176      0.2630
     83  OD1       37.4750   37.6520    9.8810 O.2   176  ASN176     -0.2716
     84  ND2       37.3910   39.7440   10.7050 N.am  176  ASN176     -0.0877
     85  N         42.4490   38.7620   11.0620 N.am  177  TYR177     -0.1974
     86  CA        43.8450   39.1300   10.9340 C.3   177  TYR177      0.1639
     87  C         44.6730   37.8770   11.1960 C.2   177  TYR177      0.2290
     88  O         44.3820   37.1190   12.1220 O.2   177  TYR177     -0.2864
     89  CB        44.1710   40.2810   11.9030 C.3   177  TYR177      0.0560
     90  CG        43.0990   41.3710   11.8920 C.ar  177  TYR177     -0.0198
     91  CD1       43.0040   42.2760   10.8340 C.ar  177  TYR177     -0.0009
     92  CD2       42.1630   41.4700   12.9150 C.ar  177  TYR177     -0.0009
     93  CE1       42.0210   43.2590   10.8110 C.ar  177  TYR177      0.0417
     94  CE2       41.1770   42.4490   12.8990 C.ar  177  TYR177      0.0417
     95  CZ        41.1100   43.3420   11.8490 C.ar  177  TYR177      0.1957
     96  OH        40.1250   44.3100   11.8310 O.3   177  TYR177     -0.2866
@<TRIPOS>BOND
     1    11    10   ar
     2    11     9   ar
     3    10     8   ar
     4     9     7   ar
     5    29    27    1
     6     8     6   ar
     7     7     6   ar
     8     6     5    1
     9    12    13    1
    10    19    18    1
    11    19    20    2
    12    27    24    1
    13    27    28    1
    14    22    20    1
    15    23    24    1
    16    18    17    1
    17    24    25    1
    18    20    21    1
    19     3     2    1
    20     3     4    2
    21     5     2    1
    22     2     1    1
    23    13    14    1
    24    13    16    1
    25    17    16    1
    26    25    26    2
    27    25    30   am
    28    14    15    2
    29    30    31    1
    30    31    32    1
    31    31    34    1
    32    32    33    2
    33    34    35    1
    34    80    79    2
    35    35    36    1
    36    60    58    1
    37    81    82    1
    38    81    78    1
    39    83    82    2
    40    59    58    1
    41    58    57    2
    42    79    78    1
    43    79    85   am
    44    82    84   am
    45    38    36   ar
    46    36    37   ar
    47    78    77    1
    48    93    91   ar
    49    93    95   ar
    50    69    70   ar
    51    69    67   ar
    52    91    90   ar
    53    86    85    1
    54    86    87    1
    55    86    89    1
    56    57    56    1
    57    70    68   ar
    58    87    88    2
    59    77    73   am
    60    96    95    1
    61    95    94   ar
    62    74    73    2
    63    56    55    1
    64    67    66   ar
    65    90    89    1
    66    90    92   ar
    67    68    66   ar
    68    55    54    1
    69    73    72    1
    70    54    51    1
    71    49    47    1
    72    66    65    1
    73    94    92   ar
    74    53    52    2
    75    46    47    2
    76    46    45    1
    77    47    48    1
    78    51    52    1
    79    51    50    1
    80    72    71    1
    81    72    75    1
    82    76    75    1
    83    65    62    1
    84    71    63   am
    85    45    44    1
    86    50    41   am
    87    63    62    1
    88    63    64    2
    89    62    61    1
    90    44    43    1
    91    42    41    2
    92    41    40    1
    93    43    40    1
    94    40    39    1
