@<TRIPOS>MOLECULE
tmp/4muuB05.pdb
 77 70 0 0 0
SMALL
GASTEIGER

@<TRIPOS>ATOM
      1  N         36.3130   30.0440    5.8040 N.3     5  LEU5       -0.1231
      2  CA        35.1760   29.4340    6.4680 C.3     5  LEU5        0.1693
      3  C         34.7500   28.1150    5.7960 C.2     5  LEU5        0.2591
      4  O         34.5810   27.1090    6.4490 O.2     5  LEU5       -0.2718
      5  CB        33.9990   30.4120    6.4880 C.3     5  LEU5        0.0284
      6  CG        32.7460   29.9090    7.2190 C.3     5  LEU5        0.0019
      7  CD1       33.0150   29.4740    8.6630 C.3     5  LEU5        0.0001
      8  CD2       31.6940   30.9710    7.1750 C.3     5  LEU5        0.0001
      9  N         34.5820   28.1370    4.4880 N.am    6  LEU6       -0.1980
     10  CA        34.1560   26.9530    3.7470 C.3     6  LEU6        0.1596
     11  C         35.1030   25.7800    3.9520 C.2     6  LEU6        0.2287
     12  O         34.6530   24.6440    4.1500 O.2     6  LEU6       -0.2864
     13  CB        34.0580   27.2830    2.2740 C.3     6  LEU6        0.0297
     14  CG        32.6910   27.7260    1.7510 C.3     6  LEU6        0.0022
     15  CD1       32.0010   28.7030    2.6750 C.3     6  LEU6        0.0001
     16  CD2       32.8730   28.3330    0.3660 C.3     6  LEU6        0.0001
     17  N         34.6960   24.3950    7.5630 N.3     9  ILE9       -0.1245
     18  CA        33.5250   23.5640    7.6750 C.3     9  ILE9        0.1561
     19  C         33.8480   22.2000    7.0700 C.2     9  ILE9        0.2260
     20  O         33.6590   21.1830    7.7080 O.2     9  ILE9       -0.2867
     21  CB        32.3270   24.2230    6.9920 C.3     9  ILE9        0.0252
     22  CG1       31.9390   25.5040    7.7350 C.3     9  ILE9        0.0019
     23  CG2       31.1200   23.2920    6.9460 C.3     9  ILE9        0.0019
     24  CD1       31.0450   26.3890    6.8890 C.3     9  ILE9        0.0001
     25  N         32.9000   29.1660   14.9450 N.3    46  ARG46      -0.1231
     26  CA        32.3470   29.9490   13.8180 C.3    46  ARG46       0.1694
     27  C         30.8570   30.2320   13.9370 C.2    46  ARG46       0.2592
     28  O         30.2840   30.9710   13.1460 O.2    46  ARG46      -0.2718
     29  CB        32.6430   29.2280   12.5090 C.3    46  ARG46       0.0321
     30  CG        34.1130   29.1320   12.2350 C.3    46  ARG46       0.0489
     31  CD        34.6560   30.5110   11.8810 C.3    46  ARG46       0.2205
     32  NE        35.7900   30.4210   10.9790 N.pl3  46  ARG46      -0.0865
     33  CZ        36.1000   31.3370   10.0650 C.cat  46  ARG46       0.5346
     34  NH1       35.3580   32.4350    9.9010 N.pl3  46  ARG46       0.1354
     35  NH2       37.1540   31.1280    9.3090 N.pl3  46  ARG46       0.1354
     36  N         30.2150   29.6170   14.9250 N.am   47  GLY47      -0.1957
     37  CA        28.8400   29.9490   15.2180 C.3    47  GLY47       0.1869
     38  C         27.8510   28.9670   14.6630 C.2    47  GLY47       0.2309
     39  O         28.2220   27.9360   14.0500 O.2    47  GLY47      -0.2863
     40  N         25.3200   28.6720   12.2850 N.3    49  THR49      -0.1203
     41  CA        25.1140   28.2980   10.9070 C.3    49  THR49       0.1994
     42  C         26.2470   27.3950   10.4360 C.2    49  THR49       0.2617
     43  O         26.0020   26.3440    9.8580 O.2    49  THR49      -0.2717
     44  CB        25.0300   29.5580   10.0210 C.3    49  THR49       0.1784
     45  OG1       24.0530   30.4570   10.5740 O.3    49  THR49      -0.2211
     46  CG2       24.6510   29.1980    8.6010 C.3    49  THR49       0.0376
     47  N         27.4920   27.8050   10.6690 N.am   50  ALA50      -0.1979
     48  CA        28.6300   26.9830   10.2940 C.3    50  ALA50       0.1597
     49  C         28.5600   25.5830   10.9100 C.2    50  ALA50       0.2287
     50  O         28.8940   24.5930   10.2660 O.2    50  ALA50      -0.2864
     51  CB        29.9160   27.6430   10.6940 C.3    50  ALA50       0.0319
     52  N         25.9720   23.2820    9.3000 N.3    53  VAL53      -0.1245
     53  CA        26.3070   22.8390    7.9670 C.3    53  VAL53       0.1561
     54  C         27.3810   21.7850    8.1000 C.2    53  VAL53       0.2260
     55  O         27.3980   20.8330    7.3420 O.2    53  VAL53      -0.2867
     56  CB        26.8030   24.0090    7.0970 C.3    53  VAL53       0.0252
     57  CG1       27.3920   23.5100    5.7700 C.3    53  VAL53       0.0019
     58  CG2       25.6620   24.9860    6.8490 C.3    53  VAL53       0.0019
     59  N         27.0250   17.9620    6.7170 N.3    57  ILE57      -0.1245
     60  CA        27.9740   17.3130    5.8160 C.3    57  ILE57       0.1561
     61  C         28.4550   15.9810    6.4120 C.2    57  ILE57       0.2260
     62  O         28.5710   14.9840    5.7090 O.2    57  ILE57      -0.2867
     63  CB        29.1590   18.2350    5.4850 C.3    57  ILE57       0.0252
     64  CG1       28.6610   19.4710    4.7220 C.3    57  ILE57       0.0019
     65  CG2       30.1880   17.5150    4.6320 C.3    57  ILE57       0.0019
     66  CD1       29.6090   20.6560    4.7600 C.3    57  ILE57       0.0001
     67  N         29.3110   30.5830   20.9960 N.3    94  ARG94      -0.1245
     68  CA        30.5300   31.0970   20.4180 C.3    94  ARG94       0.1563
     69  C         30.9910   32.3540   21.1770 C.2    94  ARG94       0.2260
     70  O         30.2080   33.2640   21.4150 O.2    94  ARG94      -0.2867
     71  CB        30.3330   31.4680   18.9420 C.3    94  ARG94       0.0307
     72  CG        31.4400   32.3910   18.4370 C.3    94  ARG94       0.0489
     73  CD        31.3720   32.7170   16.9720 C.3    94  ARG94       0.2205
     74  NE        30.0160   32.9430   16.5080 N.pl3  94  ARG94      -0.0865
     75  CZ        29.7200   33.4790   15.3310 C.cat  94  ARG94       0.5346
     76  NH1       30.7000   33.8650   14.5190 N.pl3  94  ARG94       0.1354
     77  NH2       28.4510   33.6470   14.9830 N.pl3  94  ARG94       0.1354
@<TRIPOS>BOND
     1    16    14    1
     2    14    13    1
     3    14    15    1
     4    13    10    1
     5    10    11    1
     6    10     9    1
     7    11    12    2
     8     9     3   am
     9    65    63    1
    10    64    66    1
    11    64    63    1
    12    63    60    1
    13    62    61    2
    14    57    56    1
    15     3     4    2
    16     3     2    1
    17     1     2    1
    18    60    61    1
    19    60    59    1
    20     2     5    1
    21     5     6    1
    22    58    56    1
    23    24    22    1
    24    23    21    1
    25    21    18    1
    26    21    22    1
    27    19    18    1
    28    19    20    2
    29    56    53    1
    30     8     6    1
    31     6     7    1
    32    55    54    2
    33    17    18    1
    34    53    54    1
    35    53    52    1
    36    46    44    1
    37    35    33    1
    38    43    42    2
    39    34    33    1
    40    44    45    1
    41    44    41    1
    42    33    32    2
    43    50    49    2
    44    48    47    1
    45    48    51    1
    46    48    49    1
    47    42    47   am
    48    42    41    1
    49    41    40    1
    50    32    31    1
    51    31    30    1
    52    30    29    1
    53    29    26    1
    54    28    27    2
    55    26    27    1
    56    26    25    1
    57    27    36   am
    58    39    38    2
    59    76    75    1
    60    38    37    1
    61    36    37    1
    62    77    75    1
    63    75    74    2
    64    74    73    1
    65    73    72    1
    66    72    71    1
    67    71    68    1
    68    68    67    1
    69    68    69    1
    70    69    70    2
