@<TRIPOS>MOLECULE
tmp/4muuA04.pdb
 101 94 0 0 0
SMALL
GASTEIGER

@<TRIPOS>ATOM
      1  N         30.5190    3.2240   56.7760 N.3    12  PHE12      -0.1227
      2  CA        31.6670    3.9390   56.2300 C.3    12  PHE12       0.1736
      3  C         31.2350    4.7620   55.0280 C.2    12  PHE12       0.2595
      4  O         31.6770    5.8920   54.8740 O.2    12  PHE12      -0.2718
      5  CB        32.7570    2.9530   55.8030 C.3    12  PHE12       0.0547
      6  CG        34.1130    3.5840   55.5470 C.ar   12  PHE12      -0.0202
      7  CD1       34.3270    4.4250   54.4680 C.ar   12  PHE12      -0.0042
      8  CD2       35.1850    3.2960   56.3710 C.ar   12  PHE12      -0.0042
      9  CE1       35.5710    4.9830   54.2260 C.ar   12  PHE12      -0.0003
     10  CE2       36.4340    3.8510   56.1290 C.ar   12  PHE12      -0.0003
     11  CZ        36.6230    4.6910   55.0530 C.ar   12  PHE12      -0.0000
     12  N         30.3840    4.1920   54.1760 N.am   13  MET13      -0.1979
     13  CA        30.0200    4.8740   52.9400 C.3    13  MET13       0.1605
     14  C         29.0060    5.9720   53.1690 C.2    13  MET13       0.2287
     15  O         29.0210    6.9760   52.4670 O.2    13  MET13      -0.2864
     16  CB        29.5030    3.8860   51.9070 C.3    13  MET13       0.0413
     17  CG        30.5990    2.9530   51.3740 C.3    13  MET13       0.0598
     18  SD        31.9120    3.7920   50.4940 S.3    13  MET13      -0.1393
     19  CE        33.3000    3.3820   51.4960 C.3    13  MET13       0.0692
     20  N         31.0180    8.7630   54.5050 N.3    16  LEU16      -0.1245
     21  CA        31.7840    9.3230   53.3990 C.3    16  LEU16       0.1561
     22  C         30.9360   10.2320   52.5360 C.2    16  LEU16       0.2260
     23  O         31.3580   11.3270   52.1780 O.2    16  LEU16      -0.2867
     24  CB        32.3820    8.2250   52.5290 C.3    16  LEU16       0.0270
     25  CG        33.3730    8.6770   51.4510 C.3    16  LEU16       0.0019
     26  CD1       34.4370    9.6490   51.9930 C.3    16  LEU16       0.0001
     27  CD2       34.0560    7.4660   50.8180 C.3    16  LEU16       0.0001
     28  N         31.6160   14.1310   52.0210 N.3    20  ILE20      -0.1245
     29  CA        31.7490   14.7120   50.6790 C.3    20  ILE20       0.1561
     30  C         30.6770   15.7600   50.4270 C.2    20  ILE20       0.2260
     31  O         30.9380   16.7380   49.7380 O.2    20  ILE20      -0.2867
     32  CB        31.7500   13.6330   49.6000 C.3    20  ILE20       0.0252
     33  CG1       33.0410   12.8210   49.7030 C.3    20  ILE20       0.0019
     34  CG2       31.6120   14.2530   48.2000 C.3    20  ILE20       0.0019
     35  CD1       32.9800   11.4960   49.0200 C.3    20  ILE20       0.0001
     36  N         31.4300   19.4190   50.7220 N.3    23  ILE23      -0.1245
     37  CA        32.1490   20.1520   49.6880 C.3    23  ILE23       0.1561
     38  C         31.1520   21.0290   48.9210 C.2    23  ILE23       0.2260
     39  O         30.0860   20.5440   48.5500 O.2    23  ILE23      -0.2867
     40  CB        32.8510   19.1830   48.7250 C.3    23  ILE23       0.0252
     41  CG1       33.9190   18.3880   49.4830 C.3    23  ILE23       0.0019
     42  CG2       33.4920   19.9360   47.5700 C.3    23  ILE23       0.0019
     43  CD1       34.4280   17.1590   48.7410 C.3    23  ILE23       0.0001
     44  N         28.2020   15.0640   43.9900 N.3    35  ILE35      -0.1245
     45  CA        29.2510   14.1040   44.0910 C.3    35  ILE35       0.1561
     46  C         29.0860   13.1980   45.3000 C.2    35  ILE35       0.2260
     47  O         29.6560   12.0930   45.3460 O.2    35  ILE35      -0.2867
     48  CB        30.6480   14.7860   44.1030 C.3    35  ILE35       0.0252
     49  CG1       30.7110   15.9770   45.0560 C.3    35  ILE35       0.0019
     50  CG2       31.0000   15.2620   42.7170 C.3    35  ILE35       0.0019
     51  CD1       32.1660   16.4770   45.3050 C.3    35  ILE35       0.0001
     52  N         28.0880    9.4670   45.2710 N.3    38  ILE38      -0.1231
     53  CA        28.9950    8.4360   44.7720 C.3    38  ILE38       0.1678
     54  C         29.3260    7.2990   45.7700 C.2    38  ILE38       0.2434
     55  O         29.3250    6.1540   45.3850 O.2    38  ILE38      -0.2733
     56  CB        30.2660    9.0360   44.1770 C.3    38  ILE38       0.0265
     57  CG1       29.8720    9.9610   43.0070 C.3    38  ILE38       0.0019
     58  CG2       31.1920    7.9100   43.6400 C.3    38  ILE38       0.0020
     59  CD1       31.0450   10.8210   42.4820 C.3    38  ILE38       0.0001
     60  N         29.6300    7.6190   47.0330 N.am   39  PRO39      -0.2729
     61  CA        29.8520    6.5640   48.0290 C.3    39  PRO39       0.1401
     62  C         28.6640    5.6120   48.1530 C.2    39  PRO39       0.2269
     63  O         28.8470    4.4210   48.3220 O.2    39  PRO39      -0.2865
     64  CB        30.0270    7.3600   49.3230 C.3    39  PRO39       0.0296
     65  CG        30.6620    8.6210   48.8740 C.3    39  PRO39       0.0237
     66  CD        30.0710    8.9320   47.5330 C.3    39  PRO39       0.0939
     67  N         28.5470    3.3980   45.0660 N.3    42  LEU42      -0.1245
     68  CA        29.5620    2.3770   45.1350 C.3    42  LEU42       0.1561
     69  C         29.1070    1.2990   46.0970 C.2    42  LEU42       0.2260
     70  O         29.2900    0.1100   45.8270 O.2    42  LEU42      -0.2867
     71  CB        30.8680    2.9800   45.5920 C.3    42  LEU42       0.0270
     72  CG        32.0580    2.0390   45.6850 C.3    42  LEU42       0.0019
     73  CD1       32.2440    1.2360   44.3770 C.3    42  LEU42       0.0001
     74  CD2       33.3090    2.8660   46.0080 C.3    42  LEU42       0.0001
     75  N         34.1450    9.2580   38.0490 N.3   161  ILE161     -0.1245
     76  CA        34.8430    8.6830   39.1520 C.3   161  ILE161      0.1561
     77  C         34.7190    7.1630   39.0810 C.2   161  ILE161      0.2260
     78  O         35.6990    6.4130   39.2790 O.2   161  ILE161     -0.2867
     79  CB        34.2930    9.2080   40.4730 C.3   161  ILE161      0.0252
     80  CG1       34.6150   10.6990   40.6220 C.3   161  ILE161      0.0019
     81  CG2       34.8280    8.4120   41.6380 C.3   161  ILE161      0.0019
     82  CD1       36.0400   11.0290   40.8510 C.3   161  ILE161      0.0001
     83  N         37.4390    4.0700   38.7670 N.3   165  PHE165     -0.1241
     84  CA        37.5170    2.9680   39.7260 C.3   165  PHE165      0.1605
     85  C         37.4480    1.6200   39.0010 C.2   165  PHE165      0.2264
     86  O         38.1690    0.6810   39.3550 O.2   165  PHE165     -0.2867
     87  CB        36.4020    3.0550   40.7570 C.3   165  PHE165      0.0534
     88  CG        36.5740    4.1480   41.7540 C.ar  165  PHE165     -0.0203
     89  CD1       37.6810    4.9900   41.7250 C.ar  165  PHE165     -0.0042
     90  CD2       35.6180    4.3510   42.7250 C.ar  165  PHE165     -0.0042
     91  CE1       37.8370    5.9960   42.6650 C.ar  165  PHE165     -0.0003
     92  CE2       35.7650    5.3640   43.6690 C.ar  165  PHE165     -0.0003
     93  CZ        36.8730    6.1860   43.6360 C.ar  165  PHE165     -0.0000
     94  N         36.7780   -3.0940   43.8880 N.3   172  LEU172     -0.1245
     95  CA        35.8750   -2.2940   44.7220 C.3   172  LEU172      0.1561
     96  C         34.4350   -2.7240   44.4770 C.2   172  LEU172      0.2260
     97  O         33.5870   -2.6550   45.3600 O.2   172  LEU172     -0.2867
     98  CB        36.0370   -0.7950   44.4210 C.3   172  LEU172      0.0270
     99  CG        37.1710   -0.0470   45.1230 C.3   172  LEU172      0.0019
    100  CD1       37.3000    1.3860   44.6370 C.3   172  LEU172      0.0001
    101  CD2       36.9730   -0.0650   46.6460 C.3   172  LEU172      0.0001
@<TRIPOS>BOND
     1    75    76    1
     2    83    84    1
     3    85    86    2
     4    85    84    1
     5    77    76    1
     6    77    78    2
     7    76    79    1
     8    84    87    1
     9    79    80    1
    10    79    81    1
    11    80    82    1
    12    87    88    1
    13    89    88   ar
    14    89    91   ar
    15    88    90   ar
    16    59    57    1
    17    91    93   ar
    18    50    48    1
    19    90    92   ar
    20    57    56    1
    21    93    92   ar
    22    58    56    1
    23    94    95    1
    24    44    45    1
    25    45    48    1
    26    45    46    1
    27    48    49    1
    28    56    53    1
    29    73    72    1
    30    98    95    1
    31    98    99    1
    32    96    95    1
    33    96    97    2
    34   100    99    1
    35    53    52    1
    36    53    54    1
    37    49    51    1
    38    67    68    1
    39    99   101    1
    40    68    71    1
    41    68    69    1
    42    46    47    2
    43    55    54    2
    44    71    72    1
    45    72    74    1
    46    54    60   am
    47    70    69    2
    48    60    66    1
    49    60    61    1
    50    66    65    1
    51    42    40    1
    52    61    62    1
    53    61    64    1
    54    62    63    2
    55    34    32    1
    56    39    38    2
    57    40    41    1
    58    40    37    1
    59    43    41    1
    60    65    64    1
    61    38    37    1
    62    35    33    1
    63    32    33    1
    64    32    29    1
    65    37    36    1
    66    31    30    2
    67    30    29    1
    68    18    17    1
    69    18    19    1
    70    29    28    1
    71    27    25    1
    72    17    16    1
    73    25    26    1
    74    25    24    1
    75    16    13    1
    76    23    22    2
    77    15    14    2
    78    24    21    1
    79    22    21    1
    80    13    14    1
    81    13    12    1
    82    21    20    1
    83    12     3   am
    84     9     7   ar
    85     9    11   ar
    86     7     6   ar
    87     4     3    2
    88     3     2    1
    89    11    10   ar
    90     6     5    1
    91     6     8   ar
    92     5     2    1
    93    10     8   ar
    94     2     1    1
