@<TRIPOS>MOLECULE
tmp/4muuB15.pdb
 85 82 0 0 0
SMALL
GASTEIGER

@<TRIPOS>ATOM
      1  N         27.6250   20.7440   26.3950 N.3   110  PHE110     -0.1241
      2  CA        26.6040   20.0680   27.1810 C.3   110  PHE110      0.1605
      3  C         25.2740   20.0470   26.4580 C.2   110  PHE110      0.2264
      4  O         24.6400   18.9870   26.3330 O.2   110  PHE110     -0.2867
      5  CB        26.4960   20.7640   28.5490 C.3   110  PHE110      0.0534
      6  CG        25.4320   20.2070   29.4510 C.ar  110  PHE110     -0.0203
      7  CD1       25.7060   19.1470   30.3210 C.ar  110  PHE110     -0.0042
      8  CD2       24.1550   20.7640   29.4730 C.ar  110  PHE110     -0.0042
      9  CE1       24.7130   18.6460   31.1740 C.ar  110  PHE110     -0.0003
     10  CE2       23.1730   20.2780   30.3300 C.ar  110  PHE110     -0.0003
     11  CZ        23.4470   19.2050   31.1750 C.ar  110  PHE110     -0.0000
     12  N         23.6880   16.6880   24.3300 N.3   114  LEU114     -0.1245
     13  CA        22.3690   16.3830   24.9030 C.3   114  LEU114      0.1561
     14  C         21.2730   16.4340   23.8700 C.2   114  LEU114      0.2260
     15  O         20.3940   15.5660   23.8260 O.2   114  LEU114     -0.2867
     16  CB        22.0210   17.3960   26.0070 C.3   114  LEU114      0.0270
     17  CG        20.5650   17.4730   26.4990 C.3   114  LEU114      0.0019
     18  CD1       20.3030   16.5090   27.6580 C.3   114  LEU114      0.0001
     19  CD2       20.1900   18.9020   26.8610 C.3   114  LEU114      0.0001
     20  N         21.7550   13.5280   21.4820 N.3   117  TYR117     -0.1227
     21  CA        21.2930   12.3090   22.0560 C.3   117  TYR117      0.1736
     22  C         19.8080   12.3160   22.4270 C.2   117  TYR117      0.2595
     23  O         19.2010   11.2580   22.5960 O.2   117  TYR117     -0.2718
     24  CB        22.2770   11.8410   23.1260 C.3   117  TYR117      0.0548
     25  CG        23.3890   11.1560   22.3880 C.ar  117  TYR117     -0.0200
     26  CD1       24.3590   11.8930   21.7020 C.ar  117  TYR117     -0.0009
     27  CD2       23.3850    9.7580   22.2430 C.ar  117  TYR117     -0.0009
     28  CE1       25.3260   11.2610   20.9690 C.ar  117  TYR117      0.0417
     29  CE2       24.3320    9.1180   21.5200 C.ar  117  TYR117      0.0417
     30  CZ        25.2980    9.8670   20.8740 C.ar  117  TYR117      0.1957
     31  OH        26.2240    9.1960   20.1520 O.3   117  TYR117     -0.2866
     32  N         19.1910   13.4870   22.4850 N.am  118  PHE118     -0.1976
     33  CA        17.7450   13.5220   22.6090 C.3   118  PHE118      0.1639
     34  C         17.1350   12.9510   21.3290 C.2   118  PHE118      0.2290
     35  O         16.2210   12.1170   21.3770 O.2   118  PHE118     -0.2864
     36  CB        17.2300   14.9320   22.8590 C.3   118  PHE118      0.0560
     37  CG        15.7420   15.0700   22.7100 C.ar  118  PHE118     -0.0200
     38  CD1       14.8980   14.7820   23.7630 C.ar  118  PHE118     -0.0042
     39  CD2       15.1990   15.5150   21.5390 C.ar  118  PHE118     -0.0042
     40  CE1       13.5320   14.9230   23.6270 C.ar  118  PHE118     -0.0003
     41  CE2       13.8240   15.6570   21.3990 C.ar  118  PHE118     -0.0003
     42  CZ        13.0010   15.3680   22.4440 C.ar  118  PHE118     -0.0000
     43  N         17.4520    9.3540   21.3000 N.3   121  PHE121     -0.1241
     44  CA        16.4970    8.8010   22.2420 C.3   121  PHE121      0.1605
     45  C         15.1490    8.6240   21.5630 C.2   121  PHE121      0.2264
     46  O         14.5420    7.5470   21.6360 O.2   121  PHE121     -0.2867
     47  CB        16.4140    9.7050   23.5020 C.3   121  PHE121      0.0534
     48  CG        15.1720    9.5120   24.3500 C.ar  121  PHE121     -0.0203
     49  CD1       14.8590    8.2810   24.8820 C.ar  121  PHE121     -0.0042
     50  CD2       14.3480   10.5940   24.6580 C.ar  121  PHE121     -0.0042
     51  CE1       13.7040    8.1150   25.6880 C.ar  121  PHE121     -0.0003
     52  CE2       13.2200   10.4470   25.4440 C.ar  121  PHE121     -0.0003
     53  CZ        12.8990    9.1860   25.9680 C.ar  121  PHE121     -0.0000
     54  N         16.0940    5.2800   26.6910 N.3   143  LEU143     -0.1245
     55  CA        16.6020    6.2840   27.6260 C.3   143  LEU143      0.1561
     56  C         17.9050    5.8240   28.2070 C.2   143  LEU143      0.2260
     57  O         18.8350    6.6120   28.4180 O.2   143  LEU143     -0.2867
     58  CB        15.5960    6.5950   28.7330 C.3   143  LEU143      0.0270
     59  CG        16.0510    7.6200   29.7780 C.3   143  LEU143      0.0019
     60  CD1       16.1770    8.9730   29.1510 C.3   143  LEU143      0.0001
     61  CD2       15.0910    7.6770   30.9460 C.3   143  LEU143      0.0001
     62  N         20.7100    5.6430   25.1000 N.3   146  ASN146     -0.1225
     63  CA        21.0610    6.9240   24.5090 C.3   146  ASN146      0.1785
     64  C         21.4530    7.9430   25.5860 C.2   146  ASN146      0.2597
     65  O         22.2680    8.8490   25.3520 O.2   146  ASN146     -0.2718
     66  CB        19.9150    7.3680   23.6120 C.3   146  ASN146      0.1169
     67  CG        19.7700    6.4520   22.3790 C.2   146  ASN146      0.2627
     68  OD1       18.7050    5.8900   22.0930 O.2   146  ASN146     -0.2716
     69  ND2       20.8640    6.3090   21.6520 N.am  146  ASN146     -0.0877
     70  N         20.9090    7.7420   26.7860 N.am  147  GLY147     -0.1957
     71  CA        21.2200    8.5780   27.9210 C.3   147  GLY147      0.1869
     72  C         22.6500    8.3000   28.3200 C.2   147  GLY147      0.2309
     73  O         23.4510    9.2350   28.4920 O.2   147  GLY147     -0.2863
     74  N         24.9610    9.4960   25.5120 N.3   150  GLY150     -0.1210
     75  CA        25.0480   10.9500   25.5740 C.3   150  GLY150      0.1956
     76  C         25.9720   11.4360   26.6720 C.2   150  GLY150      0.2611
     77  O         26.7600   12.3580   26.4650 O.2   150  GLY150     -0.2717
     78  N         25.8690   10.8250   27.8520 N.am  151  ILE151     -0.1979
     79  CA        26.6990   11.2160   28.9780 C.3   151  ILE151      0.1595
     80  C         28.1890   10.9180   28.7280 C.2   151  ILE151      0.2287
     81  O         29.0520   11.7600   29.0080 O.2   151  ILE151     -0.2864
     82  CB        26.2280   10.5650   30.2970 C.3   151  ILE151      0.0276
     83  CG1       24.9440   11.2300   30.8070 C.3   151  ILE151      0.0022
     84  CG2       27.2540   10.7220   31.3790 C.3   151  ILE151      0.0022
     85  CD1       24.1870   10.3510   31.7740 C.3   151  ILE151      0.0001
@<TRIPOS>BOND
     1    31    30    1
     2    30    28   ar
     3    30    29   ar
     4    28    26   ar
     5    43    44    1
     6    34    35    2
     7    34    33    1
     8    41    39   ar
     9    41    42   ar
    10    20    21    1
    11    29    27   ar
    12    39    37   ar
    13    45    46    2
    14    45    44    1
    15    69    67   am
    16    26    25   ar
    17    21    22    1
    18    21    24    1
    19    68    67    2
    20    44    47    1
    21    27    25   ar
    22    67    66    1
    23    25    24    1
    24    22    32   am
    25    22    23    2
    26    42    40   ar
    27    32    33    1
    28    33    36    1
    29    37    36    1
    30    37    38   ar
    31    47    48    1
    32    66    63    1
    33    40    38   ar
    34    15    14    2
    35    14    13    1
    36    12    13    1
    37    48    50   ar
    38    48    49   ar
    39    63    62    1
    40    63    64    1
    41    50    52   ar
    42    49    51   ar
    43    13    16    1
    44    65    64    2
    45    52    53   ar
    46    74    75    1
    47    75    76    1
    48    64    70   am
    49    51    53   ar
    50    16    17    1
    51     4     3    2
    52     1     2    1
    53     3     2    1
    54    77    76    2
    55    17    19    1
    56    17    18    1
    57    76    78   am
    58    54    55    1
    59    70    71    1
    60     2     5    1
    61    55    56    1
    62    55    58    1
    63    78    79    1
    64    71    72    1
    65    56    57    2
    66    72    73    2
    67     5     6    1
    68    80    79    1
    69    80    81    2
    70    58    59    1
    71    79    82    1
    72    60    59    1
    73     6     8   ar
    74     6     7   ar
    75     8    10   ar
    76    59    61    1
    77    82    83    1
    78    82    84    1
    79     7     9   ar
    80    10    11   ar
    81    83    85    1
    82     9    11   ar
