@<TRIPOS>MOLECULE
tmp/4muuB00.pdb
 86 88 0 0 0
SMALL
GASTEIGER

@<TRIPOS>ATOM
      1  N         32.4500    1.5390   20.8540 N.3    25  THR25      -0.1218
      2  CA        31.3620    0.8110   21.5000 C.3    25  THR25       0.1862
      3  C         31.7540    0.3190   22.9010 C.2    25  THR25       0.2287
      4  O         32.7120   -0.4560   23.0600 O.2    25  THR25      -0.2866
      5  CB        30.9440   -0.4070   20.6200 C.3    25  THR25       0.1770
      6  OG1       30.4570    0.0650   19.3600 O.3    25  THR25      -0.2211
      7  CG2       29.8510   -1.2260   21.2950 C.3    25  THR25       0.0375
      8  N         26.8890   -2.8220   23.0660 N.3    28  GLY28      -0.1210
      9  CA        25.7720   -2.6710   22.1460 C.3    28  GLY28       0.1956
     10  C         25.7440   -1.2790   21.5270 C.2    28  GLY28       0.2611
     11  O         26.7650   -0.7730   21.0590 O.2    28  GLY28      -0.2717
     12  N         24.5980   -0.6130   21.5870 N.am   29  TRP29      -0.1976
     13  CA        24.5370    0.7960   21.1490 C.3    29  TRP29       0.1640
     14  C         24.8980    1.8290   22.2070 C.2    29  TRP29       0.2290
     15  O         24.6670    3.0290   22.0210 O.2    29  TRP29      -0.2864
     16  CB        23.1910    1.1010   20.5060 C.3    29  TRP29       0.0576
     17  CG        23.2320    0.8660   19.0220 C.ar   29  TRP29       0.0006
     18  CD1       22.7340   -0.1970   18.3590 C.ar   29  TRP29       0.0946
     19  CD2       23.8280    1.7230   18.0330 C.ar   29  TRP29       0.0152
     20  NE1       22.9560   -0.0660   17.0080 N.ar   29  TRP29      -0.2442
     21  CE2       23.6270    1.1090   16.7790 C.ar   29  TRP29       0.0810
     22  CE3       24.4830    2.9480   18.0870 C.ar   29  TRP29       0.0012
     23  CZ2       24.0740    1.6730   15.5870 C.ar   29  TRP29       0.0191
     24  CZ3       24.9270    3.5300   16.8920 C.ar   29  TRP29       0.0001
     25  CH2       24.7110    2.8900   15.6570 C.ar   29  TRP29       0.0015
     26  N         28.5800    4.2980    3.3070 N.3    66  GLY66      -0.1210
     27  CA        28.1230    3.0190    3.8220 C.3    66  GLY66       0.1956
     28  C         28.1650    2.8260    5.3400 C.2    66  GLY66       0.2612
     29  O         27.7370    1.7710    5.8240 O.2    66  GLY66      -0.2717
     30  N         28.6450    3.8260    6.0890 N.am   67  HIS67      -0.1961
     31  CA        28.9190    3.6700    7.5290 C.3    67  HIS67       0.1787
     32  C         27.7230    3.9280    8.4390 C.2    67  HIS67       0.2620
     33  O         27.7510    3.6010    9.6270 O.2    67  HIS67      -0.2715
     34  CB        30.0970    4.5620    7.9580 C.3    67  HIS67       0.0785
     35  CG        31.4300    4.0260    7.5470 C.ar   67  HIS67       0.0821
     36  ND1       31.8610    4.0200    6.2340 N.ar   67  HIS67      -0.2267
     37  CD2       32.4040    3.4110    8.2620 C.ar   67  HIS67       0.1154
     38  CE1       33.0480    3.4420    6.1620 C.ar   67  HIS67       0.1986
     39  NE2       33.4010    3.0660    7.3780 N.ar   67  HIS67      -0.2212
     40  N         26.6770    4.5260    7.8970 N.am   68  ALA68      -0.1963
     41  CA        25.4590    4.7770    8.6550 C.3    68  ALA68       0.1728
     42  C         24.6410    3.4780    8.8650 C.2    68  ALA68       0.2616
     43  O         24.6460    2.5910    8.0240 O.2    68  ALA68      -0.2715
     44  CB        24.6250    5.8280    7.9500 C.3    68  ALA68       0.0334
     45  N         23.9780    3.3610   10.0100 N.am   69  TYR69      -0.1960
     46  CA        23.0750    2.2450   10.2680 C.3    69  TYR69       0.1771
     47  C         21.6550    2.7190   10.0060 C.2    69  TYR69       0.2619
     48  O         21.0760    3.4470   10.7970 O.2    69  TYR69      -0.2715
     49  CB        23.2390    1.7510   11.7120 C.3    69  TYR69       0.0574
     50  CG        24.6040    1.1720   11.9390 C.ar   69  TYR69      -0.0198
     51  CD1       24.8800   -0.1350   11.5810 C.ar   69  TYR69      -0.0009
     52  CD2       25.6320    1.9390   12.4750 C.ar   69  TYR69      -0.0009
     53  CE1       26.1300   -0.6730   11.7540 C.ar   69  TYR69       0.0417
     54  CE2       26.9040    1.3980   12.6540 C.ar   69  TYR69       0.0417
     55  CZ        27.1380    0.0990   12.2800 C.ar   69  TYR69       0.1957
     56  OH        28.3760   -0.4660   12.4470 O.3    69  TYR69      -0.2866
     57  N         21.0960    2.2890    8.8860 N.am   70  ILE70      -0.1963
     58  CA        19.8620    2.8580    8.3770 C.3    70  ILE70       0.1727
     59  C         18.7950    1.7910    8.3830 C.2    70  ILE70       0.2616
     60  O         18.9760    0.7190    7.8120 O.2    70  ILE70      -0.2715
     61  CB        20.0590    3.4220    6.9390 C.3    70  ILE70       0.0290
     62  CG1       20.8300    4.7550    6.9980 C.3    70  ILE70       0.0022
     63  CG2       18.7140    3.6460    6.2220 C.3    70  ILE70       0.0023
     64  CD1       21.3220    5.1940    5.6450 C.3    70  ILE70       0.0001
     65  N         17.6810    2.1110    9.0210 N.am   71  LEU71      -0.1977
     66  CA        16.5830    1.1780    9.1490 C.3    71  LEU71       0.1596
     67  C         15.4390    1.6350    8.2530 C.2    71  LEU71       0.2287
     68  O         14.6200    0.8400    7.8520 O.2    71  LEU71      -0.2864
     69  CB        16.1360    1.0620   10.6270 C.3    71  LEU71       0.0297
     70  CG        17.1620    0.5160   11.6200 C.3    71  LEU71       0.0022
     71  CD1       16.6150    0.5590   13.0690 C.3    71  LEU71       0.0001
     72  CD2       17.5760   -0.8960   11.2990 C.3    71  LEU71       0.0001
     73  N         14.1770    1.1230   17.3110 N.3   128  TRP128     -0.1241
     74  CA        15.1750    0.1960   17.8440 C.3   128  TRP128      0.1605
     75  C         14.6270   -0.6790   18.9840 C.2   128  TRP128      0.2264
     76  O         15.3860   -1.3590   19.6560 O.2   128  TRP128     -0.2867
     77  CB        16.4420    0.9710   18.2960 C.3   128  TRP128      0.0550
     78  CG        17.2180    1.6360   17.1390 C.ar  128  TRP128      0.0003
     79  CD1       17.0620    2.9050   16.6680 C.ar  128  TRP128      0.0946
     80  CD2       18.2390    1.0330   16.3170 C.ar  128  TRP128      0.0152
     81  NE1       17.9110    3.1340   15.5960 N.ar  128  TRP128     -0.2442
     82  CE2       18.6540    2.0060   15.3770 C.ar  128  TRP128      0.0810
     83  CE3       18.8450   -0.2300   16.2940 C.ar  128  TRP128      0.0012
     84  CZ2       19.6360    1.7630   14.4360 C.ar  128  TRP128      0.0191
     85  CZ3       19.8300   -0.4820   15.3310 C.ar  128  TRP128      0.0001
     86  CH2       20.2150    0.5060   14.4210 C.ar  128  TRP128      0.0015
@<TRIPOS>BOND
     1    26    27    1
     2    27    28    1
     3    28    29    2
     4    28    30   am
     5    64    62    1
     6    30    31    1
     7    38    36   ar
     8    38    39   ar
     9    63    61    1
    10    36    35   ar
    11    61    62    1
    12    61    58    1
    13    39    37   ar
    14    31    34    1
    15    31    32    1
    16    35    34    1
    17    35    37   ar
    18    60    59    2
    19    68    67    2
    20    40    32   am
    21    40    41    1
    22    44    41    1
    23    43    42    2
    24    67    66    1
    25    58    59    1
    26    58    57    1
    27    59    65   am
    28    32    33    2
    29    41    42    1
    30    42    45   am
    31    57    47   am
    32    65    66    1
    33    66    69    1
    34    47    46    1
    35    47    48    2
    36    45    46    1
    37    46    49    1
    38    69    70    1
    39    72    70    1
    40    51    53   ar
    41    51    50   ar
    42    70    71    1
    43    49    50    1
    44    53    55   ar
    45    50    52   ar
    46    55    56    1
    47    55    54   ar
    48    52    54   ar
    49    86    84   ar
    50    86    85   ar
    51    84    82   ar
    52    85    83   ar
    53    82    81   ar
    54    82    80   ar
    55    23    25   ar
    56    23    21   ar
    57    81    79   ar
    58    25    24   ar
    59    83    80   ar
    60    80    78   ar
    61    79    78   ar
    62    21    20   ar
    63    21    19   ar
    64    24    22   ar
    65    20    18   ar
    66    78    77    1
    67    73    74    1
    68    74    77    1
    69    74    75    1
    70    19    22   ar
    71    19    17   ar
    72    18    17   ar
    73    75    76    2
    74    17    16    1
    75     6     5    1
    76    16    13    1
    77     5     7    1
    78     5     2    1
    79     1     2    1
    80    11    10    2
    81    13    12    1
    82    13    14    1
    83     2     3    1
    84    10    12   am
    85    10     9    1
    86    15    14    2
    87     9     8    1
    88     3     4    2
