@<TRIPOS>MOLECULE
tmp/4muvB00.pdb
 138 129 0 0 0
SMALL
GASTEIGER

@<TRIPOS>ATOM
      1  N         13.7830   26.4750   92.0820 N.3    48  CYS48      -0.1235
      2  CA        14.7700   27.3270   92.7850 C.3    48  CYS48       0.1677
      3  C         14.1930   27.5730   94.1810 C.2    48  CYS48       0.2270
      4  O         13.0080   27.8970   94.3110 O.2    48  CYS48      -0.2867
      5  CB        14.9810   28.7120   92.0550 C.3    48  CYS48       0.0956
      6  SG        15.6230   28.5550   90.3970 S.3    48  CYS48      -0.0801
      7  N          6.5500   32.4370   90.9460 N.3    67  VAL67      -0.1245
      8  CA         7.6870   33.0510   91.6000 C.3    67  VAL67       0.1561
      9  C          7.1930   33.6410   92.9200 C.2    67  VAL67       0.2260
     10  O          6.3630   34.5460   92.9160 O.2    67  VAL67      -0.2867
     11  CB         8.2850   34.1830   90.7390 C.3    67  VAL67       0.0252
     12  CG1        9.4820   34.8160   91.4750 C.3    67  VAL67       0.0019
     13  CG2        8.6870   33.6630   89.3630 C.3    67  VAL67       0.0019
     14  N          8.0240   35.8170   95.8580 N.3    69  SER69      -0.1217
     15  CA         8.8610   36.9630   96.1260 C.3    69  SER69       0.1889
     16  C          7.9380   37.9980   96.7460 C.2    69  SER69       0.2288
     17  O          6.7370   37.7280   96.9200 O.2    69  SER69      -0.2866
     18  CB         9.4560   37.4770   94.8150 C.3    69  SER69       0.2089
     19  OG         8.4390   37.9460   93.9640 O.3    69  SER69      -0.2183
     20  N          6.4350   40.4840   95.5840 N.3    71  ASN71      -0.1240
     21  CA         5.3040   40.6440   94.6650 C.3    71  ASN71       0.1653
     22  C          5.2270   39.4340   93.7480 C.2    71  ASN71       0.2266
     23  O          5.8210   39.4310   92.6670 O.2    71  ASN71      -0.2867
     24  CB         5.4500   41.9440   93.8790 C.3    71  ASN71       0.1155
     25  CG         5.2490   43.1440   94.7500 C.2    71  ASN71       0.2627
     26  OD1        4.1490   43.3640   95.2590 O.2    71  ASN71      -0.2716
     27  ND2        6.3090   43.9100   94.9660 N.am   71  ASN71      -0.0877
     28  N          4.6870   36.5450   91.1180 N.3    73  SER73      -0.1217
     29  CA         4.4160   36.5900   89.6950 C.3    73  SER73       0.1889
     30  C          4.4070   35.2030   89.1040 C.2    73  SER73       0.2288
     31  O          4.6630   34.2180   89.7830 O.2    73  SER73      -0.2866
     32  CB         5.4400   37.4870   89.0100 C.3    73  SER73       0.2089
     33  OG         6.7050   36.8820   89.0450 O.3    73  SER73      -0.2183
     34  N          5.6220   33.0630   85.3770 N.3    75  LEU75      -0.1245
     35  CA         6.3980   33.0700   84.1480 C.3    75  LEU75       0.1561
     36  C          5.9250   31.9150   83.2940 C.2    75  LEU75       0.2260
     37  O          5.6680   30.8220   83.8100 O.2    75  LEU75      -0.2867
     38  CB         7.8900   32.9170   84.4270 C.3    75  LEU75       0.0270
     39  CG         8.5150   34.0020   85.3060 C.3    75  LEU75       0.0019
     40  CD1        9.9480   33.6280   85.6440 C.3    75  LEU75       0.0001
     41  CD2        8.4890   35.3390   84.6040 C.3    75  LEU75       0.0001
     42  N         14.5270   32.5500   84.1780 N.3    81  PHE81      -0.1227
     43  CA        14.7110   32.8340   85.5890 C.3    81  PHE81       0.1736
     44  C         15.9810   32.1570   86.0770 C.2    81  PHE81       0.2596
     45  O         16.4710   31.2020   85.4640 O.2    81  PHE81      -0.2718
     46  CB        13.4690   32.4080   86.4050 C.3    81  PHE81       0.0547
     47  CG        13.1740   30.9440   86.3690 C.ar   81  PHE81      -0.0202
     48  CD1       13.7380   30.0730   87.2670 C.ar   81  PHE81      -0.0042
     49  CD2       12.3290   30.4380   85.4030 C.ar   81  PHE81      -0.0042
     50  CE1       13.4590   28.7360   87.2160 C.ar   81  PHE81      -0.0003
     51  CE2       12.0470   29.0920   85.3430 C.ar   81  PHE81      -0.0003
     52  CZ        12.6230   28.2410   86.2490 C.ar   81  PHE81      -0.0000
     53  N         16.4980   32.6520   87.1910 N.am   82  GLY82      -0.1942
     54  CA        17.7140   32.1220   87.7850 C.3    82  GLY82       0.2014
     55  C         18.9620   32.9230   87.4220 C.2    82  GLY82       0.2639
     56  O         20.0740   32.6210   87.8820 O.2    82  GLY82      -0.2714
     57  N         18.7910   33.9710   86.6370 N.am   83  GLU83      -0.1963
     58  CA        19.9230   34.7770   86.2190 C.3    83  GLU83       0.1733
     59  C         20.5050   35.5990   87.3680 C.2    83  GLU83       0.2616
     60  O         21.6930   35.9050   87.3610 O.2    83  GLU83      -0.2715
     61  CB        19.5490   35.7070   85.0590 C.3    83  GLU83       0.0429
     62  CG        18.6090   36.8780   85.3990 C.3    83  GLU83       0.1163
     63  CD        17.2090   36.4310   85.7560 C.2    83  GLU83       0.3649
     64  OE1       16.7770   35.3700   85.2620 O.co2  83  GLU83      -0.2457
     65  OE2       16.5170   37.1520   86.4920 O.co2  83  GLU83      -0.2457
     66  N         19.6800   35.9700   88.3400 N.am   84  MET84      -0.1963
     67  CA        20.1670   36.9140   89.3520 C.3    84  MET84       0.1736
     68  C         21.3510   36.3410   90.1570 C.2    84  MET84       0.2616
     69  O         22.3360   37.0290   90.3760 O.2    84  MET84      -0.2715
     70  CB        19.0370   37.3370   90.2930 C.3    84  MET84       0.0427
     71  CG        17.9550   38.1390   89.6000 C.3    84  MET84       0.0599
     72  SD        16.4820   38.4490   90.5830 S.3    84  MET84      -0.1393
     73  CE        17.0950   39.6830   91.6990 C.3    84  MET84       0.0692
     74  N         21.2630   35.0730   90.5530 N.am   85  ALA85      -0.1977
     75  CA        22.3220   34.4540   91.3290 C.3    85  ALA85       0.1597
     76  C         23.5980   34.3260   90.4980 C.2    85  ALA85       0.2287
     77  O         24.7010   34.4480   91.0160 O.2    85  ALA85      -0.2864
     78  CB        21.8790   33.0920   91.8440 C.3    85  ALA85       0.0319
     79  N         22.9040   34.1670   96.8950 N.3    91  PRO91      -0.2102
     80  CA        21.9920   33.0200   96.8870 C.3    91  PRO91       0.1504
     81  C         20.7260   33.3180   96.0840 C.2    91  PRO91       0.2576
     82  O         20.4290   34.4810   95.8240 O.2    91  PRO91      -0.2718
     83  CB        21.6480   32.8390   98.3710 C.3    91  PRO91       0.0282
     84  CG        22.7360   33.5030   99.1120 C.3    91  PRO91       0.0208
     85  CD        23.1270   34.6730   98.2640 C.3    91  PRO91       0.0893
     86  N         19.9720   32.2900   95.7230 N.am   92  ARG92      -0.1966
     87  CA        18.6820   32.5300   95.0840 C.3    92  ARG92       0.1729
     88  C         17.8610   33.5130   95.9270 C.2    92  ARG92       0.2617
     89  O         17.8110   33.4050   97.1520 O.2    92  ARG92      -0.2715
     90  CB        17.8720   31.2440   94.9610 C.3    92  ARG92       0.0348
     91  CG        18.5140   30.1610   94.1380 C.3    92  ARG92       0.0492
     92  CD        18.6880   30.5340   92.7020 C.3    92  ARG92       0.2205
     93  NE        19.0630   29.3820   91.8870 N.pl3  92  ARG92      -0.0865
     94  CZ        19.5070   29.4760   90.6370 C.cat  92  ARG92       0.5346
     95  NH1       19.6390   30.6670   90.0680 N.pl3  92  ARG92       0.1354
     96  NH2       19.8340   28.3840   89.9560 N.pl3  92  ARG92       0.1354
     97  N         17.1600   34.4180   95.2480 N.am   93  SER93      -0.1936
     98  CA        16.4560   35.5200   95.9040 C.3    93  SER93       0.2055
     99  C         14.9480   35.3140   95.9570 C.2    93  SER93       0.2642
    100  O         14.2260   36.1510   96.5010 O.2    93  SER93      -0.2714
    101  CB        16.7480   36.8330   95.1760 C.3    93  SER93       0.2130
    102  OG        16.1790   36.8400   93.8760 O.3    93  SER93      -0.2179
    103  N         14.4650   34.2000   95.4160 N.am   94  ALA94      -0.1977
    104  CA        13.0380   33.8650   95.3520 C.3    94  ALA94       0.1597
    105  C         12.9090   32.3640   95.2140 C.2    94  ALA94       0.2287
    106  O         13.8550   31.7060   94.8040 O.2    94  ALA94      -0.2864
    107  CB        12.3580   34.5960   94.1820 C.3    94  ALA94       0.0319
    108  N         11.0070   29.4830   93.1300 N.3    96  VAL96      -0.1245
    109  CA        10.3330   29.3220   91.8510 C.3    96  VAL96       0.1561
    110  C          9.8960   27.8750   91.7680 C.2    96  VAL96       0.2260
    111  O         10.7080   26.9720   91.9340 O.2    96  VAL96      -0.2867
    112  CB        11.2850   29.6630   90.6920 C.3    96  VAL96       0.0252
    113  CG1       10.5580   29.5280   89.3490 C.3    96  VAL96       0.0019
    114  CG2       11.8600   31.0900   90.8780 C.3    96  VAL96       0.0019
    115  N         13.8300   42.9760   88.4490 N.3   133  ARG133     -0.1245
    116  CA        13.2720   42.0390   89.4330 C.3   133  ARG133      0.1563
    117  C         13.6330   42.4610   90.8460 C.2   133  ARG133      0.2260
    118  O         12.8090   42.3850   91.7390 O.2   133  ARG133     -0.2867
    119  CB        13.6980   40.6190   89.0890 C.3   133  ARG133      0.0307
    120  CG        12.9760   40.1700   87.8170 C.3   133  ARG133      0.0489
    121  CD        13.5030   38.8920   87.1880 C.3   133  ARG133      0.2205
    122  NE        12.6200   38.5330   86.0820 N.pl3 133  ARG133     -0.0865
    123  CZ        12.7510   37.4660   85.3050 C.cat 133  ARG133      0.5346
    124  NH1       13.8010   36.6850   85.4320 N.pl3 133  ARG133      0.1354
    125  NH2       11.8300   37.2000   84.3880 N.pl3 133  ARG133      0.1354
    126  N         11.2510   45.2610   91.4850 N.3   136  ALA136     -0.1231
    127  CA         9.9320   44.7270   91.8160 C.3   136  ALA136      0.1694
    128  C          9.8860   44.2960   93.2750 C.2   136  ALA136      0.2592
    129  O          8.8940   44.5380   93.9510 O.2   136  ALA136     -0.2718
    130  CB         9.6030   43.5590   90.9160 C.3   136  ALA136      0.0304
    131  N         10.9540   43.6960   93.7790 N.am  137  ASP137     -0.1974
    132  CA        11.0180   43.3010   95.1920 C.3   137  ASP137      0.1709
    133  C         10.9610   44.5010   96.1280 C.2   137  ASP137      0.2293
    134  O         10.1340   44.5050   97.0390 O.2   137  ASP137     -0.2864
    135  CB        12.3100   42.6020   95.5300 C.3   137  ASP137      0.1436
    136  CG        12.4340   41.2540   94.9170 C.2   137  ASP137      0.3671
    137  OD1       11.4650   40.7490   94.2880 O.co2 137  ASP137     -0.2456
    138  OD2       13.5360   40.6870   95.0720 O.co2 137  ASP137     -0.2456
@<TRIPOS>BOND
     1    36    37    2
     2    36    35    1
     3    35    38    1
     4    35    34    1
     5    42    43    1
     6   125   123    1
     7    38    39    1
     8    41    39    1
     9    61    62    1
    10    61    58    1
    11    64    63   ar
    12   123   124    1
    13   123   122    2
    14    39    40    1
    15    51    49   ar
    16    51    52   ar
    17    62    63    1
    18    49    47   ar
    19    45    44    2
    20    43    44    1
    21    43    46    1
    22    63    65   ar
    23    44    53   am
    24   122   121    1
    25    58    57    1
    26    58    59    1
    27    52    50   ar
    28    47    46    1
    29    47    48   ar
    30    57    55   am
    31   121   120    1
    32    53    54    1
    33    50    48   ar
    34    60    59    2
    35    59    66   am
    36    55    54    1
    37    55    56    2
    38   120   119    1
    39    66    67    1
    40   115   116    1
    41    32    33    1
    42    32    29    1
    43   119   116    1
    44    30    29    1
    45    30    31    2
    46   113   112    1
    47    67    68    1
    48    67    70    1
    49    13    11    1
    50   116   117    1
    51    71    70    1
    52    71    72    1
    53    29    28    1
    54    96    94    1
    55    95    94    1
    56    68    69    2
    57    68    74   am
    58     6     5    1
    59    76    77    2
    60    76    75    1
    61    74    75    1
    62    72    73    1
    63    94    93    2
    64   112   114    1
    65   112   109    1
    66    11    12    1
    67    11     8    1
    68   117   118    2
    69   130   127    1
    70     7     8    1
    71    75    78    1
    72   126   127    1
    73     8     9    1
    74   110   109    1
    75   110   111    2
    76   127   128    1
    77   109   108    1
    78    93    92    1
    79     5     2    1
    80     1     2    1
    81    23    22    2
    82    92    91    1
    83     2     3    1
    84    10     9    2
    85   128   131   am
    86   128   129    2
    87    22    21    1
    88   131   132    1
    89   102   101    1
    90    24    21    1
    91    24    25    1
    92    19    18    1
    93    91    90    1
    94     3     4    2
    95   107   104    1
    96   137   136   ar
    97    21    20    1
    98    25    27   am
    99    25    26    2
   100   106   105    2
   101    18    15    1
   102   136   138   ar
   103   136   135    1
   104    90    87    1
   105    87    86    1
   106    87    88    1
   107   101    98    1
   108   132   135    1
   109   132   133    1
   110   105   104    1
   111    97    98    1
   112    97    88   am
   113   104   103    1
   114   103    99   am
   115    86    81   am
   116    82    81    2
   117    14    15    1
   118    98    99    1
   119    88    89    2
   120    99   100    2
   121    81    80    1
   122    15    16    1
   123   133   134    2
   124    16    17    2
   125    80    79    1
   126    80    83    1
   127    79    85    1
   128    85    84    1
   129    83    84    1
