@<TRIPOS>MOLECULE
tmp/4muwB00.pdb
 168 165 0 0 0
SMALL
GASTEIGER

@<TRIPOS>ATOM
      1  N        -31.8000   46.6030   31.2100 N.3    61  TYR61      -0.1227
      2  CA       -30.7970   47.6660   31.1060 C.3    61  TYR61       0.1736
      3  C        -31.3080   49.0630   31.5120 C.2    61  TYR61       0.2595
      4  O        -30.7550   49.6680   32.4160 O.2    61  TYR61      -0.2718
      5  CB       -30.2130   47.7240   29.6810 C.3    61  TYR61       0.0548
      6  CG       -29.1440   48.7920   29.5300 C.ar   61  TYR61      -0.0200
      7  CD1      -27.9750   48.7460   30.2910 C.ar   61  TYR61      -0.0009
      8  CD2      -29.3150   49.8650   28.6580 C.ar   61  TYR61      -0.0009
      9  CE1      -27.0070   49.7280   30.1730 C.ar   61  TYR61       0.0417
     10  CE2      -28.3470   50.8470   28.5350 C.ar   61  TYR61       0.0417
     11  CZ       -27.2060   50.7700   29.2970 C.ar   61  TYR61       0.1957
     12  OH       -26.2650   51.7380   29.1830 O.3    61  TYR61      -0.2866
     13  N        -32.3500   49.5670   30.8510 N.am   62  HIS62      -0.1975
     14  CA       -32.8190   50.9660   31.0260 C.3    62  HIS62       0.1656
     15  C        -33.5960   51.2080   32.3520 C.2    62  HIS62       0.2291
     16  O        -34.7380   51.6720   32.3740 O.2    62  HIS62      -0.2864
     17  CB       -33.6340   51.4210   29.7910 C.3    62  HIS62       0.0771
     18  CG       -32.7890   51.7460   28.5920 C.ar   62  HIS62       0.0820
     19  ND1      -32.7900   50.9800   27.4470 N.ar   62  HIS62      -0.2267
     20  CD2      -31.9050   52.7490   28.3680 C.ar   62  HIS62       0.1154
     21  CE1      -31.9500   51.4990   26.5680 C.ar   62  HIS62       0.1986
     22  NE2      -31.4010   52.5750   27.1020 N.ar   62  HIS62      -0.2212
     23  N        -29.9770   58.8840   20.3970 N.3   172  LEU172     -0.1245
     24  CA       -28.7850   58.5850   19.5990 C.3   172  LEU172      0.1561
     25  C        -28.8450   59.0970   18.1450 C.2   172  LEU172      0.2260
     26  O        -27.8040   59.4010   17.5540 O.2   172  LEU172     -0.2867
     27  CB       -28.4830   57.0800   19.6140 C.3   172  LEU172      0.0270
     28  CG       -27.0000   56.7090   19.4550 C.3   172  LEU172      0.0019
     29  CD1      -26.1610   57.3460   20.5620 C.3   172  LEU172      0.0001
     30  CD2      -26.8110   55.2000   19.4470 C.3   172  LEU172      0.0001
     31  N        -24.4970   58.6320   28.6930 N.3   211  ASP211     -0.1225
     32  CA       -25.4790   57.5770   28.3760 C.3   211  ASP211      0.1805
     33  C        -24.7990   56.2800   27.9560 C.2   211  ASP211      0.2597
     34  O        -25.2040   55.2020   28.3760 O.2   211  ASP211     -0.2718
     35  CB       -26.4560   58.0450   27.2870 C.3   211  ASP211      0.1424
     36  CG       -27.6970   57.1880   27.1950 C.2   211  ASP211      0.3668
     37  OD1      -28.0560   56.5380   28.2070 O.co2 211  ASP211     -0.2456
     38  OD2      -28.3280   57.1950   26.1080 O.co2 211  ASP211     -0.2456
     39  N        -23.7440   56.3950   27.1590 N.am  212  LEU212     -0.1979
     40  CA       -22.9900   55.2280   26.6960 C.3   212  LEU212      0.1596
     41  C        -21.8240   54.8400   27.6050 C.2   212  LEU212      0.2287
     42  O        -20.9610   54.0650   27.1910 O.2   212  LEU212     -0.2864
     43  CB       -22.4280   55.4910   25.2960 C.3   212  LEU212      0.0297
     44  CG       -23.4220   55.9380   24.2350 C.3   212  LEU212      0.0022
     45  CD1      -22.6410   56.3450   22.9950 C.3   212  LEU212      0.0001
     46  CD2      -24.4200   54.8320   23.9350 C.3   212  LEU212      0.0001
     47  N        -21.1120   52.7880   29.7990 N.3   214  SER214     -0.1202
     48  CA       -20.8100   51.3920   30.1160 C.3   214  SER214      0.2020
     49  C        -19.6140   50.8490   29.3030 C.2   214  SER214      0.2618
     50  O        -18.9850   49.8680   29.7020 O.2   214  SER214     -0.2717
     51  CB       -22.0280   50.4950   29.9140 C.3   214  SER214      0.2103
     52  OG       -21.9120   49.7700   28.7060 O.3   214  SER214     -0.2182
     53  N        -19.3060   51.4940   28.1750 N.am  215  VAL215     -0.1979
     54  CA       -18.1290   51.1530   27.3690 C.3   215  VAL215      0.1595
     55  C        -16.8270   51.8280   27.8600 C.2   215  VAL215      0.2287
     56  O        -15.7640   51.6380   27.2560 O.2   215  VAL215     -0.2864
     57  CB       -18.3520   51.4850   25.8720 C.3   215  VAL215      0.0276
     58  CG1      -19.6870   50.9290   25.3930 C.3   215  VAL215      0.0022
     59  CG2      -18.2710   52.9790   25.5920 C.3   215  VAL215      0.0022
     60  N        -27.7580   44.8620   28.1620 N.3   229  ILE229     -0.1231
     61  CA       -28.0690   45.5870   26.9420 C.3   229  ILE229      0.1692
     62  C        -28.7650   44.6640   25.9510 C.2   229  ILE229      0.2592
     63  O        -29.8310   44.9830   25.4320 O.2   229  ILE229     -0.2718
     64  CB       -26.7820   46.1770   26.3050 C.3   229  ILE229      0.0266
     65  CG1      -26.3110   47.3840   27.1150 C.3   229  ILE229      0.0019
     66  CG2      -27.0180   46.6120   24.8640 C.3   229  ILE229      0.0020
     67  CD1      -24.8330   47.6800   26.9830 C.3   229  ILE229      0.0001
     68  N        -28.1460   43.5190   25.6890 N.am  230  TYR230     -0.1976
     69  CA       -28.6550   42.5800   24.6930 C.3   230  TYR230      0.1639
     70  C        -29.9540   41.8530   25.1270 C.2   230  TYR230      0.2290
     71  O        -30.7300   41.4090   24.2670 O.2   230  TYR230     -0.2864
     72  CB       -27.5480   41.5730   24.3080 C.3   230  TYR230      0.0560
     73  CG       -26.5280   42.1310   23.3130 C.ar  230  TYR230     -0.0198
     74  CD1      -26.8930   42.4230   21.9990 C.ar  230  TYR230     -0.0009
     75  CD2      -25.1970   42.3430   23.6800 C.ar  230  TYR230     -0.0009
     76  CE1      -25.9840   42.9220   21.0890 C.ar  230  TYR230      0.0417
     77  CE2      -24.2770   42.8430   22.7700 C.ar  230  TYR230      0.0417
     78  CZ       -24.6770   43.1330   21.4750 C.ar  230  TYR230      0.1957
     79  OH       -23.7700   43.6290   20.5720 O.3   230  TYR230     -0.2866
     80  N        -32.5850   44.2810   23.9440 N.3   233  PHE233     -0.1227
     81  CA       -32.6350   44.3200   22.4980 C.3   233  PHE233      0.1736
     82  C        -33.1900   43.0250   21.9170 C.2   233  PHE233      0.2595
     83  O        -33.9750   43.0870   20.9800 O.2   233  PHE233     -0.2718
     84  CB       -31.2540   44.6180   21.9050 C.3   233  PHE233      0.0547
     85  CG       -30.8150   46.0550   22.0330 C.ar  233  PHE233     -0.0202
     86  CD1      -31.6680   47.0520   22.5280 C.ar  233  PHE233     -0.0042
     87  CD2      -29.5400   46.4220   21.6230 C.ar  233  PHE233     -0.0042
     88  CE1      -31.2400   48.3690   22.6290 C.ar  233  PHE233     -0.0003
     89  CE2      -29.1130   47.7340   21.7240 C.ar  233  PHE233     -0.0003
     90  CZ       -29.9630   48.7090   22.2240 C.ar  233  PHE233     -0.0000
     91  N        -32.8090   41.8660   22.4680 N.am  234  TRP234     -0.1976
     92  CA       -33.3380   40.5900   21.9790 C.3   234  TRP234      0.1640
     93  C        -34.8510   40.4530   22.2590 C.2   234  TRP234      0.2290
     94  O        -35.5990   39.9560   21.4100 O.2   234  TRP234     -0.2864
     95  CB       -32.5450   39.3980   22.5270 C.3   234  TRP234      0.0576
     96  CG       -31.1140   39.3220   22.0120 C.ar  234  TRP234      0.0006
     97  CD1      -30.6460   39.7910   20.8190 C.ar  234  TRP234      0.0946
     98  CD2      -29.9900   38.7300   22.6720 C.ar  234  TRP234      0.0152
     99  NE1      -29.3050   39.5470   20.7030 N.ar  234  TRP234     -0.2442
    100  CE2      -28.8720   38.8970   21.8250 C.ar  234  TRP234      0.0810
    101  CE3      -29.8120   38.0910   23.9040 C.ar  234  TRP234      0.0012
    102  CZ2      -27.5940   38.4350   22.1630 C.ar  234  TRP234      0.0191
    103  CZ3      -28.5350   37.6300   24.2450 C.ar  234  TRP234      0.0001
    104  CH2      -27.4470   37.8030   23.3770 C.ar  234  TRP234      0.0015
    105  N        -30.0080   42.6820   12.7540 N.3   249  PRO249     -0.2102
    106  CA       -29.2050   41.6540   13.4690 C.3   249  PRO249      0.1504
    107  C        -28.8060   42.0180   14.9240 C.2   249  PRO249      0.2575
    108  O        -28.6410   41.1310   15.7760 O.2   249  PRO249     -0.2718
    109  CB       -27.9530   41.4920   12.5720 C.3   249  PRO249      0.0282
    110  CG       -28.3440   42.0230   11.2380 C.3   249  PRO249      0.0208
    111  CD       -29.3210   43.1340   11.5230 C.3   249  PRO249      0.0893
    112  N        -28.6470   43.3140   15.1840 N.am  250  MET250     -0.1980
    113  CA       -28.4250   43.8680   16.5380 C.3   250  MET250      0.1605
    114  C        -29.4520   43.3930   17.5950 C.2   250  MET250      0.2287
    115  O        -29.1260   43.2250   18.7760 O.2   250  MET250     -0.2864
    116  CB       -28.4540   45.3980   16.4330 C.3   250  MET250      0.0413
    117  CG       -28.1400   46.1630   17.6990 C.3   250  MET250      0.0598
    118  SD       -28.2210   47.9220   17.3370 S.3   250  MET250     -0.1393
    119  CE       -29.9510   48.2760   17.5990 C.3   250  MET250      0.0692
    120  N        -28.6060   35.7980   16.1620 N.3   255  LYS255     -0.1245
    121  CA       -27.2830   36.2270   15.7210 C.3   255  LYS255      0.1561
    122  C        -26.3370   36.5010   16.8970 C.2   255  LYS255      0.2260
    123  O        -25.4340   37.3170   16.7760 O.2   255  LYS255     -0.2867
    124  CB       -27.4020   37.4450   14.7980 C.3   255  LYS255      0.0271
    125  CG       -28.5850   37.3710   13.8380 C.3   255  LYS255      0.0035
    126  CD       -28.1910   37.4540   12.3680 C.3   255  LYS255      0.0206
    127  CE       -29.2370   36.7810   11.4890 C.3   255  LYS255      0.1093
    128  NZ       -28.8570   36.7810   10.0520 N.3   255  LYS255     -0.1314
    129  N        -22.4350   36.6070   16.4670 N.3   258  GLU258     -0.1231
    130  CA       -21.9290   37.8150   15.7920 C.3   258  GLU258      0.1699
    131  C        -21.9030   39.0560   16.6880 C.2   258  GLU258      0.2592
    132  O        -21.6840   40.1630   16.1950 O.2   258  GLU258     -0.2718
    133  CB       -22.7560   38.1210   14.5300 C.3   258  GLU258      0.0402
    134  CG       -22.6200   37.1000   13.4060 C.3   258  GLU258      0.1161
    135  CD       -23.6220   37.3300   12.2880 C.2   258  GLU258      0.3649
    136  OE1      -24.4870   36.4510   12.0790 O.co2 258  GLU258     -0.2457
    137  OE2      -23.5600   38.3940   11.6320 O.co2 258  GLU258     -0.2457
    138  N        -22.1190   38.8750   17.9900 N.am  259  VAL259     -0.1980
    139  CA       -22.1150   39.9880   18.9470 C.3   259  VAL259      0.1595
    140  C        -20.7480   40.6590   19.0110 C.2   259  VAL259      0.2287
    141  O        -20.6780   41.8870   19.0090 O.2   259  VAL259     -0.2864
    142  CB       -22.5790   39.5540   20.3780 C.3   259  VAL259      0.0276
    143  CG1      -22.0650   40.4980   21.4630 C.3   259  VAL259      0.0022
    144  CG2      -24.0990   39.4550   20.4480 C.3   259  VAL259      0.0022
    145  N        -20.3820   42.8050   16.1850 N.3   262  GLY262     -0.1210
    146  CA       -21.3800   43.8370   16.4750 C.3   262  GLY262      0.1956
    147  C        -20.8640   44.9650   17.3570 C.2   262  GLY262      0.2611
    148  O        -21.0000   46.1400   17.0150 O.2   262  GLY262     -0.2717
    149  N        -20.2700   44.6050   18.4930 N.am  263  GLN263     -0.1979
    150  CA       -19.6220   45.5810   19.3680 C.3   263  GLN263      0.1601
    151  C        -18.4760   46.3160   18.6740 C.2   263  GLN263      0.2287
    152  O        -18.4580   47.5310   18.6540 O.2   263  GLN263     -0.2864
    153  CB       -19.1150   44.9030   20.6400 C.3   263  GLN263      0.0394
    154  CG       -20.2310   44.5240   21.5860 C.3   263  GLN263      0.0908
    155  CD       -20.8550   45.7280   22.2500 C.2   263  GLN263      0.2608
    156  OE1      -20.1960   46.4420   23.0000 O.2   263  GLN263     -0.2717
    157  NE2      -22.1310   45.9680   21.9720 N.am  263  GLN263     -0.0878
    158  N        -19.6040   49.0700   16.4680 N.3   266  PHE266     -0.1241
    159  CA       -20.1780   50.1560   17.2720 C.3   266  PHE266      0.1605
    160  C        -19.1020   51.0280   17.9780 C.2   266  PHE266      0.2264
    161  O        -19.2000   52.2610   17.9790 O.2   266  PHE266     -0.2867
    162  CB       -21.1900   49.5580   18.2780 C.3   266  PHE266      0.0534
    163  CG       -21.8460   50.5690   19.1880 C.ar  266  PHE266     -0.0203
    164  CD1      -22.9570   51.2950   18.7660 C.ar  266  PHE266     -0.0042
    165  CD2      -21.3730   50.7690   20.4830 C.ar  266  PHE266     -0.0042
    166  CE1      -23.5770   52.2130   19.6080 C.ar  266  PHE266     -0.0003
    167  CE2      -21.9760   51.6900   21.3180 C.ar  266  PHE266     -0.0003
    168  CZ       -23.0830   52.4120   20.8840 C.ar  266  PHE266     -0.0000
@<TRIPOS>BOND
     1   128   127    1
     2   110   111    1
     3   110   109    1
     4   127   126    1
     5   111   105    1
     6   137   135   ar
     7   136   135   ar
     8   135   134    1
     9   126   125    1
    10   109   106    1
    11   105   106    1
    12   134   133    1
    13   106   107    1
    14   125   124    1
    15   133   130    1
    16   124   121    1
    17   107   112   am
    18   107   108    2
    19   112   113    1
    20   121   120    1
    21   121   122    1
    22   130   129    1
    23   130   131    1
    24   145   146    1
    25   132   131    2
    26   116   113    1
    27   116   117    1
    28   158   159    1
    29   146   147    1
    30   113   114    1
    31   131   138   am
    32   123   122    2
    33   148   147    2
    34   159   160    1
    35   159   162    1
    36   118   119    1
    37   118   117    1
    38   147   149   am
    39    26    25    2
    40   114   115    2
    41   160   161    2
    42   138   139    1
    43    25    24    1
    44   162   163    1
    45   149   150    1
    46   152   151    2
    47   151   150    1
    48   164   163   ar
    49   164   166   ar
    50   139   140    1
    51   139   142    1
    52   141   140    2
    53   163   165   ar
    54   150   153    1
    55    30    28    1
    56    28    27    1
    57    28    29    1
    58    24    27    1
    59    24    23    1
    60   166   168   ar
    61   142   144    1
    62   142   143    1
    63   165   167   ar
    64    79    78    1
    65   153   154    1
    66    99    97   ar
    67    99   100   ar
    68    97    96   ar
    69   168   167   ar
    70    83    82    2
    71    76    78   ar
    72    76    74   ar
    73    94    93    2
    74    78    77   ar
    75   154   155    1
    76    87    89   ar
    77    87    85   ar
    78    89    90   ar
    79   100   102   ar
    80   100    98   ar
    81    84    85    1
    82    84    81    1
    83    82    91   am
    84    82    81    1
    85   157   155   am
    86    92    93    1
    87    92    91    1
    88    92    95    1
    89    74    73   ar
    90    96    95    1
    91    96    98   ar
    92    85    86   ar
    93   102   104   ar
    94    90    88   ar
    95   155   156    2
    96    81    80    1
    97    86    88   ar
    98    98   101   ar
    99    77    75   ar
   100    45    44    1
   101    73    75   ar
   102    73    72    1
   103   104   103   ar
   104   101   103   ar
   105    46    44    1
   106    44    43    1
   107    71    70    2
   108    72    69    1
   109    69    70    1
   110    69    68    1
   111    66    64    1
   112    43    40    1
   113    58    57    1
   114    63    62    2
   115    59    57    1
   116    68    62   am
   117    57    54    1
   118    62    61    1
   119    38    36   ar
   120    64    61    1
   121    64    65    1
   122    21    22   ar
   123    21    19   ar
   124    40    39    1
   125    40    41    1
   126    61    60    1
   127    67    65    1
   128    22    20   ar
   129    39    33   am
   130    42    41    2
   131    36    35    1
   132    36    37   ar
   133    56    55    2
   134    35    32    1
   135    54    55    1
   136    54    53    1
   137    19    18   ar
   138    33    34    2
   139    33    32    1
   140    53    49   am
   141    20    18   ar
   142    32    31    1
   143    10     8   ar
   144    10    11   ar
   145    18    17    1
   146     8     6   ar
   147    52    51    1
   148    12    11    1
   149    11     9   ar
   150    49    50    2
   151    49    48    1
   152     6     5    1
   153     6     7   ar
   154     5     2    1
   155    17    14    1
   156    47    48    1
   157    51    48    1
   158     9     7   ar
   159    13    14    1
   160    13     3   am
   161    14    15    1
   162     2     1    1
   163     2     3    1
   164     3     4    2
   165    15    16    2
