@<TRIPOS>MOLECULE
tmp/4muyA00.pdb
 140 131 0 0 0
SMALL
GASTEIGER

@<TRIPOS>ATOM
      1  N         -9.9790   -6.4800    8.5120 N.3    12  CYS12      -0.1235
      2  CA        -9.2130   -5.7590    7.5090 C.3    12  CYS12       0.1677
      3  C         -7.8420   -6.4360    7.3310 C.2    12  CYS12       0.2270
      4  O         -7.5090   -7.3910    8.0490 O.2    12  CYS12      -0.2867
      5  CB        -9.0100   -4.3180    7.9770 C.3    12  CYS12       0.0956
      6  SG        -8.0860   -4.2490    9.5460 S.3    12  CYS12      -0.0801
      7  N         -4.8170   -5.1900    8.0150 N.3    14  GLY14      -0.1210
      8  CA        -3.9050   -4.8920    9.1310 C.3    14  GLY14       0.1956
      9  C         -4.1540   -5.7910   10.3210 C.2    14  GLY14       0.2611
     10  O         -3.2150   -6.2290   11.0060 O.2    14  GLY14      -0.2717
     11  N         -5.4230   -6.0540   10.5920 N.am   15  VAL15      -0.1979
     12  CA        -5.7900   -6.9120   11.7210 C.3    15  VAL15       0.1595
     13  C         -5.3750   -8.3360   11.4250 C.2    15  VAL15       0.2287
     14  O         -4.7910   -9.0050   12.2670 O.2    15  VAL15      -0.2864
     15  CB        -7.2880   -6.8110   11.9970 C.3    15  VAL15       0.0276
     16  CG1       -7.8030   -8.0020   12.8110 C.3    15  VAL15       0.0022
     17  CG2       -7.5400   -5.4900   12.6860 C.3    15  VAL15       0.0022
     18  N         -5.0810   -6.3420   18.8230 N.3    40  VAL40      -0.1231
     19  CA        -6.2080   -5.6070   18.2630 C.3    40  VAL40       0.1692
     20  C         -7.1960   -5.4530   19.4130 C.2    40  VAL40       0.2592
     21  O         -7.0980   -6.1980   20.3980 O.2    40  VAL40      -0.2718
     22  CB        -6.8220   -6.3490   17.0370 C.3    40  VAL40       0.0266
     23  CG1       -5.7550   -6.5070   15.9890 C.3    40  VAL40       0.0020
     24  CG2       -7.3830   -7.7200   17.4080 C.3    40  VAL40       0.0020
     25  N         -8.0980   -4.4910   19.3160 N.am   41  HIS41      -0.1976
     26  CA        -9.1120   -4.2460   20.3350 C.3    41  HIS41       0.1656
     27  C        -10.3140   -5.1730   20.1840 C.2    41  HIS41       0.2291
     28  O        -11.4190   -4.7270   19.8680 O.2    41  HIS41      -0.2864
     29  CB        -9.5630   -2.7880   20.2820 C.3    41  HIS41       0.0771
     30  CG        -8.5190   -1.8200   20.7360 C.ar   41  HIS41       0.0820
     31  ND1       -8.3640   -0.5750   20.1730 N.ar   41  HIS41      -0.2267
     32  CD2       -7.5850   -1.9110   21.7120 C.ar   41  HIS41       0.1154
     33  CE1       -7.3750    0.0600   20.7690 C.ar   41  HIS41       0.1986
     34  NE2       -6.8880   -0.7270   21.7090 N.ar   41  HIS41      -0.2212
     35  N         -1.1060   -3.5580   16.5910 N.3    73  ALA73      -0.1231
     36  CA        -1.4940   -3.0070   15.2970 C.3    73  ALA73       0.1694
     37  C         -1.6260   -1.4900   15.3470 C.2    73  ALA73       0.2592
     38  O         -1.4580   -0.8210   14.3560 O.2    73  ALA73      -0.2718
     39  CB        -2.8060   -3.6380   14.8140 C.3    73  ALA73       0.0304
     40  N         -1.8860   -0.9560   16.5390 N.am   74  HIS74      -0.1976
     41  CA        -2.1510    0.4620   16.7210 C.3    74  HIS74       0.1656
     42  C         -0.9120    1.3110   16.6040 C.2    74  HIS74       0.2291
     43  O         -1.0400    2.5040   16.3910 O.2    74  HIS74      -0.2864
     44  CB        -2.8190    0.6970   18.1000 C.3    74  HIS74       0.0771
     45  CG        -3.8920   -0.2910   18.3780 C.ar   74  HIS74       0.0820
     46  ND1       -3.6480   -1.4730   19.0350 N.ar   74  HIS74      -0.2267
     47  CD2       -5.1670   -0.3640   17.9330 C.ar   74  HIS74       0.1154
     48  CE1       -4.7530   -2.1930   19.0630 C.ar   74  HIS74       0.1986
     49  NE2       -5.6860   -1.5410   18.3980 N.ar   74  HIS74      -0.2212
     50  N          0.0300   -1.6650   11.8460 N.3    96  CYS96      -0.1235
     51  CA        -0.5500   -1.7170   10.4960 C.3    96  CYS96       0.1677
     52  C          0.2410   -0.8060    9.5370 C.2    96  CYS96       0.2270
     53  O          0.5520    0.3240    9.8960 O.2    96  CYS96      -0.2867
     54  CB        -2.0310   -1.3390   10.5150 C.3    96  CYS96       0.0956
     55  SG        -2.7190   -1.3010    8.8180 S.3    96  CYS96      -0.0801
     56  N         -0.9790    2.7460    9.4000 N.3    99  VAL99      -0.1245
     57  CA        -0.6080    3.5990   10.5260 C.3    99  VAL99       0.1561
     58  C          0.8370    4.0730   10.3630 C.2    99  VAL99       0.2260
     59  O          1.1300    5.2540   10.5290 O.2    99  VAL99      -0.2867
     60  CB        -0.7920    2.8610   11.8660 C.3    99  VAL99       0.0252
     61  CG1       -0.1970    3.6740   13.0120 C.3    99  VAL99       0.0019
     62  CG2       -2.2780    2.5970   12.1430 C.3    99  VAL99       0.0019
     63  N         -6.2410    7.3250   22.9370 N.3   124  HIS124     -0.1241
     64  CA        -6.2340    6.1300   22.1290 C.3   124  HIS124      0.1621
     65  C         -4.7710    5.7860   21.8130 C.2   124  HIS124      0.2264
     66  O         -3.9710    6.6860   21.5580 O.2   124  HIS124     -0.2867
     67  CB        -7.0620    6.3550   20.8510 C.3   124  HIS124      0.0745
     68  CG        -7.2710    5.1150   20.0470 C.ar  124  HIS124      0.0817
     69  ND1       -6.2760    4.5740   19.2710 N.ar  124  HIS124     -0.2268
     70  CD2       -8.3350    4.2870   19.9260 C.ar  124  HIS124      0.1154
     71  CE1       -6.7110    3.4720   18.6950 C.ar  124  HIS124      0.1986
     72  NE2       -7.9630    3.2790   19.0660 N.ar  124  HIS124     -0.2212
     73  N         -3.2650    4.5720   19.2300 N.3   126  GLU126     -0.1245
     74  CA        -2.8260    5.0890   17.9270 C.3   126  GLU126      0.1567
     75  C         -2.4630    6.5760   17.9990 C.2   126  GLU126      0.2260
     76  O         -1.4550    7.0020   17.4360 O.2   126  GLU126     -0.2867
     77  CB        -3.8540    4.8260   16.8250 C.3   126  GLU126      0.0388
     78  CG        -3.2980    5.2000   15.4530 C.3   126  GLU126      0.1160
     79  CD        -4.3370    5.1530   14.3470 C.2   126  GLU126      0.3649
     80  OE1       -4.3350    6.0950   13.5480 O.co2 126  GLU126     -0.2457
     81  OE2       -5.1500    4.2160   14.2830 O.co2 126  GLU126     -0.2457
     82  N         -6.6460    6.7130   11.8760 N.3   167  THR167     -0.1203
     83  CA        -7.0740    5.8920   10.7180 C.3   167  THR167      0.1994
     84  C         -8.5260    5.4410   10.8170 C.2   167  THR167      0.2618
     85  O         -9.0850    4.9760    9.8420 O.2   167  THR167     -0.2717
     86  CB        -6.2070    4.6320   10.5560 C.3   167  THR167      0.1784
     87  OG1       -6.2340    3.8510   11.7650 O.3   167  THR167     -0.2211
     88  CG2       -4.7910    4.9930   10.2180 C.3   167  THR167      0.0376
     89  N         -9.1200    5.5380   12.0140 N.am  168  THR168     -0.1952
     90  CA       -10.4200    4.9340   12.2820 C.3   168  THR168      0.1897
     91  C        -11.5530    5.9190   12.5930 C.2   168  THR168      0.2313
     92  O        -12.6000    5.5200   13.1210 O.2   168  THR168     -0.2863
     93  CB       -10.3190    3.9800   13.4800 C.3   168  THR168      0.1794
     94  OG1       -9.8120    4.7040   14.6030 O.3   168  THR168     -0.2208
     95  CG2       -9.3780    2.8560   13.1640 C.3   168  THR168      0.0378
     96  N         -8.3420    5.0300    6.8440 N.3   197  CYS197     -0.1235
     97  CA        -7.9590    3.9170    5.9910 C.3   197  CYS197      0.1677
     98  C         -9.1280    3.3870    5.1490 C.2   197  CYS197      0.2270
     99  O        -10.2860    3.6800    5.4090 O.2   197  CYS197     -0.2867
    100  CB        -7.3390    2.8060    6.8110 C.3   197  CYS197      0.0956
    101  SG        -8.5460    1.8600    7.6980 S.3   197  CYS197     -0.0801
    102  N        -13.6220   -0.9500   23.3290 N.3   224  ASN224     -0.1225
    103  CA       -12.4700   -0.0790   23.1590 C.3   224  ASN224      0.1785
    104  C        -12.0070   -0.0620   21.7070 C.2   224  ASN224      0.2598
    105  O        -10.9410    0.4530   21.3840 O.2   224  ASN224     -0.2718
    106  CB       -11.3190   -0.4800   24.0710 C.3   224  ASN224      0.1169
    107  CG       -10.8250   -1.8900   23.8210 C.2   224  ASN224      0.2627
    108  OD1      -11.5050   -2.7020   23.2140 O.2   224  ASN224     -0.2716
    109  ND2       -9.6570   -2.2010   24.3510 N.am  224  ASN224     -0.0877
    110  N        -12.7990   -0.6480   20.8310 N.am  225  SER225     -0.1938
    111  CA       -12.4960   -0.5280   19.3840 C.3   225  SER225      0.2055
    112  C        -13.0730    0.7770   18.8130 C.2   225  SER225      0.2644
    113  O        -14.2840    0.9470   18.6880 O.2   225  SER225     -0.2714
    114  CB       -13.0120   -1.7280   18.6040 C.3   225  SER225      0.2130
    115  OG       -12.8620   -1.5280   17.1910 O.3   225  SER225     -0.2179
    116  N        -12.1820    1.6960   18.4720 N.am  226  SER226     -0.1935
    117  CA       -12.5490    2.9630   17.8730 C.3   226  SER226      0.2055
    118  C        -13.3650    2.7760   16.6020 C.2   226  SER226      0.2643
    119  O        -14.4220    3.3690   16.4360 O.2   226  SER226     -0.2714
    120  CB       -11.2840    3.7550   17.5410 C.3   226  SER226      0.2130
    121  OG       -11.5980    4.9510   16.8570 O.3   226  SER226     -0.2179
    122  N        -12.8580    1.9720   15.6830 N.am  227  ASN227     -0.1971
    123  CA       -13.5370    1.8560   14.4010 C.3   227  ASN227      0.1688
    124  C        -14.9340    1.2190   14.5960 C.2   227  ASN227      0.2292
    125  O        -15.8990    1.6000   13.9320 O.2   227  ASN227     -0.2864
    126  CB       -12.6620    1.0920   13.4060 C.3   227  ASN227      0.1181
    127  CG       -12.7110   -0.4150   13.5940 C.2   227  ASN227      0.2629
    128  OD1      -13.5840   -1.0870   13.0420 O.2   227  ASN227     -0.2716
    129  ND2      -11.7450   -0.9600   14.3280 N.am  227  ASN227     -0.0877
    130  N        -13.4090   -3.8520   12.2890 N.3   268  ALA268     -0.1231
    131  CA       -12.2450   -4.3800   11.6060 C.3   268  ALA268      0.1694
    132  C        -11.4540   -5.4050   12.4360 C.2   268  ALA268      0.2592
    133  O        -10.7130   -6.2080   11.8740 O.2   268  ALA268     -0.2718
    134  CB       -11.3500   -3.2360   11.1500 C.3   268  ALA268      0.0304
    135  N        -11.6450   -5.4060   13.7590 N.am  269  SER269     -0.1952
    136  CA       -10.9170   -6.3170   14.6610 C.3   269  SER269      0.1924
    137  C        -11.7580   -7.5540   15.1150 C.2   269  SER269      0.2314
    138  O        -11.3120   -8.3340   15.9680 O.2   269  SER269     -0.2863
    139  CB       -10.4600   -5.5150   15.8890 C.3   269  SER269      0.2116
    140  OG       -11.5420   -4.6870   16.3240 O.3   269  SER269     -0.2180
@<TRIPOS>BOND
     1    98    99    2
     2    98    97    1
     3    97   100    1
     4    97    96    1
     5   100   101    1
     6     3     2    1
     7     3     4    2
     8     2     5    1
     9     2     1    1
    10     5     6    1
    11     7     8    1
    12    55    54    1
    13     8     9    1
    14    56    57    1
    15    52    53    2
    16    52    51    1
    17    85    84    2
    18    88    86    1
    19     9    11   am
    20     9    10    2
    21    58    57    1
    22    58    59    2
    23    51    54    1
    24    51    50    1
    25    57    60    1
    26    86    83    1
    27    86    87    1
    28    11    12    1
    29    83    84    1
    30    83    82    1
    31    84    89   am
    32   134   131    1
    33    13    12    1
    34    13    14    2
    35   131   130    1
    36   131   132    1
    37    12    15    1
    38    60    62    1
    39    60    61    1
    40   133   132    2
    41    15    17    1
    42    15    16    1
    43    89    90    1
    44    90    91    1
    45    90    93    1
    46   132   135   am
    47    91    92    2
    48   128   127    2
    49    95    93    1
    50   126   127    1
    51   126   123    1
    52    93    94    1
    53    80    79   ar
    54   127   129   am
    55   135   136    1
    56   125   124    2
    57    81    79   ar
    58    79    78    1
    59    38    37    2
    60   123   124    1
    61   123   122    1
    62   136   137    1
    63   136   139    1
    64    39    36    1
    65   137   138    2
    66    36    37    1
    67    36    35    1
    68    37    40   am
    69    78    77    1
    70   122   118   am
    71   139   140    1
    72    23    22    1
    73    43    42    2
    74   119   118    2
    75    40    41    1
    76   118   117    1
    77    42    41    1
    78    41    44    1
    79    77    74    1
    80   121   120    1
    81    22    24    1
    82    22    19    1
    83   115   114    1
    84    76    75    2
    85   120   117    1
    86   117   116    1
    87    74    75    1
    88    74    73    1
    89    47    45   ar
    90    47    49   ar
    91    44    45    1
    92    19    18    1
    93    19    20    1
    94    45    46   ar
    95    49    48   ar
    96   116   112   am
    97   114   111    1
    98   113   112    2
    99    71    72   ar
   100    71    69   ar
   101   112   111    1
   102    46    48   ar
   103    72    70   ar
   104    69    68   ar
   105    25    20   am
   106    25    26    1
   107   111   110    1
   108    20    21    2
   109    28    27    2
   110    70    68   ar
   111    68    67    1
   112    31    30   ar
   113    31    33   ar
   114    27    26    1
   115    29    26    1
   116    29    30    1
   117    30    32   ar
   118    33    34   ar
   119   110   104   am
   120    67    64    1
   121   105   104    2
   122    66    65    2
   123   104   103    1
   124    34    32   ar
   125    65    64    1
   126    64    63    1
   127   103   102    1
   128   103   106    1
   129   108   107    2
   130   107   106    1
   131   107   109   am
