@<TRIPOS>MOLECULE
tmp/4muzA00.pdb
 190 179 0 0 0
SMALL
GASTEIGER

@<TRIPOS>ATOM
      1  N         52.1460   22.7320   52.1250 N.3    10  ALA10      -0.1245
      2  CA        51.2390   23.2440   51.0910 C.3    10  ALA10       0.1562
      3  C         52.0590   24.1550   50.1990 C.2    10  ALA10       0.2260
      4  O         52.3720   25.3090   50.5560 O.2    10  ALA10      -0.2867
      5  CB        50.0770   24.0040   51.7190 C.3    10  ALA10       0.0290
      6  N         52.1930   26.3100   47.7120 N.3    12  ASP12      -0.1239
      7  CA        51.3780   27.2320   46.9400 C.3    12  ASP12       0.1674
      8  C         52.2300   28.3720   46.3960 C.2    12  ASP12       0.2266
      9  O         52.0720   29.5370   46.7770 O.2    12  ASP12      -0.2867
     10  CB        50.2220   27.7640   47.7960 C.3    12  ASP12       0.1410
     11  CG        49.3000   26.6580   48.2720 C.2    12  ASP12       0.3668
     12  OD1       49.0320   25.7100   47.4910 O.co2  12  ASP12      -0.2456
     13  OD2       48.8360   26.7360   49.4310 O.co2  12  ASP12      -0.2456
     14  N         51.5560   18.8920   49.5030 N.3    34  LYS34      -0.1245
     15  CA        50.2160   19.1580   48.9650 C.3    34  LYS34       0.1561
     16  C         50.3020   20.2040   47.8630 C.2    34  LYS34       0.2260
     17  O         50.8350   21.2940   48.0690 O.2    34  LYS34      -0.2867
     18  CB        49.2700   19.6250   50.0710 C.3    34  LYS34       0.0271
     19  CG        47.8260   19.8340   49.6030 C.3    34  LYS34       0.0035
     20  CD        46.8770   20.2200   50.7360 C.3    34  LYS34       0.0206
     21  CE        47.0490   21.6780   51.1480 C.3    34  LYS34       0.1093
     22  NZ        46.6970   22.6100   50.0280 N.3    34  LYS34      -0.1314
     23  N         48.1590   22.4690   44.9160 N.3    36  ASN36      -0.1240
     24  CA        46.8240   23.0080   44.6310 C.3    36  ASN36       0.1653
     25  C         46.8780   23.6410   43.2440 C.2    36  ASN36       0.2266
     26  O         47.9090   23.6110   42.5680 O.2    36  ASN36      -0.2867
     27  CB        46.4790   24.0360   45.7360 C.3    36  ASN36       0.1155
     28  CG        44.9700   24.3760   45.8700 C.2    36  ASN36       0.2627
     29  OD1       44.2060   24.4600   44.8940 O.2    36  ASN36      -0.2716
     30  ND2       44.5720   24.6590   47.1110 N.am   36  ASN36      -0.0877
     31  N         45.5190   18.6200   45.8110 N.3    60  ASP60      -0.1239
     32  CA        44.4750   19.3770   46.4810 C.3    60  ASP60       0.1674
     33  C         43.7010   20.1570   45.4310 C.2    60  ASP60       0.2266
     34  O         43.9350   21.3400   45.1870 O.2    60  ASP60      -0.2867
     35  CB        45.0550   20.3130   47.5350 C.3    60  ASP60       0.1410
     36  CG        43.9850   21.1280   48.2270 C.2    60  ASP60       0.3668
     37  OD1       42.7800   20.8140   48.0690 O.co2  60  ASP60      -0.2456
     38  OD2       44.3440   22.0840   48.9320 O.co2  60  ASP60      -0.2456
     39  N         40.2590   20.2840   45.4070 N.3    62  LYS62      -0.1245
     40  CA        38.9420   20.6930   45.9350 C.3    62  LYS62       0.1561
     41  C         37.8160   20.2490   45.0000 C.2    62  LYS62       0.2260
     42  O         36.9490   21.0460   44.6330 O.2    62  LYS62      -0.2867
     43  CB        38.8850   22.2100   46.1510 C.3    62  LYS62       0.0271
     44  CG        39.8460   22.7190   47.2370 C.3    62  LYS62       0.0035
     45  CD        39.5360   22.0960   48.6010 C.3    62  LYS62       0.0206
     46  CE        40.2480   22.8600   49.7210 C.3    62  LYS62       0.1093
     47  NZ        41.7010   22.9650   49.4120 N.3    62  LYS62      -0.1314
     48  N         41.8930   15.5360   46.9810 N.3    86  ILE86      -0.1245
     49  CA        40.9760   16.1640   47.9290 C.3    86  ILE86       0.1561
     50  C         39.6790   16.5280   47.2090 C.2    86  ILE86       0.2260
     51  O         39.7040   17.1260   46.1290 O.2    86  ILE86      -0.2867
     52  CB        41.6130   17.4010   48.5830 C.3    86  ILE86       0.0252
     53  CG1       42.8100   16.9670   49.4330 C.3    86  ILE86       0.0019
     54  CG2       40.5970   18.1230   49.4430 C.3    86  ILE86       0.0019
     55  CD1       43.5370   18.1080   50.1220 C.3    86  ILE86       0.0001
     56  N         36.7750   17.2210   52.3030 N.3   113  VAL113     -0.1245
     57  CA        36.7350   18.4290   53.1060 C.3   113  VAL113      0.1561
     58  C         35.4500   18.4820   53.9090 C.2   113  VAL113      0.2260
     59  O         34.3490   18.3400   53.3600 O.2   113  VAL113     -0.2867
     60  CB        36.8260   19.6920   52.2430 C.3   113  VAL113      0.0252
     61  CG1       36.8510   20.9250   53.1290 C.3   113  VAL113      0.0019
     62  CG2       38.0560   19.6440   51.3730 C.3   113  VAL113      0.0019
     63  N         34.8200   21.2050   56.5840 N.3   115  GLU115     -0.1231
     64  CA        34.4980   22.6220   56.5870 C.3   115  GLU115      0.1699
     65  C         35.8130   23.3980   56.4640 C.2   115  GLU115      0.2592
     66  O         36.7960   23.0390   57.1050 O.2   115  GLU115     -0.2718
     67  CB        33.7230   23.0100   57.8590 C.3   115  GLU115      0.0402
     68  CG        34.4470   22.6850   59.1770 C.3   115  GLU115      0.1161
     69  CD        33.5870   22.9770   60.3830 C.2   115  GLU115      0.3649
     70  OE1       33.5740   24.1390   60.8380 O.co2 115  GLU115     -0.2457
     71  OE2       32.9100   22.0520   60.8690 O.co2 115  GLU115     -0.2457
     72  N         35.8360   24.4350   55.6300 N.am  116  LEU116     -0.1966
     73  CA        37.0580   25.2140   55.4050 C.3   116  LEU116      0.1728
     74  C         37.4650   25.9770   56.6520 C.2   116  LEU116      0.2617
     75  O         36.6200   26.4540   57.4140 O.2   116  LEU116     -0.2715
     76  CB        36.8750   26.1930   54.2410 C.3   116  LEU116      0.0311
     77  CG        36.7730   25.5760   52.8490 C.3   116  LEU116      0.0022
     78  CD1       36.5120   26.6720   51.8330 C.3   116  LEU116      0.0001
     79  CD2       38.0430   24.8220   52.5030 C.3   116  LEU116      0.0001
     80  N         38.7770   26.1120   56.8230 N.am  117  SER117     -0.1936
     81  CA        39.3580   26.7890   57.9760 C.3   117  SER117      0.2055
     82  C         39.1550   28.3020   57.9970 C.2   117  SER117      0.2643
     83  O         39.3390   28.9360   59.0360 O.2   117  SER117     -0.2714
     84  CB        40.8490   26.4760   58.0470 C.3   117  SER117      0.2130
     85  OG        41.5090   26.8890   56.8660 O.3   117  SER117     -0.2179
     86  N         38.7750   28.8830   56.8580 N.am  118  SER118     -0.1949
     87  CA        38.5070   30.3130   56.7540 C.3   118  SER118      0.1924
     88  C         37.1840   30.6750   57.4240 C.2   118  SER118      0.2314
     89  O         36.3260   29.8140   57.6200 O.2   118  SER118     -0.2863
     90  CB        38.4640   30.6990   55.2810 C.3   118  SER118      0.2116
     91  OG        37.7380   29.7150   54.5640 O.3   118  SER118     -0.2180
     92  N         39.6910   16.4590   55.6080 N.3   145  ILE145     -0.1231
     93  CA        40.3600   17.7240   55.8830 C.3   145  ILE145      0.1692
     94  C         39.4700   18.4490   56.8860 C.2   145  ILE145      0.2592
     95  O         38.2550   18.5540   56.6750 O.2   145  ILE145     -0.2718
     96  CB        40.5370   18.5990   54.6080 C.3   145  ILE145      0.0266
     97  CG1       41.1050   17.7810   53.4370 C.3   145  ILE145      0.0019
     98  CG2       41.3970   19.8260   54.8950 C.3   145  ILE145      0.0020
     99  CD1       42.4570   17.0900   53.7100 C.3   145  ILE145      0.0001
    100  N         40.0560   18.9320   57.9810 N.am  146  ALA146     -0.1966
    101  CA        39.2860   19.5710   59.0570 C.3   146  ALA146      0.1713
    102  C         40.1350   20.6830   59.6730 C.2   146  ALA146      0.2458
    103  O         41.3620   20.5920   59.6610 O.2   146  ALA146     -0.2730
    104  CB        38.8550   18.5530   60.0990 C.3   146  ALA146      0.0333
    105  N         39.4880   21.7410   60.1950 N.am  147  PRO147     -0.2727
    106  CA        40.2190   22.9770   60.4750 C.3   147  PRO147      0.1402
    107  C         40.8710   23.0940   61.8530 C.2   147  PRO147      0.2269
    108  O         40.2380   22.8600   62.8900 O.2   147  PRO147     -0.2865
    109  CB        39.1240   24.0390   60.3400 C.3   147  PRO147      0.0296
    110  CG        37.8800   23.3320   60.8290 C.3   147  PRO147      0.0237
    111  CD        38.0250   21.9420   60.2720 C.3   147  PRO147      0.0939
    112  N         44.7190   21.9210   58.0810 N.3   169  PRO169     -0.2102
    113  CA        45.3830   23.1750   57.7090 C.3   169  PRO169      0.1504
    114  C         45.0150   24.2990   58.6810 C.2   169  PRO169      0.2576
    115  O         44.1890   24.1250   59.5760 O.2   169  PRO169     -0.2718
    116  CB        44.8100   23.4570   56.3220 C.3   169  PRO169      0.0282
    117  CG        43.3800   22.9550   56.4360 C.3   169  PRO169      0.0208
    118  CD        43.4370   21.7400   57.3660 C.3   169  PRO169      0.0893
    119  N         45.6400   25.4580   58.5000 N.am  170  GLY170     -0.1943
    120  CA        45.3150   26.6330   59.2890 C.3   170  GLY170      0.2014
    121  C         46.3480   27.1120   60.2800 C.2   170  GLY170      0.2638
    122  O         46.2300   28.2220   60.7840 O.2   170  GLY170     -0.2714
    123  N         47.3520   26.2830   60.5520 N.am  171  ILE171     -0.1977
    124  CA        48.4640   26.6650   61.4210 C.3   171  ILE171      0.1596
    125  C         49.3430   27.6760   60.7000 C.2   171  ILE171      0.2287
    126  O         49.6010   27.5350   59.5020 O.2   171  ILE171     -0.2864
    127  CB        49.3060   25.4310   61.8160 C.3   171  ILE171      0.0276
    128  CG1       48.4940   24.5060   62.7220 C.3   171  ILE171      0.0022
    129  CG2       50.5980   25.8390   62.5150 C.3   171  ILE171      0.0022
    130  CD1       48.0460   25.1570   63.9900 C.3   171  ILE171      0.0001
    131  N         49.7820   31.0770   59.0820 N.3   173  ALA173     -0.1231
    132  CA        49.1600   32.2880   58.5440 C.3   173  ALA173      0.1694
    133  C         47.7290   32.5080   59.0380 C.2   173  ALA173      0.2591
    134  O         47.3340   33.6370   59.3340 O.2   173  ALA173     -0.2718
    135  CB        49.2170   32.2960   57.0200 C.3   173  ALA173      0.0304
    136  N         46.9580   31.4300   59.1450 N.am  174  GLN174     -0.1979
    137  CA        45.5660   31.5460   59.5690 C.3   174  GLN174      0.1601
    138  C         45.3520   31.4920   61.0760 C.2   174  GLN174      0.2287
    139  O         44.2160   31.5580   61.5430 O.2   174  GLN174     -0.2864
    140  CB        44.7170   30.4690   58.9010 C.3   174  GLN174      0.0394
    141  CG        44.7530   30.5190   57.3780 C.3   174  GLN174      0.0908
    142  CD        43.9190   29.4230   56.7520 C.2   174  GLN174      0.2608
    143  OE1       42.7430   29.2670   57.0820 O.2   174  GLN174     -0.2717
    144  NE2       44.5240   28.6470   55.8610 N.am  174  GLN174     -0.0878
    145  N         48.9580   20.5380   57.9980 N.3   188  ILE188     -0.1231
    146  CA        49.2950   21.1790   56.7260 C.3   188  ILE188      0.1692
    147  C         49.7320   22.6090   56.9900 C.2   188  ILE188      0.2592
    148  O         49.0300   23.3420   57.6810 O.2   188  ILE188     -0.2718
    149  CB        48.0550   21.2150   55.7980 C.3   188  ILE188      0.0266
    150  CG1       47.6640   19.7910   55.3750 C.3   188  ILE188      0.0019
    151  CG2       48.2920   22.1330   54.5870 C.3   188  ILE188      0.0020
    152  CD1       46.2350   19.7080   54.8520 C.3   188  ILE188      0.0001
    153  N         50.8790   23.0130   56.4370 N.am  189  VAL189     -0.1966
    154  CA        51.3590   24.3890   56.5540 C.3   189  VAL189      0.1727
    155  C         51.8870   24.8600   55.2050 C.2   189  VAL189      0.2617
    156  O         52.7170   24.1880   54.5710 O.2   189  VAL189     -0.2715
    157  CB        52.4740   24.5170   57.6210 C.3   189  VAL189      0.0290
    158  CG1       53.0700   25.9260   57.6210 C.3   189  VAL189      0.0023
    159  CG2       51.9320   24.1690   58.9920 C.3   189  VAL189      0.0023
    160  N         51.3890   26.0140   54.7690 N.am  190  GLY190     -0.1940
    161  CA        51.8330   26.6400   53.5370 C.3   190  GLY190      0.2014
    162  C         52.7630   27.8090   53.8130 C.2   190  GLY190      0.2639
    163  O         53.9750   27.6320   53.9270 O.2   190  GLY190     -0.2714
    164  N         52.1840   29.0000   53.9240 N.am  191  ARG191     -0.1963
    165  CA        52.9420   30.2300   54.1300 C.3   191  ARG191      0.1729
    166  C         53.9380   30.1690   55.2860 C.2   191  ARG191      0.2616
    167  O         55.0450   30.6940   55.1800 O.2   191  ARG191     -0.2715
    168  CB        51.9830   31.4000   54.3320 C.3   191  ARG191      0.0348
    169  CG        51.3730   31.8700   53.0280 C.3   191  ARG191      0.0492
    170  CD        50.1840   32.7830   53.2720 C.3   191  ARG191      0.2205
    171  NE        49.0100   31.9990   53.6370 N.pl3 191  ARG191     -0.0865
    172  CZ        47.8390   32.5210   53.9810 C.cat 191  ARG191      0.5346
    173  NH1       47.6690   33.8410   54.0130 N.pl3 191  ARG191      0.1354
    174  NH2       46.8380   31.7160   54.2850 N.pl3 191  ARG191      0.1354
    175  N         53.5570   29.5110   56.3780 N.am  192  GLY192     -0.1955
    176  CA        54.4390   29.3900   57.5320 C.3   192  GLY192      0.1869
    177  C         55.7680   28.7330   57.2070 C.2   192  GLY192      0.2309
    178  O         56.7590   28.9090   57.9310 O.2   192  GLY192     -0.2863
    179  N         56.8400   28.2400   53.3290 N.3   194  TYR194     -0.1241
    180  CA        57.4250   28.8040   52.1050 C.3   194  TYR194      0.1605
    181  C         57.5590   30.3300   52.0890 C.2   194  TYR194      0.2264
    182  O         58.4290   30.8500   51.4000 O.2   194  TYR194     -0.2867
    183  CB        56.7140   28.3130   50.8280 C.3   194  TYR194      0.0534
    184  CG        55.3110   28.8430   50.6130 C.ar  194  TYR194     -0.0201
    185  CD1       55.0920   30.1380   50.1430 C.ar  194  TYR194     -0.0009
    186  CD2       54.2000   28.0370   50.8360 C.ar  194  TYR194     -0.0009
    187  CE1       53.8100   30.6260   49.9440 C.ar  194  TYR194      0.0417
    188  CE2       52.9180   28.5160   50.6380 C.ar  194  TYR194      0.0417
    189  CZ        52.7260   29.8140   50.1910 C.ar  194  TYR194      0.1957
    190  OH        51.4480   30.2990   49.9980 O.3   194  TYR194     -0.2866
@<TRIPOS>BOND
     1    26    25    2
     2    25    24    1
     3    24    23    1
     4    24    27    1
     5    42    41    2
     6    29    28    2
     7    41    40    1
     8    34    33    2
     9    39    40    1
    10    33    32    1
    11    27    28    1
    12    31    32    1
    13    28    30   am
    14    40    43    1
    15    51    50    2
    16    43    44    1
    17     8     9    2
    18     8     7    1
    19    32    35    1
    20     7     6    1
    21     7    10    1
    22    48    49    1
    23    50    49    1
    24    44    45    1
    25    12    11   ar
    26    35    36    1
    27    10    11    1
    28    16    17    2
    29    16    15    1
    30    49    52    1
    31    37    36   ar
    32    36    38   ar
    33    11    13   ar
    34    52    53    1
    35    52    54    1
    36    45    46    1
    37    15    14    1
    38    15    18    1
    39    47    46    1
    40    53    55    1
    41    19    18    1
    42    19    20    1
    43   187   185   ar
    44   187   189   ar
    45   190   189    1
    46    22    21    1
    47   185   184   ar
    48   189   188   ar
    49     3     4    2
    50     3     2    1
    51   184   183    1
    52   184   186   ar
    53   188   186   ar
    54    20    21    1
    55   183   180    1
    56     2     5    1
    57     2     1    1
    58    62    60    1
    59   182   181    2
    60    78    77    1
    61   181   180    1
    62   180   179    1
    63    60    57    1
    64    60    61    1
    65    56    57    1
    66    79    77    1
    67    77    76    1
    68   169   170    1
    69   169   168    1
    70    57    58    1
    71   170   171    1
    72    59    58    2
    73    97    99    1
    74    97    96    1
    75   161   162    1
    76   161   160    1
    77   171   172    2
    78   162   164   am
    79   162   163    2
    80   164   165    1
    81   172   173    1
    82   172   174    1
    83   165   168    1
    84   165   166    1
    85    76    73    1
    86    91    90    1
    87   156   155    2
    88   151   149    1
    89    96    98    1
    90    96    93    1
    91   160   155   am
    92   152   150    1
    93   167   166    2
    94   155   154    1
    95    90    87    1
    96   166   175   am
    97   150   149    1
    98    73    72    1
    99    73    74    1
   100    92    93    1
   101    72    65   am
   102   149   146    1
   103   144   142   am
   104    93    94    1
   105   116   117    1
   106   116   113    1
   107   175   176    1
   108   117   118    1
   109   153   154    1
   110   153   147   am
   111    65    64    1
   112    65    66    2
   113   154   157    1
   114    63    64    1
   115    64    67    1
   116    74    80   am
   117    74    75    2
   118    95    94    2
   119   146   147    1
   120   146   145    1
   121   142   143    2
   122   142   141    1
   123    87    86    1
   124    87    88    1
   125    80    81    1
   126    86    82   am
   127    85    84    1
   128    94   100   am
   129   147   148    2
   130   135   132    1
   131   177   176    1
   132   177   178    2
   133   118   112    1
   134   141   140    1
   135    88    89    2
   136   157   158    1
   137   157   159    1
   138   113   112    1
   139   113   114    1
   140    67    68    1
   141    81    82    1
   142    81    84    1
   143   100   101    1
   144    82    83    2
   145   119   114   am
   146   119   120    1
   147   132   133    1
   148   132   131    1
   149   114   115    2
   150   140   137    1
   151   133   136   am
   152   133   134    2
   153   101   102    1
   154   101   104    1
   155   136   137    1
   156    68    69    1
   157   120   121    1
   158   126   125    2
   159   137   138    1
   160   103   102    2
   161   102   105   am
   162   105   111    1
   163   105   106    1
   164   111   110    1
   165   121   123   am
   166   121   122    2
   167   109   106    1
   168   109   110    1
   169    69    70   ar
   170    69    71   ar
   171   106   107    1
   172   123   124    1
   173   125   124    1
   174   138   139    2
   175   124   127    1
   176   127   129    1
   177   127   128    1
   178   107   108    2
   179   128   130    1
