@<TRIPOS>MOLECULE
tmp/4mv0A00.pdb
 140 131 0 0 0
SMALL
GASTEIGER

@<TRIPOS>ATOM
      1  N        -25.1480   -6.6080   -8.5510 N.3    12  CYS12      -0.1235
      2  CA       -25.8770   -5.8190   -7.5750 C.3    12  CYS12       0.1677
      3  C        -27.2300   -6.4970   -7.3660 C.2    12  CYS12       0.2270
      4  O        -27.5040   -7.5320   -7.9730 O.2    12  CYS12      -0.2867
      5  CB       -26.0830   -4.4170   -8.1240 C.3    12  CYS12       0.0956
      6  SG       -27.0530   -4.4460   -9.6460 S.3    12  CYS12      -0.0801
      7  N        -30.2820   -5.2050   -7.9650 N.3    14  GLY14      -0.1210
      8  CA       -31.1870   -4.9430   -9.0710 C.3    14  GLY14       0.1956
      9  C        -30.9770   -5.8850  -10.2330 C.2    14  GLY14       0.2611
     10  O        -31.9310   -6.3980  -10.8450 O.2    14  GLY14      -0.2717
     11  N        -29.7090   -6.1390  -10.5300 N.am   15  VAL15      -0.1979
     12  CA       -29.3620   -7.0450  -11.6420 C.3    15  VAL15       0.1595
     13  C        -29.8300   -8.4640  -11.3230 C.2    15  VAL15       0.2287
     14  O        -30.4300   -9.1420  -12.1520 O.2    15  VAL15      -0.2864
     15  CB       -27.8650   -7.0070  -11.9370 C.3    15  VAL15       0.0276
     16  CG1      -27.4200   -8.2360  -12.7490 C.3    15  VAL15       0.0022
     17  CG2      -27.5260   -5.6900  -12.6220 C.3    15  VAL15       0.0022
     18  N        -30.2880   -6.4760  -18.7040 N.3    40  VAL40      -0.1231
     19  CA       -29.1720   -5.7340  -18.1570 C.3    40  VAL40       0.1692
     20  C        -28.1260   -5.5840  -19.2650 C.2    40  VAL40       0.2592
     21  O        -28.1220   -6.3420  -20.2220 O.2    40  VAL40      -0.2718
     22  CB       -28.4980   -6.4500  -16.9490 C.3    40  VAL40       0.0266
     23  CG1      -29.4900   -6.6650  -15.8170 C.3    40  VAL40       0.0020
     24  CG2      -27.8450   -7.7660  -17.3440 C.3    40  VAL40       0.0020
     25  N        -27.1890   -4.6550  -19.1120 N.am   41  HIS41      -0.1976
     26  CA       -26.1920   -4.4080  -20.1620 C.3    41  HIS41       0.1656
     27  C        -24.9850   -5.3590  -20.0620 C.2    41  HIS41       0.2291
     28  O        -23.8920   -4.9580  -19.7120 O.2    41  HIS41      -0.2864
     29  CB       -25.7570   -2.9400  -20.0850 C.3    41  HIS41       0.0771
     30  CG       -26.7680   -1.9790  -20.6330 C.ar   41  HIS41       0.0820
     31  ND1      -26.8700   -0.6780  -20.1920 N.ar   41  HIS41      -0.2267
     32  CD2      -27.7010   -2.1230  -21.5990 C.ar   41  HIS41       0.1154
     33  CE1      -27.8290   -0.0680  -20.8580 C.ar   41  HIS41       0.1986
     34  NE2      -28.3530   -0.9230  -21.7090 N.ar   41  HIS41      -0.2212
     35  N        -34.1330   -3.6580  -16.4950 N.3    73  ALA73      -0.1231
     36  CA       -33.7660   -3.1060  -15.2050 C.3    73  ALA73       0.1694
     37  C        -33.6290   -1.5950  -15.2880 C.2    73  ALA73       0.2592
     38  O        -33.7950   -0.9140  -14.2840 O.2    73  ALA73      -0.2718
     39  CB       -32.4700   -3.7170  -14.7140 C.3    73  ALA73       0.0304
     40  N        -33.3470   -1.0980  -16.4850 N.am   74  HIS74      -0.1976
     41  CA       -33.2020    0.3470  -16.7430 C.3    74  HIS74       0.1656
     42  C        -34.5150    1.1210  -16.6800 C.2    74  HIS74       0.2291
     43  O        -34.4990    2.3380  -16.5220 O.2    74  HIS74      -0.2864
     44  CB       -32.4940    0.5820  -18.0740 C.3    74  HIS74       0.0771
     45  CG       -31.2940   -0.2880  -18.2370 C.ar   74  HIS74       0.0820
     46  ND1      -31.3540   -1.5020  -18.8770 N.ar   74  HIS74      -0.2267
     47  CD2      -30.0430   -0.1950  -17.7280 C.ar   74  HIS74       0.1154
     48  CE1      -30.1740   -2.0980  -18.8110 C.ar   74  HIS74       0.1986
     49  NE2      -29.3540   -1.3160  -18.1330 N.ar   74  HIS74      -0.2212
     50  N        -35.2400   -1.7840  -11.7030 N.3    96  CYS96      -0.1235
     51  CA       -34.6560   -1.8160  -10.3850 C.3    96  CYS96       0.1677
     52  C        -35.3330   -0.8830   -9.4400 C.2    96  CYS96       0.2270
     53  O        -35.4670    0.2730   -9.7220 O.2    96  CYS96      -0.2867
     54  CB       -33.1900   -1.3770  -10.4600 C.3    96  CYS96       0.0956
     55  SG       -32.3570   -1.3740   -8.8640 S.3    96  CYS96      -0.0801
     56  N        -34.1490    2.6740   -9.4480 N.3    99  VAL99      -0.1245
     57  CA       -34.5650    3.5160  -10.5710 C.3    99  VAL99       0.1561
     58  C        -35.9970    3.9610  -10.3570 C.2    99  VAL99       0.2260
     59  O        -36.2990    5.1530  -10.5450 O.2    99  VAL99      -0.2867
     60  CB       -34.4360    2.8030  -11.9450 C.3    99  VAL99       0.0252
     61  CG1      -35.1020    3.5970  -13.0530 C.3    99  VAL99       0.0019
     62  CG2      -32.9670    2.5960  -12.3100 C.3    99  VAL99       0.0019
     63  N        -29.0150    7.1120  -23.0150 N.3   124  HIS124     -0.1241
     64  CA       -29.0760    5.9070  -22.1990 C.3   124  HIS124      0.1621
     65  C        -30.5500    5.5690  -21.8600 C.2   124  HIS124      0.2264
     66  O        -31.3280    6.4730  -21.5950 O.2   124  HIS124     -0.2867
     67  CB       -28.2510    6.1060  -20.9130 C.3   124  HIS124      0.0745
     68  CG       -27.9850    4.8400  -20.1430 C.ar  124  HIS124      0.0817
     69  ND1      -28.8850    4.3090  -19.2400 N.ar  124  HIS124     -0.2268
     70  CD2      -26.9020    4.0190  -20.1150 C.ar  124  HIS124      0.1154
     71  CE1      -28.3820    3.2170  -18.7000 C.ar  124  HIS124      0.1986
     72  NE2      -27.1780    3.0120  -19.2190 N.ar  124  HIS124     -0.2212
     73  N        -31.9940    4.3790  -19.1500 N.3   126  GLU126     -0.1245
     74  CA       -32.4390    4.9130  -17.8480 C.3   126  GLU126      0.1567
     75  C        -32.8710    6.3710  -17.9630 C.2   126  GLU126      0.2260
     76  O        -33.9050    6.7840  -17.4030 O.2   126  GLU126     -0.2867
     77  CB       -31.3950    4.7510  -16.7380 C.3   126  GLU126      0.0388
     78  CG       -31.9550    5.1530  -15.3660 C.3   126  GLU126      0.1160
     79  CD       -30.9200    5.0420  -14.2440 C.2   126  GLU126      0.3649
     80  OE1      -30.2380    4.0080  -14.1480 O.co2 126  GLU126     -0.2457
     81  OE2      -30.8180    5.9860  -13.4370 O.co2 126  GLU126     -0.2457
     82  N        -28.5710    6.5800  -11.8270 N.3   167  THR167     -0.1203
     83  CA       -28.0610    5.7600  -10.7180 C.3   167  THR167      0.1994
     84  C        -26.6110    5.3310  -10.8820 C.2   167  THR167      0.2618
     85  O        -25.9730    4.9090   -9.9230 O.2   167  THR167     -0.2717
     86  CB       -28.8680    4.4610  -10.5960 C.3   167  THR167      0.1784
     87  OG1      -28.8570    3.7670  -11.8610 O.3   167  THR167     -0.2211
     88  CG2      -30.2730    4.7420  -10.2290 C.3   167  THR167      0.0376
     89  N        -26.1030    5.3870  -12.1030 N.am  168  THR168     -0.1952
     90  CA       -24.8020    4.7930  -12.4100 C.3   168  THR168      0.1897
     91  C        -23.6930    5.7490  -12.8040 C.2   168  THR168      0.2313
     92  O        -22.7160    5.3350  -13.4380 O.2   168  THR168     -0.2863
     93  CB       -24.9560    3.8030  -13.5650 C.3   168  THR168      0.1794
     94  OG1      -25.5940    4.4730  -14.6540 O.3   168  THR168     -0.2208
     95  CG2      -25.7680    2.6410  -13.1050 C.3   168  THR168      0.0378
     96  N        -26.7270    4.8700   -6.9970 N.3   197  CYS197     -0.1235
     97  CA       -27.0880    3.7500   -6.1030 C.3   197  CYS197      0.1677
     98  C        -25.9240    3.2910   -5.2640 C.2   197  CYS197      0.2270
     99  O        -24.8020    3.6380   -5.5410 O.2   197  CYS197     -0.2867
    100  CB       -27.6250    2.5680   -6.9150 C.3   197  CYS197      0.0956
    101  SG       -26.4100    1.7310   -7.9710 S.3   197  CYS197     -0.0801
    102  N        -21.6450   -1.2230  -23.4700 N.3   224  ASN224     -0.1225
    103  CA       -22.7940   -0.3700  -23.2100 C.3   224  ASN224      0.1785
    104  C        -23.2140   -0.3320  -21.7270 C.2   224  ASN224      0.2598
    105  O        -24.3160    0.1220  -21.3990 O.2   224  ASN224     -0.2718
    106  CB       -23.9700   -0.7710  -24.1050 C.3   224  ASN224      0.1169
    107  CG       -24.5000   -2.1650  -23.8020 C.2   224  ASN224      0.2627
    108  OD1      -23.8360   -2.9730  -23.1670 O.2   224  ASN224     -0.2716
    109  ND2      -25.6950   -2.4560  -24.2810 N.am  224  ASN224     -0.0877
    110  N        -22.3760   -0.8420  -20.8310 N.am  225  SER225     -0.1938
    111  CA       -22.6860   -0.7650  -19.3880 C.3   225  SER225      0.2055
    112  C        -22.1000    0.5380  -18.8400 C.2   225  SER225      0.2644
    113  O        -20.9010    0.6430  -18.6530 O.2   225  SER225     -0.2714
    114  CB       -22.1410   -1.9670  -18.6250 C.3   225  SER225      0.2130
    115  OG       -22.1910   -1.7370  -17.2180 O.3   225  SER225     -0.2179
    116  N        -22.9610    1.5230  -18.6160 N.am  226  SER226     -0.1935
    117  CA       -22.5850    2.7960  -18.0070 C.3   226  SER226      0.2055
    118  C        -21.7380    2.6310  -16.7380 C.2   226  SER226      0.2643
    119  O        -20.6240    3.2020  -16.6220 O.2   226  SER226     -0.2714
    120  CB       -23.8700    3.5530  -17.6490 C.3   226  SER226      0.2130
    121  OG       -23.5890    4.7400  -16.9430 O.3   226  SER226     -0.2179
    122  N        -22.2340    1.8490  -15.7850 N.am  227  ASN227     -0.1971
    123  CA       -21.5160    1.7320  -14.5000 C.3   227  ASN227      0.1688
    124  C        -20.1210    1.1260  -14.7100 C.2   227  ASN227      0.2292
    125  O        -19.1250    1.5820  -14.0810 O.2   227  ASN227     -0.2864
    126  CB       -22.3060    0.9540  -13.4490 C.3   227  ASN227      0.1181
    127  CG       -22.2920   -0.5600  -13.6760 C.2   227  ASN227      0.2629
    128  OD1      -21.4460   -1.2780  -13.1430 O.2   227  ASN227     -0.2716
    129  ND2      -23.2280   -1.0460  -14.4650 N.am  227  ASN227     -0.0877
    130  N        -21.7260   -4.0000  -12.3920 N.3   268  ALA268     -0.1231
    131  CA       -22.8510   -4.5700  -11.6680 C.3   268  ALA268      0.1694
    132  C        -23.6420   -5.5910  -12.4740 C.2   268  ALA268      0.2592
    133  O        -24.4730   -6.3000  -11.9160 O.2   268  ALA268     -0.2718
    134  CB       -23.7680   -3.4500  -11.1740 C.3   268  ALA268      0.0304
    135  N        -23.4280   -5.6610  -13.7810 N.am  269  SER269     -0.1952
    136  CA       -24.1840   -6.5940  -14.6360 C.3   269  SER269      0.1924
    137  C        -23.3720   -7.8250  -15.0820 C.2   269  SER269      0.2314
    138  O        -23.8270   -8.6200  -15.9020 O.2   269  SER269     -0.2863
    139  CB       -24.7220   -5.8470  -15.8670 C.3   269  SER269      0.2116
    140  OG       -23.7160   -4.9890  -16.4270 O.3   269  SER269     -0.2180
@<TRIPOS>BOND
     1   109   107   am
     2   106   107    1
     3   106   103    1
     4   107   108    2
     5   102   103    1
     6   103   104    1
     7    63    64    1
     8    64    65    1
     9    64    67    1
    10    65    66    2
    11   104   105    2
    12   104   110   am
    13    34    32   ar
    14    34    33   ar
    15    32    30   ar
    16    67    68    1
    17    33    31   ar
    18   110   111    1
    19    30    31   ar
    20    30    29    1
    21    21    20    2
    22    26    29    1
    23    26    27    1
    24    26    25    1
    25    68    70   ar
    26    68    69   ar
    27    70    72   ar
    28    27    28    2
    29   111   112    1
    30   111   114    1
    31    20    25   am
    32    20    19    1
    33    69    71   ar
    34    72    71   ar
    35    73    74    1
    36    46    48   ar
    37    46    45   ar
    38   112   113    2
    39   112   116   am
    40    48    49   ar
    41    18    19    1
    42   114   115    1
    43   116   117    1
    44    45    44    1
    45    45    47   ar
    46    19    22    1
    47    49    47   ar
    48    44    41    1
    49   117   120    1
    50   117   118    1
    51    75    74    1
    52    75    76    2
    53    74    77    1
    54   120   121    1
    55    24    22    1
    56    22    23    1
    57    41    42    1
    58    41    40    1
    59    77    78    1
    60   118   119    2
    61   118   122   am
    62    42    43    2
    63    35    36    1
    64    40    37   am
    65   140   139    1
    66   138   137    2
    67   139   136    1
    68   122   123    1
    69    78    79    1
    70    37    36    1
    71    37    38    2
    72    36    39    1
    73   137   136    1
    74   124   123    1
    75   124   125    2
    76    94    93    1
    77   136   135    1
    78   123   126    1
    79   129   127   am
    80    79    80   ar
    81    79    81   ar
    82   135   132   am
    83   127   126    1
    84   127   128    2
    85    93    95    1
    86    93    90    1
    87    92    91    2
    88    61    60    1
    89    91    90    1
    90    16    15    1
    91    17    15    1
    92   132   133    2
    93   132   131    1
    94    90    89    1
    95   130   131    1
    96    62    60    1
    97    14    13    2
    98    89    84   am
    99    60    57    1
   100    15    12    1
   101    87    86    1
   102    82    83    1
   103    50    51    1
   104   131   134    1
   105    12    13    1
   106    12    11    1
   107    84    83    1
   108    84    85    2
   109    10     9    2
   110    83    86    1
   111    86    88    1
   112    57    58    1
   113    57    56    1
   114    59    58    2
   115    11     9   am
   116    54    51    1
   117    54    55    1
   118    51    52    1
   119     9     8    1
   120    53    52    2
   121     6     5    1
   122     8     7    1
   123     1     2    1
   124     5     2    1
   125     4     3    2
   126   101   100    1
   127     2     3    1
   128    96    97    1
   129   100    97    1
   130    97    98    1
   131    99    98    2
