@<TRIPOS>MOLECULE
tmp/4mv3A00.pdb
 204 191 0 0 0
SMALL
GASTEIGER

@<TRIPOS>ATOM
      1  N         60.5380  -73.6230   16.8960 N.3   116  LYS116     -0.1245
      2  CA        61.7000  -73.9530   17.7120 C.3   116  LYS116      0.1561
      3  C         61.7340  -73.1790   19.0180 C.2   116  LYS116      0.2260
      4  O         62.1340  -73.7190   20.0370 O.2   116  LYS116     -0.2867
      5  CB        63.0010  -73.7390   16.9350 C.3   116  LYS116      0.0271
      6  CG        63.4420  -74.9620   16.1340 C.3   116  LYS116      0.0035
      7  CD        64.7720  -74.7100   15.4300 C.3   116  LYS116      0.0206
      8  CE        64.5930  -73.8050   14.2250 C.3   116  LYS116      0.1093
      9  NZ        65.7810  -72.9420   13.9740 N.3   116  LYS116     -0.1314
     10  N         69.8980  -76.7330   24.7010 N.3   131  VAL131     -0.1245
     11  CA        71.1340  -76.0290   24.4090 C.3   131  VAL131      0.1561
     12  C         71.0640  -74.6820   25.1160 C.2   131  VAL131      0.2260
     13  O         70.0720  -73.9780   24.9800 O.2   131  VAL131     -0.2867
     14  CB        71.3130  -75.7830   22.8880 C.3   131  VAL131      0.0252
     15  CG1       72.7050  -75.2190   22.5940 C.3   131  VAL131      0.0019
     16  CG2       71.0810  -77.0510   22.1010 C.3   131  VAL131      0.0019
     17  N         75.2530  -69.9230   17.5080 N.3   157  ILE157     -0.1245
     18  CA        74.5610  -70.0400   16.2440 C.3   157  ILE157      0.1561
     19  C         73.2250  -69.3180   16.3620 C.2   157  ILE157      0.2260
     20  O         72.4970  -69.4690   17.3540 O.2   157  ILE157     -0.2867
     21  CB        74.3720  -71.5200   15.8390 C.3   157  ILE157      0.0252
     22  CG1       73.6850  -71.6160   14.4750 C.3   157  ILE157      0.0019
     23  CG2       73.5910  -72.2610   16.9010 C.3   157  ILE157      0.0019
     24  CD1       73.7340  -73.0120   13.8780 C.3   157  ILE157      0.0001
     25  N         69.5280  -68.8540   14.8370 N.3   159  LYS159     -0.1245
     26  CA        68.5920  -69.7980   14.2280 C.3   159  LYS159      0.1561
     27  C         67.1840  -69.2140   14.1810 C.2   159  LYS159      0.2260
     28  O         66.6890  -68.7120   15.1830 O.2   159  LYS159     -0.2867
     29  CB        68.5570  -71.1010   15.0300 C.3   159  LYS159      0.0271
     30  CG        69.8900  -71.8130   15.1380 C.3   159  LYS159      0.0035
     31  CD        69.8310  -72.9450   16.1510 C.3   159  LYS159      0.0206
     32  CE        69.0860  -74.1570   15.6100 C.3   159  LYS159      0.1093
     33  NZ        69.0480  -75.2520   16.6160 N.3   159  LYS159     -0.1314
     34  N         70.2790  -71.0220    9.3790 N.3   163  MET163     -0.1245
     35  CA        71.1340  -70.8600   10.5490 C.3   163  MET163      0.1570
     36  C         72.4300  -70.1600   10.1450 C.2   163  MET163      0.2261
     37  O         72.8650  -70.2590    9.0000 O.2   163  MET163     -0.2867
     38  CB        71.4680  -72.2220   11.1630 C.3   163  MET163      0.0387
     39  CG        70.3180  -73.2230   11.1820 C.3   163  MET163      0.0595
     40  SD        70.8370  -74.8700   11.7200 S.3   163  MET163     -0.1393
     41  CE        72.0890  -75.2710   10.4960 C.3   163  MET163      0.0692
     42  N         71.8370  -69.7450   20.3080 N.3   195  GLU195     -0.1231
     43  CA        72.1780  -70.7600   21.2990 C.3   195  GLU195      0.1699
     44  C         73.6220  -71.1800   21.0840 C.2   195  GLU195      0.2592
     45  O         74.2560  -70.7260   20.1410 O.2   195  GLU195     -0.2718
     46  CB        71.2320  -71.9570   21.2110 C.3   195  GLU195      0.0402
     47  CG        71.4010  -72.8210   19.9860 C.3   195  GLU195      0.1161
     48  CD        70.3050  -73.8900   19.8590 C.2   195  GLU195      0.3649
     49  OE1       69.3350  -73.8500   20.6430 O.co2 195  GLU195     -0.2457
     50  OE2       70.4180  -74.7600   18.9720 O.co2 195  GLU195     -0.2457
     51  N         74.1440  -72.0260   21.9640 N.am  196  LYS196     -0.1966
     52  CA        75.5320  -72.4570   21.8640 C.3   196  LYS196      0.1728
     53  C         75.6920  -73.3320   20.6200 C.2   196  LYS196      0.2616
     54  O         74.8440  -74.1780   20.3330 O.2   196  LYS196     -0.2715
     55  CB        75.9410  -73.2230   23.1260 C.3   196  LYS196      0.0311
     56  CG        77.4330  -73.5050   23.2570 C.3   196  LYS196      0.0038
     57  CD        78.2050  -72.2510   23.6440 C.3   196  LYS196      0.0206
     58  CE        79.7100  -72.4940   23.6970 C.3   196  LYS196      0.1093
     59  NZ        80.2810  -72.8010   22.3550 N.3   196  LYS196     -0.1314
     60  N         76.7650  -73.1090   19.8660 N.am  197  TYR197     -0.1960
     61  CA        77.0840  -73.9850   18.7500 C.3   197  TYR197      0.1771
     62  C         77.9790  -75.1060   19.2550 C.2   197  TYR197      0.2619
     63  O         79.1100  -74.8750   19.6750 O.2   197  TYR197     -0.2715
     64  CB        77.7750  -73.2200   17.6210 C.3   197  TYR197      0.0574
     65  CG        78.0750  -74.0790   16.4170 C.ar  197  TYR197     -0.0198
     66  CD1       77.0510  -74.6180   15.6560 C.ar  197  TYR197     -0.0009
     67  CD2       79.3840  -74.3560   16.0450 C.ar  197  TYR197     -0.0009
     68  CE1       77.3200  -75.4180   14.5520 C.ar  197  TYR197      0.0417
     69  CE2       79.6660  -75.1540   14.9400 C.ar  197  TYR197      0.0417
     70  CZ        78.6290  -75.6800   14.2000 C.ar  197  TYR197      0.1957
     71  OH        78.9060  -76.4700   13.1080 O.3   197  TYR197     -0.2866
     72  N         77.4570  -76.3270   19.2320 N.am  198  LEU198     -0.1977
     73  CA        78.2060  -77.4990   19.6530 C.3   198  LEU198      0.1596
     74  C         78.9960  -78.0130   18.4620 C.2   198  LEU198      0.2287
     75  O         78.4280  -78.3630   17.4380 O.2   198  LEU198     -0.2864
     76  CB        77.2490  -78.5780   20.1730 C.3   198  LEU198      0.0297
     77  CG        76.3650  -78.1860   21.3650 C.3   198  LEU198      0.0022
     78  CD1       75.5310  -79.3610   21.8140 C.3   198  LEU198      0.0001
     79  CD2       77.1860  -77.6560   22.5370 C.3   198  LEU198      0.0001
     80  N         79.3410  -82.7950   18.2610 N.3   201  PRO201     -0.2116
     81  CA        78.3280  -83.6400   18.8960 C.3   201  PRO201      0.1372
     82  C         77.9620  -84.8900   18.1030 C.2   201  PRO201      0.2244
     83  O         78.2470  -85.0050   16.9140 O.2   201  PRO201     -0.2868
     84  CB        77.1070  -82.7330   18.8990 C.3   201  PRO201      0.0268
     85  CG        77.2110  -82.0480   17.5700 C.3   201  PRO201      0.0207
     86  CD        78.7130  -81.8500   17.3180 C.3   201  PRO201      0.0892
     87  N         74.4330  -87.3330   17.2440 N.3   203  HIS203     -0.1241
     88  CA        72.9910  -87.2370   17.1510 C.3   203  HIS203      0.1621
     89  C         72.4130  -88.4420   17.8820 C.2   203  HIS203      0.2264
     90  O         72.5210  -89.5840   17.4210 O.2   203  HIS203     -0.2867
     91  CB        72.5380  -87.2400   15.6950 C.3   203  HIS203      0.0745
     92  CG        71.0510  -87.2650   15.5270 C.ar  203  HIS203      0.0817
     93  ND1       70.3640  -86.2770   14.8580 N.ar  203  HIS203     -0.2268
     94  CD2       70.1110  -88.1410   15.9630 C.ar  203  HIS203      0.1154
     95  CE1       69.0690  -86.5480   14.8740 C.ar  203  HIS203      0.1986
     96  NE2       68.8890  -87.6850   15.5220 N.ar  203  HIS203     -0.2212
     97  N         75.8870  -89.2310    8.9260 N.3   227  GLN227     -0.1245
     98  CA        75.0860  -88.3820    8.0540 C.3   227  GLN227      0.1566
     99  C         75.9410  -87.7160    6.9820 C.2   227  GLN227      0.2260
    100  O         77.1260  -87.4490    7.1860 O.2   227  GLN227     -0.2867
    101  CB        74.4530  -87.2480    8.8690 C.3   227  GLN227      0.0367
    102  CG        73.5070  -87.6630    9.9570 C.3   227  GLN227      0.0905
    103  CD        73.0570  -86.4680   10.7890 C.2   227  GLN227      0.2608
    104  OE1       73.2770  -85.3160   10.4040 O.2   227  GLN227     -0.2717
    105  NE2       72.4280  -86.7360   11.9280 N.am  227  GLN227     -0.0878
    106  N         73.4140  -83.4740    6.2350 N.3   230  HIS230     -0.1241
    107  CA        72.2580  -83.5630    7.1240 C.3   230  HIS230      0.1621
    108  C         71.2880  -84.7110    6.7990 C.2   230  HIS230      0.2264
    109  O         70.2350  -84.8190    7.4210 O.2   230  HIS230     -0.2867
    110  CB        71.5160  -82.2250    7.1630 C.3   230  HIS230      0.0745
    111  CG        72.3860  -81.0750    7.5670 C.ar  230  HIS230      0.0817
    112  ND1       72.5650  -80.7030    8.8820 N.ar  230  HIS230     -0.2268
    113  CD2       73.1450  -80.2280    6.8300 C.ar  230  HIS230      0.1154
    114  CE1       73.3890  -79.6720    8.9380 C.ar  230  HIS230      0.1986
    115  NE2       73.7560  -79.3650    7.7070 N.ar  230  HIS230     -0.2212
    116  N         70.5800  -88.6890    6.9310 N.3   232  LYS232     -0.1245
    117  CA        71.0220  -89.9000    7.6360 C.3   232  LYS232      0.1561
    118  C         71.3550  -91.0320    6.6490 C.2   232  LYS232      0.2260
    119  O         70.6970  -91.1840    5.6220 O.2   232  LYS232     -0.2867
    120  CB        69.9580  -90.3450    8.6430 C.3   232  LYS232      0.0271
    121  CG        69.8060  -89.4480    9.8710 C.3   232  LYS232      0.0035
    122  CD        68.5050  -89.7440   10.6050 C.3   232  LYS232      0.0206
    123  CE        68.2660  -88.7690   11.7440 C.3   232  LYS232      0.1093
    124  NZ        66.8700  -88.8070   12.2600 N.3   232  LYS232     -0.1314
    125  N         64.9550  -85.5510   19.4180 N.3   270  GLU270     -0.1245
    126  CA        66.3540  -85.4590   18.9830 C.3   270  GLU270      0.1567
    127  C         67.2260  -84.6020   19.8820 C.2   270  GLU270      0.2260
    128  O         66.8700  -83.4710   20.2330 O.2   270  GLU270     -0.2867
    129  CB        66.4630  -84.8590   17.5890 C.3   270  GLU270      0.0388
    130  CG        65.8260  -85.6260   16.4770 C.3   270  GLU270      0.1160
    131  CD        66.0000  -84.8970   15.1490 C.2   270  GLU270      0.3649
    132  OE1       66.6040  -83.7970   15.1410 O.co2 270  GLU270     -0.2457
    133  OE2       65.5450  -85.4270   14.1230 O.co2 270  GLU270     -0.2457
    134  N         71.4480  -83.2480   20.4740 N.3   272  LEU272     -0.1245
    135  CA        72.8730  -83.2530   20.2850 C.3   272  LEU272      0.1561
    136  C         73.4720  -83.6970   21.6170 C.2   272  LEU272      0.2260
    137  O         73.0970  -83.2040   22.6850 O.2   272  LEU272     -0.2867
    138  CB        73.3580  -81.8720   19.8570 C.3   272  LEU272      0.0270
    139  CG        72.7860  -81.4230   18.5060 C.3   272  LEU272      0.0019
    140  CD1       73.2520  -80.0070   18.1550 C.3   272  LEU272      0.0001
    141  CD2       73.1410  -82.4030   17.3980 C.3   272  LEU272      0.0001
    142  N         67.2850  -80.5380   20.4400 N.3   281  ILE281     -0.1231
    143  CA        67.2060  -79.7150   19.2390 C.3   281  ILE281      0.1692
    144  C         65.8540  -79.7830   18.5300 C.2   281  ILE281      0.2591
    145  O         65.4010  -78.7800   17.9900 O.2   281  ILE281     -0.2718
    146  CB        68.3480  -79.9890   18.2370 C.3   281  ILE281      0.0266
    147  CG1       68.4840  -81.4810   17.9420 C.3   281  ILE281      0.0019
    148  CG2       69.6520  -79.3840   18.7660 C.3   281  ILE281      0.0020
    149  CD1       69.2670  -81.7680   16.6670 C.3   281  ILE281      0.0001
    150  N         65.1800  -80.9260   18.5480 N.am  282  GLU282     -0.1979
    151  CA        63.8850  -80.9990   17.8700 C.3   282  GLU282      0.1602
    152  C         63.0640  -82.1910   18.3180 C.2   282  GLU282      0.2287
    153  O         63.6220  -83.2190   18.6580 O.2   282  GLU282     -0.2864
    154  CB        64.0730  -81.0970   16.3480 C.3   282  GLU282      0.0415
    155  CG        62.7420  -81.1600   15.5890 C.3   282  GLU282      0.1163
    156  CD        62.8270  -80.6720   14.1540 C.2   282  GLU282      0.3649
    157  OE1       63.9550  -80.5150   13.6380 O.co2 282  GLU282     -0.2457
    158  OE2       61.7590  -80.4360   13.5440 O.co2 282  GLU282     -0.2457
    159  N         60.4480  -84.7680   16.5590 N.3   284  ASN284     -0.1240
    160  CA        59.7550  -85.2270   15.3650 C.3   284  ASN284      0.1653
    161  C         58.4420  -85.8310   15.7970 C.2   284  ASN284      0.2266
    162  O         58.4080  -86.7890   16.5660 O.2   284  ASN284     -0.2867
    163  CB        60.5800  -86.2640   14.6000 C.3   284  ASN284      0.1155
    164  CG        61.9500  -85.7510   14.2160 C.2   284  ASN284      0.2627
    165  OD1       62.9560  -86.4240   14.4340 O.2   284  ASN284     -0.2716
    166  ND2       61.9990  -84.5580   13.6480 N.am  284  ASN284     -0.0877
    167  N         56.0400  -87.7570   14.7640 N.3   286  ARG286     -0.1245
    168  CA        55.6530  -88.7420   13.7580 C.3   286  ARG286      0.1563
    169  C         56.5260  -89.9800   13.9320 C.2   286  ARG286      0.2260
    170  O         57.5240  -89.9450   14.6660 O.2   286  ARG286     -0.2867
    171  CB        55.9280  -88.1710   12.3700 C.3   286  ARG286      0.0307
    172  CG        57.3680  -87.6940   12.1940 C.3   286  ARG286      0.0489
    173  CD        57.6650  -87.3410   10.7480 C.3   286  ARG286      0.2205
    174  NE        58.9220  -86.6330   10.6230 N.pl3 286  ARG286     -0.0865
    175  CZ        60.1010  -87.2280   10.5820 C.cat 286  ARG286      0.5346
    176  NH1       60.1740  -88.5350   10.6580 N.pl3 286  ARG286      0.1354
    177  NH2       61.2120  -86.5150   10.4600 N.pl3 286  ARG286      0.1354
    178  N         59.4140  -92.4180   12.4400 N.3   288  GLN288     -0.1245
    179  CA        60.5980  -92.0810   11.6280 C.3   288  GLN288      0.1566
    180  C         61.1140  -93.2440   10.8240 C.2   288  GLN288      0.2260
    181  O         60.8040  -94.4020   11.1150 O.2   288  GLN288     -0.2867
    182  CB        61.7180  -91.5470   12.5040 C.3   288  GLN288      0.0367
    183  CG        61.3820  -90.2150   13.1580 C.3   288  GLN288      0.0905
    184  CD        62.5870  -89.5620   13.7320 C.2   288  GLN288      0.2608
    185  OE1       62.8090  -89.6010   14.9260 O.2   288  GLN288     -0.2717
    186  NE2       63.3970  -88.9620   12.8740 N.am  288  GLN288     -0.0878
    187  N         78.7330  -86.2420   14.2940 N.3   431  ILE431     -0.1231
    188  CA        77.8840  -85.9910   13.1360 C.3   431  ILE431      0.1692
    189  C         78.6570  -85.4790   11.9160 C.2   431  ILE431      0.2592
    190  O         78.1090  -85.4180   10.8050 O.2   431  ILE431     -0.2718
    191  CB        76.7730  -84.9470   13.4640 C.3   431  ILE431      0.0266
    192  CG1       77.3680  -83.5820   13.7700 C.3   431  ILE431      0.0019
    193  CG2       75.9200  -85.4210   14.6320 C.3   431  ILE431      0.0020
    194  CD1       76.3210  -82.5210   13.9710 C.3   431  ILE431      0.0001
    195  N         79.9140  -85.1200   12.1250 N.am  432  HIS432     -0.1976
    196  CA        80.7520  -84.5940   11.0530 C.3   432  HIS432      0.1656
    197  C         81.6250  -85.6580   10.4170 C.2   432  HIS432      0.2291
    198  O         82.3310  -85.3810    9.4380 O.2   432  HIS432     -0.2864
    199  CB        81.6390  -83.4880   11.6040 C.3   432  HIS432      0.0771
    200  CG        80.8660  -82.3520   12.1760 C.ar  432  HIS432      0.0820
    201  ND1       79.9100  -81.6750   11.4500 N.ar  432  HIS432     -0.2267
    202  CD2       80.8710  -81.7940   13.4070 C.ar  432  HIS432      0.1154
    203  CE1       79.3830  -80.7280   12.2030 C.ar  432  HIS432      0.1986
    204  NE2       79.9410  -80.7850   13.3970 N.ar  432  HIS432     -0.2212
@<TRIPOS>BOND
     1   119   118    2
     2   106   107    1
     3   118   117    1
     4   108   107    1
     5   108   109    2
     6   113   111   ar
     7   113   115   ar
     8   116   117    1
     9    99   100    2
    10    99    98    1
    11   107   110    1
    12   110   111    1
    13   111   112   ar
    14   117   120    1
    15   115   114   ar
    16    98   101    1
    17    98    97    1
    18   120   121    1
    19   101   102    1
    20   112   114   ar
    21    37    36    2
    22    34    35    1
    23   198   197    2
    24   121   122    1
    25   102   103    1
    26    36    35    1
    27   104   103    2
    28   197   196    1
    29   177   175    1
    30    41    40    1
    31    35    38    1
    32   175   174    2
    33   175   176    1
    34   122   123    1
    35   174   173    1
    36   173   172    1
    37   103   105   am
    38   190   189    2
    39   180   181    2
    40   180   179    1
    41   196   199    1
    42   196   195    1
    43    38    39    1
    44    39    40    1
    45   201   200   ar
    46   201   203   ar
    47   199   200    1
    48   179   178    1
    49   179   182    1
    50   123   124    1
    51   189   195   am
    52   189   188    1
    53   200   202   ar
    54   172   171    1
    55   203   204   ar
    56   171   168    1
    57   182   183    1
    58   186   184   am
    59    71    70    1
    60   188   191    1
    61   188   187    1
    62   183   184    1
    63   204   202   ar
    64   191   192    1
    65   191   193    1
    66   158   156   ar
    67   157   156   ar
    68   166   164   am
    69   184   185    2
    70   168   169    1
    71   168   167    1
    72   192   194    1
    73    24    22    1
    74   169   170    2
    75     9     8    1
    76   133   131   ar
    77   156   155    1
    78    27    26    1
    79    27    28    2
    80    70    68   ar
    81    70    69   ar
    82   164   165    2
    83   164   163    1
    84     8     7    1
    85    26    25    1
    86    26    29    1
    87    22    21    1
    88    68    66   ar
    89   163   160    1
    90    93    95   ar
    91    93    92   ar
    92    95    96   ar
    93    69    67   ar
    94    29    30    1
    95    30    31    1
    96   132   131   ar
    97   131   130    1
    98   160   161    1
    99   160   159    1
   100     7     6    1
   101    96    94   ar
   102    92    91    1
   103    92    94   ar
   104   155   154    1
   105    32    31    1
   106    32    33    1
   107    66    65   ar
   108    91    88    1
   109   161   162    2
   110    21    18    1
   111    21    23    1
   112    67    65   ar
   113     6     5    1
   114    18    19    1
   115    18    17    1
   116   154   151    1
   117    19    20    2
   118    65    64    1
   119   130   129    1
   120   149   147    1
   121     1     2    1
   122    83    82    2
   123     5     2    1
   124    88    87    1
   125    88    89    1
   126    86    85    1
   127    86    80    1
   128   141   139    1
   129    90    89    2
   130    75    74    2
   131    85    84    1
   132   129   126    1
   133    64    61    1
   134     2     3    1
   135   151   152    1
   136   151   150    1
   137   147   146    1
   138   145   144    2
   139    82    81    1
   140   140   139    1
   141   146   148    1
   142   146   143    1
   143    80    81    1
   144   152   153    2
   145    74    73    1
   146   139   138    1
   147   144   150   am
   148   144   143    1
   149    61    62    1
   150    61    60    1
   151    81    84    1
   152    50    48   ar
   153   126   125    1
   154   126   127    1
   155     3     4    2
   156    72    62   am
   157    72    73    1
   158   143   142    1
   159    62    63    2
   160    73    76    1
   161   138   135    1
   162    48    47    1
   163    48    49   ar
   164    60    53   am
   165   127   128    2
   166    47    46    1
   167    45    44    2
   168    76    77    1
   169   135   134    1
   170   135   136    1
   171    42    43    1
   172    54    53    2
   173    53    52    1
   174    44    43    1
   175    44    51   am
   176    46    43    1
   177    77    78    1
   178    77    79    1
   179   136   137    2
   180    52    51    1
   181    52    55    1
   182    16    14    1
   183    59    58    1
   184    15    14    1
   185    14    11    1
   186    55    56    1
   187    56    57    1
   188    57    58    1
   189    11    10    1
   190    11    12    1
   191    13    12    2
