@<TRIPOS>MOLECULE
tmp/4mv5A00.pdb
 134 126 0 0 0
SMALL
GASTEIGER

@<TRIPOS>ATOM
      1  N        -25.2490   -6.4990   -8.7400 N.3    12  CYS12      -0.1235
      2  CA       -26.0380   -5.7920   -7.7550 C.3    12  CYS12       0.1677
      3  C        -27.3780   -6.4830   -7.5170 C.2    12  CYS12       0.2270
      4  O        -27.7230   -7.4650   -8.1920 O.2    12  CYS12      -0.2867
      5  CB       -26.2650   -4.3750   -8.2690 C.3    12  CYS12       0.0956
      6  SG       -27.2720   -4.2900   -9.7730 S.3    12  CYS12      -0.0801
      7  N        -30.4390   -5.1480   -8.0810 N.3    14  GLY14      -0.1210
      8  CA       -31.3470   -4.8820   -9.1970 C.3    14  GLY14       0.1956
      9  C        -31.1290   -5.8360  -10.3550 C.2    14  GLY14       0.2611
     10  O        -32.0850   -6.3410  -10.9680 O.2    14  GLY14      -0.2717
     11  N        -29.8650   -6.1070  -10.6500 N.am   15  VAL15      -0.1979
     12  CA       -29.5520   -6.9850  -11.7770 C.3    15  VAL15       0.1595
     13  C        -29.9620   -8.4220  -11.4730 C.2    15  VAL15       0.2287
     14  O        -30.5680   -9.1070  -12.3140 O.2    15  VAL15      -0.2864
     15  CB       -28.0820   -6.8990  -12.1200 C.3    15  VAL15       0.0276
     16  CG1      -27.6350   -8.1310  -12.9020 C.3    15  VAL15       0.0022
     17  CG2      -27.8370   -5.5900  -12.8580 C.3    15  VAL15       0.0022
     18  N        -30.4400   -6.3140  -18.8930 N.3    40  VAL40      -0.1231
     19  CA       -29.3390   -5.6040  -18.2920 C.3    40  VAL40       0.1692
     20  C        -28.2950   -5.4590  -19.3990 C.2    40  VAL40       0.2592
     21  O        -28.3520   -6.1650  -20.3980 O.2    40  VAL40      -0.2718
     22  CB       -28.7110   -6.3760  -17.0770 C.3    40  VAL40       0.0266
     23  CG1      -29.7710   -6.6340  -15.9970 C.3    40  VAL40       0.0020
     24  CG2      -28.0320   -7.6760  -17.5010 C.3    40  VAL40       0.0020
     25  N        -27.3100   -4.5980  -19.2200 N.am   41  HIS41      -0.1976
     26  CA       -26.3360   -4.3650  -20.3010 C.3    41  HIS41       0.1656
     27  C        -25.1430   -5.2980  -20.1930 C.2    41  HIS41       0.2291
     28  O        -24.0380   -4.8790  -19.8570 O.2    41  HIS41      -0.2864
     29  CB       -25.8580   -2.9170  -20.2450 C.3    41  HIS41       0.0771
     30  CG       -26.8740   -1.9260  -20.7130 C.ar   41  HIS41       0.0820
     31  ND1      -26.9150   -0.6300  -20.2380 N.ar   41  HIS41      -0.2267
     32  CD2      -27.8650   -2.0280  -21.6290 C.ar   41  HIS41       0.1154
     33  CE1      -27.8820    0.0250  -20.8490 C.ar   41  HIS41       0.1986
     34  NE2      -28.4750   -0.8000  -21.6910 N.ar   41  HIS41      -0.2212
     35  N        -34.3560   -3.6560  -16.6210 N.3    73  ALA73      -0.1231
     36  CA       -33.9730   -3.1250  -15.3280 C.3    73  ALA73       0.1694
     37  C        -33.8690   -1.6050  -15.3610 C.2    73  ALA73       0.2592
     38  O        -34.0230   -0.9670  -14.3340 O.2    73  ALA73      -0.2718
     39  CB       -32.6460   -3.7290  -14.8940 C.3    73  ALA73       0.0304
     40  N        -33.6530   -1.0410  -16.5440 N.am   74  HIS74      -0.1976
     41  CA       -33.4210    0.4120  -16.7170 C.3    74  HIS74       0.1656
     42  C        -34.6860    1.2440  -16.6440 C.2    74  HIS74       0.2291
     43  O        -34.5990    2.4510  -16.5180 O.2    74  HIS74      -0.2864
     44  CB       -32.6900    0.6940  -18.0450 C.3    74  HIS74       0.0771
     45  CG       -31.5030   -0.1930  -18.2340 C.ar   74  HIS74       0.0820
     46  ND1      -31.5740   -1.3640  -18.9450 N.ar   74  HIS74      -0.2267
     47  CD2      -30.2680   -0.1580  -17.6880 C.ar   74  HIS74       0.1154
     48  CE1      -30.4090   -1.9850  -18.8880 C.ar   74  HIS74       0.1986
     49  NE2      -29.5980   -1.2700  -18.1330 N.ar   74  HIS74      -0.2212
     50  N        -35.4710   -1.6670  -11.8050 N.3    96  CYS96      -0.1235
     51  CA       -34.9200   -1.6640  -10.4440 C.3    96  CYS96       0.1677
     52  C        -35.6400   -0.7880   -9.4240 C.2    96  CYS96       0.2270
     53  O        -35.9050    0.3730   -9.6770 O.2    96  CYS96      -0.2867
     54  CB       -33.4370   -1.2800  -10.4850 C.3    96  CYS96       0.0956
     55  SG       -32.5830   -1.3130   -8.8710 S.3    96  CYS96      -0.0801
     56  N        -34.4330    2.7000   -9.3610 N.3    99  VAL99      -0.1245
     57  CA       -34.8460    3.5510  -10.4780 C.3    99  VAL99       0.1561
     58  C        -36.2760    4.0130  -10.2700 C.2    99  VAL99       0.2260
     59  O        -36.6060    5.2090  -10.4540 O.2    99  VAL99      -0.2867
     60  CB       -34.7050    2.7890  -11.8260 C.3    99  VAL99       0.0252
     61  CG1      -35.2430    3.5950  -13.0000 C.3    99  VAL99       0.0019
     62  CG2      -33.2490    2.4880  -12.0740 C.3    99  VAL99       0.0019
     63  N        -29.2740    7.3630  -23.0390 N.3   124  HIS124     -0.1241
     64  CA       -29.2870    6.2000  -22.1730 C.3   124  HIS124      0.1621
     65  C        -30.7450    5.8400  -21.8320 C.2   124  HIS124      0.2264
     66  O        -31.5390    6.7490  -21.5750 O.2   124  HIS124     -0.2867
     67  CB       -28.4950    6.4970  -20.8920 C.3   124  HIS124      0.0745
     68  CG       -28.1940    5.2870  -20.0740 C.ar  124  HIS124      0.0817
     69  ND1      -29.1600    4.6170  -19.3510 N.ar  124  HIS124     -0.2268
     70  CD2      -27.0340    4.6260  -19.8510 C.ar  124  HIS124      0.1154
     71  CE1      -28.6090    3.6020  -18.7170 C.ar  124  HIS124      0.1986
     72  NE2      -27.3220    3.5760  -19.0190 N.ar  124  HIS124     -0.2212
     73  N        -32.2450    4.5100  -19.1660 N.3   126  GLU126     -0.1245
     74  CA       -32.6780    5.0260  -17.8660 C.3   126  GLU126      0.1567
     75  C        -33.1390    6.4820  -17.9640 C.2   126  GLU126      0.2260
     76  O        -34.1740    6.8440  -17.4030 O.2   126  GLU126     -0.2867
     77  CB       -31.5670    4.9110  -16.8140 C.3   126  GLU126      0.0388
     78  CG       -32.0470    5.2970  -15.4100 C.3   126  GLU126      0.1160
     79  CD       -30.9140    5.4420  -14.3890 C.2   126  GLU126      0.3649
     80  OE1      -31.1610    5.9920  -13.3000 O.co2 126  GLU126     -0.2457
     81  OE2      -29.7780    5.0180  -14.6820 O.co2 126  GLU126     -0.2457
     82  N        -28.6440    6.6430  -11.8750 N.3   167  THR167     -0.1203
     83  CA       -28.1580    5.7870  -10.7700 C.3   167  THR167      0.1994
     84  C        -26.7060    5.3380  -10.9100 C.2   167  THR167      0.2618
     85  O        -26.1130    4.9060   -9.9260 O.2   167  THR167     -0.2717
     86  CB       -28.9980    4.5050  -10.6300 C.3   167  THR167      0.1784
     87  OG1      -29.0110    3.7790  -11.8770 O.3   167  THR167     -0.2211
     88  CG2      -30.4300    4.8160  -10.2050 C.3   167  THR167      0.0376
     89  N        -26.1220    5.4910  -12.1030 N.am  168  THR168     -0.1952
     90  CA       -24.8520    4.8620  -12.4410 C.3   168  THR168      0.1897
     91  C        -23.7600    5.8440  -12.8460 C.2   168  THR168      0.2313
     92  O        -22.7780    5.4520  -13.4770 O.2   168  THR168     -0.2863
     93  CB       -25.0310    3.8760  -13.6150 C.3   168  THR168      0.1794
     94  OG1      -25.6830    4.5700  -14.6990 O.3   168  THR168     -0.2208
     95  CG2      -25.8460    2.6930  -13.1750 C.3   168  THR168      0.0378
     96  N        -21.6880   -1.1870  -23.6160 N.3   224  ASN224     -0.1225
     97  CA       -22.8500   -0.3590  -23.3770 C.3   224  ASN224      0.1785
     98  C        -23.2790   -0.3400  -21.8930 C.2   224  ASN224      0.2598
     99  O        -24.3760    0.0850  -21.5830 O.2   224  ASN224     -0.2718
    100  CB       -24.0060   -0.7740  -24.2870 C.3   224  ASN224      0.1169
    101  CG       -24.5710   -2.1470  -23.9570 C.2   224  ASN224      0.2627
    102  OD1      -23.9060   -2.9920  -23.3770 O.2   224  ASN224     -0.2716
    103  ND2      -25.8030   -2.3700  -24.3430 N.am  224  ASN224     -0.0877
    104  N        -22.4240   -0.8300  -20.9960 N.am  225  SER225     -0.1938
    105  CA       -22.6890   -0.7280  -19.5540 C.3   225  SER225      0.2055
    106  C        -22.0950    0.5730  -19.0380 C.2   225  SER225      0.2644
    107  O        -20.8790    0.7260  -18.9700 O.2   225  SER225     -0.2714
    108  CB       -22.1070   -1.9080  -18.7850 C.3   225  SER225      0.2130
    109  OG       -22.2590   -1.7120  -17.3800 O.3   225  SER225     -0.2179
    110  N        -22.9660    1.5110  -18.6950 N.am  226  SER226     -0.1935
    111  CA       -22.5690    2.8190  -18.1810 C.3   226  SER226      0.2055
    112  C        -21.7280    2.6980  -16.9120 C.2   226  SER226      0.2643
    113  O        -20.6290    3.2720  -16.8060 O.2   226  SER226     -0.2714
    114  CB       -23.8260    3.6150  -17.8630 C.3   226  SER226      0.2130
    115  OG       -23.4980    4.9230  -17.4800 O.3   226  SER226     -0.2179
    116  N        -22.2490    1.9420  -15.9420 N.am  227  ASN227     -0.1971
    117  CA       -21.5470    1.7960  -14.6670 C.3   227  ASN227      0.1688
    118  C        -20.1420    1.1410  -14.8600 C.2   227  ASN227      0.2292
    119  O        -19.1490    1.5540  -14.2310 O.2   227  ASN227     -0.2864
    120  CB       -22.4270    1.0610  -13.6540 C.3   227  ASN227      0.1181
    121  CG       -22.4240   -0.4520  -13.8440 C.2   227  ASN227      0.2629
    122  OD1      -21.5610   -1.1620  -13.3280 O.2   227  ASN227     -0.2716
    123  ND2      -23.4190   -0.9520  -14.5510 N.am  227  ASN227     -0.0877
    124  N        -21.8810   -3.9320  -12.5150 N.3   268  ALA268     -0.1231
    125  CA       -23.0260   -4.4170  -11.7670 C.3   268  ALA268      0.1694
    126  C        -23.8160   -5.4680  -12.5670 C.2   268  ALA268      0.2592
    127  O        -24.5470   -6.2210  -11.9790 O.2   268  ALA268     -0.2718
    128  CB       -23.9260   -3.2590  -11.3690 C.3   268  ALA268      0.0304
    129  N        -23.6570   -5.5080  -13.9000 N.am  269  SER269     -0.1952
    130  CA       -24.3740   -6.4750  -14.7440 C.3   269  SER269      0.1924
    131  C        -23.5140   -7.6740  -15.2040 C.2   269  SER269      0.2314
    132  O        -23.9700   -8.4890  -16.0140 O.2   269  SER269     -0.2863
    133  CB       -25.0030   -5.7600  -15.9560 C.3   269  SER269      0.2116
    134  OG       -24.0140   -4.9760  -16.6290 O.3   269  SER269     -0.2180
@<TRIPOS>BOND
     1   103   101   am
     2   100   101    1
     3   100    97    1
     4   101   102    2
     5    96    97    1
     6    97    98    1
     7    63    64    1
     8    64    65    1
     9    64    67    1
    10    98    99    2
    11    98   104   am
    12    65    66    2
    13    34    32   ar
    14    34    33   ar
    15    32    30   ar
    16   104   105    1
    17    67    68    1
    18    33    31   ar
    19    30    29    1
    20    30    31   ar
    21    21    20    2
    22    26    29    1
    23    26    27    1
    24    26    25    1
    25    27    28    2
    26    68    70   ar
    27    68    69   ar
    28    70    72   ar
    29   105   106    1
    30   105   108    1
    31    20    25   am
    32    20    19    1
    33    69    71   ar
    34    73    74    1
    35   106   107    2
    36   106   110   am
    37    72    71   ar
    38    46    48   ar
    39    46    45   ar
    40    18    19    1
    41    48    49   ar
    42   108   109    1
    43   110   111    1
    44    19    22    1
    45    45    44    1
    46    45    47   ar
    47   111   114    1
    48   111   112    1
    49    49    47   ar
    50    44    41    1
    51    75    74    1
    52    75    76    2
    53    74    77    1
    54   114   115    1
    55    24    22    1
    56    22    23    1
    57   112   113    2
    58   112   116   am
    59    77    78    1
    60    41    42    1
    61    41    40    1
    62    42    43    2
    63   134   133    1
    64    35    36    1
    65    40    37   am
    66   132   131    2
    67   133   130    1
    68   116   117    1
    69    78    79    1
    70    37    36    1
    71    37    38    2
    72    36    39    1
    73   131   130    1
    74   118   117    1
    75   118   119    2
    76   130   129    1
    77    94    93    1
    78    81    79   ar
    79   117   120    1
    80   123   121   am
    81    79    80   ar
    82   129   126   am
    83   121   120    1
    84   121   122    2
    85    93    95    1
    86    93    90    1
    87    92    91    2
    88    61    60    1
    89    16    15    1
    90    17    15    1
    91    91    90    1
    92   126   127    2
    93   126   125    1
    94   124   125    1
    95    90    89    1
    96    14    13    2
    97    15    12    1
    98    89    84   am
    99    62    60    1
   100    87    86    1
   101    82    83    1
   102    60    57    1
   103    50    51    1
   104    12    13    1
   105    12    11    1
   106   125   128    1
   107    10     9    2
   108    84    83    1
   109    84    85    2
   110    83    86    1
   111    11     9   am
   112    86    88    1
   113    54    51    1
   114    54    55    1
   115    57    58    1
   116    57    56    1
   117    59    58    2
   118    51    52    1
   119     9     8    1
   120     6     5    1
   121    53    52    2
   122     8     7    1
   123     1     2    1
   124     5     2    1
   125     4     3    2
   126     2     3    1
