@<TRIPOS>MOLECULE
tmp/4mv6A00.pdb
 94 88 0 0 0
SMALL
GASTEIGER

@<TRIPOS>ATOM
      1  N         21.2620   -2.8050  -10.2820 N.3    82  TYR82      -0.1241
      2  CA        20.8080   -4.1710  -10.5330 C.3    82  TYR82       0.1605
      3  C         20.1570   -4.7260   -9.2760 C.2    82  TYR82       0.2264
      4  O         20.3530   -4.1930   -8.1860 O.2    82  TYR82      -0.2867
      5  CB        21.9540   -5.0700  -10.9980 C.3    82  TYR82       0.0534
      6  CG        23.1940   -5.1090  -10.1040 C.ar   82  TYR82      -0.0201
      7  CD1       23.1510   -5.6870   -8.8420 C.ar   82  TYR82      -0.0009
      8  CD2       24.4160   -4.6150  -10.5500 C.ar   82  TYR82      -0.0009
      9  CE1       24.2760   -5.7390   -8.0400 C.ar   82  TYR82       0.0417
     10  CE2       25.5510   -4.6720   -9.7570 C.ar   82  TYR82       0.0417
     11  CZ        25.4800   -5.2300   -8.5010 C.ar   82  TYR82       0.1957
     12  OH        26.6130   -5.2980   -7.6980 O.3    82  TYR82      -0.2866
     13  N         24.3910  -19.0230   -9.4650 N.3   205  GLN205     -0.1231
     14  CA        24.9190  -17.7340   -9.0330 C.3   205  GLN205      0.1698
     15  C         26.3410  -17.5830   -9.5630 C.2   205  GLN205      0.2592
     16  O         27.2140  -18.4000   -9.2550 O.2   205  GLN205     -0.2718
     17  CB        24.9010  -17.6510   -7.5050 C.3   205  GLN205      0.0381
     18  CG        25.6660  -16.4810   -6.9070 C.3   205  GLN205      0.0905
     19  CD        25.8250  -16.5920   -5.3940 C.2   205  GLN205      0.2608
     20  OE1       26.7140  -15.9730   -4.8080 O.2   205  GLN205     -0.2717
     21  NE2       24.9620  -17.3830   -4.7550 N.am  205  GLN205     -0.0878
     22  N         26.5670  -16.5440  -10.3640 N.am  206  LYS206     -0.1980
     23  CA        27.8630  -16.3430  -11.0110 C.3   206  LYS206      0.1596
     24  C         28.9630  -16.0360  -10.0020 C.2   206  LYS206      0.2287
     25  O         28.7330  -15.3460   -9.0150 O.2   206  LYS206     -0.2864
     26  CB        27.7730  -15.2040  -12.0310 C.3   206  LYS206      0.0298
     27  CG        26.8280  -15.4920  -13.1840 C.3   206  LYS206      0.0038
     28  CD        26.4760  -14.2240  -13.9480 C.3   206  LYS206      0.0206
     29  CE        25.5070  -14.5000  -15.0880 C.3   206  LYS206      0.1093
     30  NZ        24.8950  -13.2380  -15.6020 N.3   206  LYS206     -0.1314
     31  N         21.1070  -13.1060  -22.5130 N.3   244  GLU244     -0.1245
     32  CA        21.7980  -14.2660  -21.9600 C.3   244  GLU244      0.1567
     33  C         21.4530  -15.5020  -22.7710 C.2   244  GLU244      0.2260
     34  O         20.2830  -15.7340  -23.1130 O.2   244  GLU244     -0.2867
     35  CB        21.4210  -14.4750  -20.4890 C.3   244  GLU244      0.0388
     36  CG        21.9560  -13.3960  -19.5480 C.3   244  GLU244      0.1160
     37  CD        21.6580  -13.6750  -18.0840 C.2   244  GLU244      0.3649
     38  OE1       20.5500  -14.1580  -17.7810 O.co2 244  GLU244     -0.2457
     39  OE2       22.5290  -13.4080  -17.2300 O.co2 244  GLU244     -0.2457
     40  N         18.3110   -9.5120  -19.4450 N.3   258  ASN258     -0.1240
     41  CA        18.3880   -8.6690  -18.2700 C.3   258  ASN258      0.1653
     42  C         18.2390   -7.2420  -18.7440 C.2   258  ASN258      0.2266
     43  O         19.0800   -6.7400  -19.4830 O.2   258  ASN258     -0.2867
     44  CB        19.7300   -8.8550  -17.5660 C.3   258  ASN258      0.1155
     45  CG        20.1220  -10.3080  -17.4650 C.2   258  ASN258      0.2627
     46  OD1       21.0930  -10.7430  -18.0820 O.2   258  ASN258     -0.2716
     47  ND2       19.3510  -11.0760  -16.7060 N.am  258  ASN258     -0.0877
     48  N         18.6770   -4.1790  -17.7440 N.3   260  ARG260     -0.1245
     49  CA        19.3400   -3.4000  -16.7150 C.3   260  ARG260      0.1563
     50  C         20.8200   -3.6020  -16.9110 C.2   260  ARG260      0.2260
     51  O         21.2390   -4.4130  -17.7370 O.2   260  ARG260     -0.2867
     52  CB        18.9570   -3.9190  -15.3250 C.3   260  ARG260      0.0307
     53  CG        19.1850   -5.4170  -15.1620 C.3   260  ARG260      0.0489
     54  CD        19.1090   -5.8720  -13.7120 C.3   260  ARG260      0.2205
     55  NE        19.1310   -7.3270  -13.5990 N.pl3 260  ARG260     -0.0865
     56  CZ        20.2360   -8.0680  -13.5480 C.cat 260  ARG260      0.5346
     57  NH1       21.4370   -7.5070  -13.5900 N.pl3 260  ARG260      0.1354
     58  NH2       20.1350   -9.3850  -13.4530 N.pl3 260  ARG260      0.1354
     59  N         24.3330   -5.1140  -15.5800 N.3   262  GLN262     -0.1231
     60  CA        24.6560   -6.3300  -14.8420 C.3   262  GLN262      0.1698
     61  C         25.8930   -6.1570  -13.9750 C.2   262  GLN262      0.2592
     62  O         26.7370   -5.2940  -14.2200 O.2   262  GLN262     -0.2718
     63  CB        24.8830   -7.5010  -15.7890 C.3   262  GLN262      0.0381
     64  CG        23.6150   -8.1310  -16.3360 C.3   262  GLN262      0.0905
     65  CD        23.9430   -9.3200  -17.1890 C.2   262  GLN262      0.2608
     66  OE1       24.6590   -9.1930  -18.1760 O.2   262  GLN262     -0.2717
     67  NE2       23.4510  -10.4890  -16.8070 N.am  262  GLN262     -0.0878
     68  N         25.9930   -7.0010  -12.9620 N.am  263  VAL263     -0.1966
     69  CA        27.1430   -6.9940  -12.0650 C.3   263  VAL263      0.1727
     70  C         28.4420   -7.0130  -12.8500 C.2   263  VAL263      0.2616
     71  O         29.3590   -6.2520  -12.5650 O.2   263  VAL263     -0.2715
     72  CB        27.1130   -8.2340  -11.1330 C.3   263  VAL263      0.0290
     73  CG1       28.4040   -8.3500  -10.3190 C.3   263  VAL263      0.0023
     74  CG2       25.8950   -8.1910  -10.2230 C.3   263  VAL263      0.0023
     75  N         28.5040   -7.8700  -13.8620 N.am  264  GLU264     -0.1977
     76  CA        29.7620   -8.1790  -14.5170 C.3   264  GLU264      0.1602
     77  C         30.0870   -7.2450  -15.6850 C.2   264  GLU264      0.2287
     78  O         31.0160   -7.4880  -16.4540 O.2   264  GLU264     -0.2864
     79  CB        29.7730   -9.6620  -14.9440 C.3   264  GLU264      0.0415
     80  CG        28.7090  -10.0560  -15.9790 C.3   264  GLU264      0.1163
     81  CD        27.4130  -10.5840  -15.3620 C.2   264  GLU264      0.3649
     82  OE1       26.6900  -11.3230  -16.0590 O.co2 264  GLU264     -0.2457
     83  OE2       27.1000  -10.2570  -14.1970 O.co2 264  GLU264     -0.2457
     84  N         34.0960  -12.1980   -8.1970 N.3   306  ARG306     -0.1245
     85  CA        33.2170  -11.6070   -7.1970 C.3   306  ARG306      0.1563
     86  C         33.6880  -12.0100   -5.8140 C.2   306  ARG306      0.2260
     87  O         33.5920  -13.1730   -5.4340 O.2   306  ARG306     -0.2867
     88  CB        31.7810  -12.0920   -7.3890 C.3   306  ARG306      0.0307
     89  CG        31.1730  -11.7410   -8.7370 C.3   306  ARG306      0.0489
     90  CD        29.6930  -12.0380   -8.7090 C.3   306  ARG306      0.2205
     91  NE        29.0640  -11.9040  -10.0160 N.pl3 306  ARG306     -0.0865
     92  CZ        27.7500  -11.8550  -10.2000 C.cat 306  ARG306      0.5346
     93  NH1       26.9360  -11.9090   -9.1600 N.pl3 306  ARG306      0.1354
     94  NH2       27.2530  -11.7530  -11.4200 N.pl3 306  ARG306      0.1354
@<TRIPOS>BOND
     1    34    33    2
     2    33    32    1
     3    31    32    1
     4    32    35    1
     5    35    36    1
     6    36    37    1
     7    43    42    2
     8    40    41    1
     9    42    41    1
    10    41    44    1
    11    66    65    2
    12    37    38   ar
    13    37    39   ar
    14    46    45    2
    15    48    49    1
    16    51    50    2
    17    44    45    1
    18    45    47   am
    19    65    67   am
    20    65    64    1
    21    50    49    1
    22    49    52    1
    23    78    77    2
    24    64    63    1
    25    82    81   ar
    26    80    81    1
    27    80    79    1
    28    63    60    1
    29    77    76    1
    30    30    29    1
    31    59    60    1
    32    81    83   ar
    33    52    53    1
    34    53    54    1
    35    29    28    1
    36    79    76    1
    37    60    61    1
    38    76    75    1
    39    62    61    2
    40    61    68   am
    41    28    27    1
    42    75    70   am
    43    54    55    1
    44    55    56    2
    45    57    56    1
    46    56    58    1
    47    27    26    1
    48    68    69    1
    49    70    71    2
    50    70    69    1
    51    69    72    1
    52    26    23    1
    53    94    92    1
    54    72    73    1
    55    72    74    1
    56    23    22    1
    57    23    24    1
    58     5     2    1
    59     5     6    1
    60     8     6   ar
    61     8    10   ar
    62     2     1    1
    63     2     3    1
    64    22    15   am
    65    92    91    2
    66    92    93    1
    67     6     7   ar
    68    91    90    1
    69    24    25    2
    70    10    11   ar
    71    15    16    2
    72    15    14    1
    73    13    14    1
    74     3     4    2
    75    14    17    1
    76     7     9   ar
    77    89    90    1
    78    89    88    1
    79    11     9   ar
    80    11    12    1
    81    84    85    1
    82    17    18    1
    83    88    85    1
    84    85    86    1
    85    18    19    1
    86    86    87    2
    87    19    20    2
    88    19    21   am
