@<TRIPOS>MOLECULE
tmp/4mv7A00.pdb
 94 88 0 0 0
SMALL
GASTEIGER

@<TRIPOS>ATOM
      1  N        -72.9130  -17.0730    4.9760 N.3    82  TYR82      -0.1241
      2  CA       -71.9360  -16.0340    5.2560 C.3    82  TYR82       0.1605
      3  C        -71.7700  -15.1740    4.0100 C.2    82  TYR82       0.2264
      4  O        -72.0930  -15.6050    2.9070 O.2    82  TYR82      -0.2867
      5  CB       -70.6010  -16.6220    5.7010 C.3    82  TYR82       0.0534
      6  CG       -69.9490  -17.6600    4.7860 C.ar   82  TYR82      -0.0201
      7  CD1      -69.4600  -17.3160    3.5240 C.ar   82  TYR82      -0.0009
      8  CD2      -69.7710  -18.9670    5.2190 C.ar   82  TYR82      -0.0009
      9  CE1      -68.8530  -18.2560    2.7120 C.ar   82  TYR82       0.0417
     10  CE2      -69.1500  -19.9100    4.4370 C.ar   82  TYR82       0.0417
     11  CZ       -68.6840  -19.5610    3.1740 C.ar   82  TYR82       0.1957
     12  OH       -68.0770  -20.5300    2.3950 O.3    82  TYR82      -0.2866
     13  N        -57.4150  -11.6020    4.1320 N.3   207  GLN207     -0.1231
     14  CA       -58.2120  -12.7880    3.7780 C.3   207  GLN207      0.1698
     15  C        -57.5440  -14.0400    4.3300 C.2   207  GLN207      0.2592
     16  O        -56.3880  -14.3220    4.0110 O.2   207  GLN207     -0.2718
     17  CB       -58.3510  -12.9410    2.2640 C.3   207  GLN207      0.0381
     18  CG       -59.2040  -11.8600    1.6040 C.3   207  GLN207      0.0905
     19  CD       -60.6240  -11.8210    2.1570 C.2   207  GLN207      0.2608
     20  OE1      -61.2580  -12.8660    2.3520 O.2   207  GLN207     -0.2717
     21  NE2      -61.1290  -10.6170    2.4250 N.am  207  GLN207     -0.0878
     22  N        -58.2890  -14.8010    5.1260 N.am  208  LYS208     -0.1980
     23  CA       -57.7670  -16.0010    5.7800 C.3   208  LYS208      0.1596
     24  C        -57.5150  -17.1120    4.7710 C.2   208  LYS208      0.2287
     25  O        -58.2550  -17.2600    3.8110 O.2   208  LYS208     -0.2864
     26  CB       -58.7600  -16.4580    6.8550 C.3   208  LYS208      0.0298
     27  CG       -58.9760  -15.4320    7.9790 C.3   208  LYS208      0.0038
     28  CD       -60.2550  -15.7290    8.7460 C.3   208  LYS208      0.0206
     29  CE       -60.4840  -14.8330    9.9500 C.3   208  LYS208      0.1093
     30  NZ       -61.8590  -15.0780   10.5410 N.3   208  LYS208     -0.1314
     31  N        -63.9550  -11.7790   17.1340 N.3   246  GLU246     -0.1245
     32  CA       -62.5800  -11.7810   16.6350 C.3   246  GLU246      0.1567
     33  C        -61.7110  -10.8910   17.5030 C.2   246  GLU246      0.2260
     34  O        -62.0880   -9.7560   17.8320 O.2   246  GLU246     -0.2867
     35  CB       -62.5290  -11.3360   15.1650 C.3   246  GLU246      0.0388
     36  CG       -63.2460  -12.3110   14.1890 C.3   246  GLU246      0.1160
     37  CD       -63.0510  -11.9630   12.7050 C.2   246  GLU246      0.3649
     38  OE1      -62.7580  -10.7930   12.3900 O.co2 246  GLU246     -0.2457
     39  OE2      -63.1950  -12.8630   11.8380 O.co2 246  GLU246     -0.2457
     40  N        -68.5260  -11.0850   13.9910 N.3   260  ASN260     -0.1240
     41  CA       -69.2670  -11.5300   12.8270 C.3   260  ASN260      0.1653
     42  C        -70.5590  -12.1370   13.3300 C.2   260  ASN260      0.2266
     43  O        -70.5450  -13.0880   14.1030 O.2   260  ASN260     -0.2867
     44  CB       -68.4810  -12.5500   12.0120 C.3   260  ASN260      0.1155
     45  CG       -67.1830  -11.9940   11.4850 C.2   260  ASN260      0.2627
     46  OD1      -67.0540  -10.7970   11.2130 O.2   260  ASN260     -0.2716
     47  ND2      -66.2120  -12.8670   11.3220 N.am  260  ASN260     -0.0877
     48  N        -73.0370  -14.1030   12.3040 N.3   262  ARG262     -0.1245
     49  CA       -73.4230  -15.0720   11.2900 C.3   262  ARG262      0.1563
     50  C        -72.5370  -16.2670   11.5280 C.2   262  ARG262      0.2260
     51  O        -71.6530  -16.2200   12.3800 O.2   262  ARG262     -0.2867
     52  CB       -73.1200  -14.5390    9.8840 C.3   262  ARG262      0.0307
     53  CG       -71.6770  -14.0770    9.7390 C.3   262  ARG262      0.0489
     54  CD       -71.2430  -13.8540    8.2820 C.3   262  ARG262      0.2205
     55  NE       -70.0050  -13.0870    8.1900 N.pl3 262  ARG262     -0.0865
     56  CZ       -68.7920  -13.6390    8.2520 C.cat 262  ARG262      0.5346
     57  NH1      -68.6570  -14.9460    8.4060 N.pl3 262  ARG262      0.1354
     58  NH2      -67.7020  -12.8800    8.1750 N.pl3 262  ARG262      0.1354
     59  N        -69.4170  -18.6440   10.5690 N.3   264  GLN264     -0.1231
     60  CA       -68.0640  -18.3760   10.0740 C.3   264  GLN264      0.1698
     61  C        -67.6770  -19.3650    8.9670 C.2   264  GLN264      0.2592
     62  O        -68.0650  -20.5360    9.0170 O.2   264  GLN264     -0.2718
     63  CB       -67.0730  -18.5460   11.2410 C.3   264  GLN264      0.0381
     64  CG       -65.7510  -17.8270   11.0710 C.3   264  GLN264      0.0905
     65  CD       -65.8220  -16.3650   11.4940 C.2   264  GLN264      0.2608
     66  OE1      -66.8920  -15.7920   11.5690 O.2   264  GLN264     -0.2717
     67  NE2      -64.6620  -15.7560   11.7360 N.am  264  GLN264     -0.0878
     68  N        -66.9150  -18.9310    7.9710 N.am  265  VAL265     -0.1966
     69  CA       -66.3860  -19.8700    6.9600 C.3   265  VAL265      0.1727
     70  C        -65.6940  -21.0560    7.6310 C.2   265  VAL265      0.2616
     71  O        -65.9590  -22.2270    7.3120 O.2   265  VAL265     -0.2715
     72  CB       -65.3790  -19.1830    6.0020 C.3   265  VAL265      0.0290
     73  CG1      -64.7110  -20.1890    5.0760 C.3   265  VAL265      0.0023
     74  CG2      -66.0620  -18.0920    5.2180 C.3   265  VAL265      0.0023
     75  N        -64.8290  -20.7590    8.5990 N.am  266  GLU266     -0.1977
     76  CA       -63.9770  -21.7820    9.1860 C.3   266  GLU266      0.1602
     77  C        -64.6050  -22.4970   10.3850 C.2   266  GLU266      0.2287
     78  O        -63.9110  -23.1420   11.1590 O.2   266  GLU266     -0.2864
     79  CB       -62.6030  -21.1810    9.5570 C.3   266  GLU266      0.0415
     80  CG       -62.6370  -20.0800   10.5970 C.3   266  GLU266      0.1163
     81  CD       -62.6850  -18.6630    9.9940 C.2   266  GLU266      0.3649
     82  OE1      -61.9620  -17.7900   10.5020 O.co2 266  GLU266     -0.2457
     83  OE2      -63.4280  -18.4150    9.0300 O.co2 266  GLU266     -0.2457
     84  N        -58.3410  -23.4310    2.8840 N.3   308  ARG308     -0.1245
     85  CA       -59.3100  -22.9290    1.9090 C.3   308  ARG308      0.1563
     86  C        -58.7350  -23.1160    0.5320 C.2   308  ARG308      0.2260
     87  O        -57.7670  -22.4700    0.1630 O.2   308  ARG308     -0.2867
     88  CB       -59.5970  -21.4410    2.1210 C.3   308  ARG308      0.0307
     89  CG       -60.2550  -21.1220    3.4450 C.3   308  ARG308      0.0489
     90  CD       -60.7450  -19.6910    3.4570 C.3   308  ARG308      0.2205
     91  NE       -61.1030  -19.2350    4.7960 N.pl3 308  ARG308     -0.0865
     92  CZ       -61.8170  -18.1480    5.0570 C.cat 308  ARG308      0.5346
     93  NH1      -62.2550  -17.3920    4.0630 N.pl3 308  ARG308      0.1354
     94  NH2      -62.0580  -17.8010    6.3120 N.pl3 308  ARG308      0.1354
@<TRIPOS>BOND
     1    87    86    2
     2    86    85    1
     3    18    19    1
     4    18    17    1
     5    85    88    1
     6    85    84    1
     7    88    89    1
     8    19    20    2
     9    19    21   am
    10    17    14    1
    11    12    11    1
    12     9    11   ar
    13     9     7   ar
    14     4     3    2
    15    11    10   ar
    16    89    90    1
    17    90    91    1
    18     7     6   ar
    19    14    13    1
    20    14    15    1
    21    25    24    2
    22     3     2    1
    23    16    15    2
    24    93    92    1
    25    15    22   am
    26    10     8   ar
    27    24    23    1
    28     6     8   ar
    29     6     5    1
    30    91    92    2
    31     1     2    1
    32    92    94    1
    33    73    72    1
    34    22    23    1
    35    74    72    1
    36     2     5    1
    37    23    26    1
    38    72    69    1
    39    26    27    1
    40    69    70    1
    41    69    68    1
    42    71    70    2
    43    70    75   am
    44    68    61   am
    45    27    28    1
    46    58    56    1
    47    55    56    2
    48    55    54    1
    49    56    57    1
    50    54    53    1
    51    75    76    1
    52    28    29    1
    53    61    62    2
    54    61    60    1
    55    83    81   ar
    56    76    79    1
    57    76    77    1
    58    79    80    1
    59    53    52    1
    60    52    49    1
    61    29    30    1
    62    81    82   ar
    63    81    80    1
    64    60    59    1
    65    60    63    1
    66    77    78    2
    67    64    63    1
    68    64    65    1
    69    46    45    2
    70    49    50    1
    71    49    48    1
    72    47    45   am
    73    45    44    1
    74    65    66    2
    75    65    67   am
    76    50    51    2
    77    39    37   ar
    78    44    41    1
    79    38    37   ar
    80    37    36    1
    81    41    42    1
    82    41    40    1
    83    42    43    2
    84    36    35    1
    85    35    32    1
    86    32    31    1
    87    32    33    1
    88    33    34    2
