@<TRIPOS>MOLECULE
tmp/4mvaB01.pdb
 101 95 0 0 0
SMALL
GASTEIGER

@<TRIPOS>ATOM
      1  N         10.4070    2.9050   15.3010 N.3     9  ASN9       -0.1240
      2  CA        10.1790    1.7120   16.1190 C.3     9  ASN9        0.1653
      3  C          8.6990    1.6770   16.4890 C.2     9  ASN9        0.2266
      4  O          8.2500    2.4290   17.3800 O.2     9  ASN9       -0.2867
      5  CB        11.0180    1.7470   17.3700 C.3     9  ASN9        0.1155
      6  CG        10.7740    0.5490   18.2680 C.2     9  ASN9        0.2627
      7  OD1       10.0900   -0.4010   17.8800 O.2     9  ASN9       -0.2716
      8  ND2       11.3840    0.5640   19.4780 N.am    9  ASN9       -0.0877
      9  N          7.1090   -0.5220   17.9950 N.3    11  LYS11      -0.1245
     10  CA         6.8650   -1.2740   19.2160 C.3    11  LYS11       0.1561
     11  C          5.6890   -2.2240   18.9900 C.2    11  LYS11       0.2260
     12  O          5.5230   -2.7660   17.8730 O.2    11  LYS11      -0.2867
     13  CB         6.7450   -0.3630   20.4390 C.3    11  LYS11       0.0271
     14  CG         7.9280    0.5630   20.5810 C.3    11  LYS11       0.0035
     15  CD         7.9010    1.3470   21.8890 C.3    11  LYS11       0.0206
     16  CE         9.1260    2.2180   22.0100 C.3    11  LYS11       0.1093
     17  NZ         9.0910    2.9430   23.3150 N.3    11  LYS11      -0.1314
     18  N         17.2560   -2.7050   22.9670 N.3    95  HIS95      -0.1226
     19  CA        16.3440   -1.6400   23.3800 C.3    95  HIS95       0.1752
     20  C         16.1310   -1.6830   24.8960 C.2    95  HIS95       0.2597
     21  O         16.0940   -2.7510   25.4700 O.2    95  HIS95      -0.2718
     22  CB        15.0070   -1.7830   22.6670 C.3    95  HIS95       0.0759
     23  CG        14.1580   -0.5650   22.7620 C.ar   95  HIS95       0.0818
     24  ND1       13.3330   -0.3130   23.8370 N.ar   95  HIS95      -0.2268
     25  CD2       14.0250    0.4860   21.9260 C.ar   95  HIS95       0.1154
     26  CE1       12.7360    0.8470   23.6590 C.ar   95  HIS95       0.1986
     27  NE2       13.1390    1.3510   22.5100 N.ar   95  HIS95      -0.2212
     28  N         15.9980   -0.5160   25.5200 N.am   96  SER96      -0.1938
     29  CA        15.7690   -0.4430   26.9710 C.3    96  SER96       0.2055
     30  C         14.6290   -1.3220   27.4460 C.2    96  SER96       0.2642
     31  O         14.7110   -1.8960   28.5280 O.2    96  SER96      -0.2714
     32  CB        15.5520    1.0140   27.4060 C.3    96  SER96       0.2130
     33  OG        14.4610    1.6120   26.7320 O.3    96  SER96      -0.2179
     34  N         13.5800   -1.4700   26.6360 N.am   97  GLU97      -0.1976
     35  CA        12.4520   -2.2940   27.0570 C.3    97  GLU97       0.1602
     36  C         12.8810   -3.7410   27.1630 C.2    97  GLU97       0.2287
     37  O         12.4190   -4.4730   28.0430 O.2    97  GLU97      -0.2864
     38  CB        11.2440   -2.0800   26.1430 C.3    97  GLU97       0.0415
     39  CG        10.6510   -0.6960   26.3390 C.3    97  GLU97       0.1163
     40  CD         9.8560   -0.1320   25.1770 C.2    97  GLU97       0.3649
     41  OE1        9.5880   -0.8140   24.1570 O.co2  97  GLU97      -0.2457
     42  OE2        9.5160    1.0880   25.2510 O.co2  97  GLU97      -0.2457
     43  N         19.5980    6.0310   24.1120 N.3   167  GLU167     -0.1245
     44  CA        18.3360    6.2510   24.8280 C.3   167  GLU167      0.1567
     45  C         18.5840    6.8330   26.2140 C.2   167  GLU167      0.2260
     46  O         19.1240    6.1390   27.0980 O.2   167  GLU167     -0.2867
     47  CB        17.5930    4.9390   25.0610 C.3   167  GLU167      0.0388
     48  CG        17.2050    4.1440   23.8380 C.3   167  GLU167      0.1160
     49  CD        16.4210    2.9300   24.2260 C.2   167  GLU167      0.3649
     50  OE1       15.2080    3.0680   24.5940 O.co2 167  GLU167     -0.2457
     51  OE2       16.9970    1.8320   24.2660 O.co2 167  GLU167     -0.2457
     52  N         12.8280    9.7050   30.7100 N.3   172  ILE172     -0.1245
     53  CA        11.5230    9.1890   30.2170 C.3   172  ILE172      0.1561
     54  C         10.3240    9.9910   30.7300 C.2   172  ILE172      0.2260
     55  O          9.3570   10.2000   29.9860 O.2   172  ILE172     -0.2867
     56  CB        11.3440    7.6800   30.5370 C.3   172  ILE172      0.0252
     57  CG1       10.1280    7.0780   29.8090 C.3   172  ILE172      0.0019
     58  CG2       11.2150    7.4450   32.0320 C.3   172  ILE172      0.0019
     59  CD1       10.3050    6.9140   28.3230 C.3   172  ILE172      0.0001
     60  N         17.6820    8.5230   20.6860 N.3   210  GLY210     -0.1210
     61  CA        16.5650    7.6700   20.9970 C.3   210  GLY210      0.1956
     62  C         15.7010    8.1280   22.1190 C.2   210  GLY210      0.2612
     63  O         14.9130    7.3460   22.6320 O.2   210  GLY210     -0.2717
     64  N         15.8690    9.4070   22.4760 N.am  211  GLY211     -0.1942
     65  CA        15.0360   10.1040   23.4590 C.3   211  GLY211      0.2014
     66  C         13.8760   10.7530   22.7050 C.2   211  GLY211      0.2639
     67  O         13.8350   10.7100   21.4750 O.2   211  GLY211     -0.2714
     68  N         12.9500   11.3860   23.4120 N.am  212  SER212     -0.1949
     69  CA        11.7520   11.8680   22.7100 C.3   212  SER212      0.1924
     70  C         12.0790   13.0510   21.7690 C.2   212  SER212      0.2314
     71  O         12.7590   14.0150   22.1340 O.2   212  SER212     -0.2863
     72  CB        10.6080   12.1730   23.7050 C.3   212  SER212      0.2116
     73  OG         9.3050   11.9790   23.1160 O.3   212  SER212     -0.2180
     74  N         15.8780    7.3840   16.4980 N.3   231  LEU231     -0.1231
     75  CA        15.0960    6.1630   16.6140 C.3   231  LEU231      0.1693
     76  C         13.8340    6.6340   17.3280 C.2   231  LEU231      0.2592
     77  O         13.8660    6.9820   18.5180 O.2   231  LEU231     -0.2718
     78  CB        15.8420    5.0990   17.3970 C.3   231  LEU231      0.0284
     79  CG        15.0960    3.7830   17.5460 C.3   231  LEU231      0.0019
     80  CD1       14.7650    3.1060   16.2340 C.3   231  LEU231      0.0001
     81  CD2       15.8640    2.8410   18.4610 C.3   231  LEU231      0.0001
     82  N         12.7450    6.7120   16.5830 N.am  232  VAL232     -0.1966
     83  CA        11.4910    7.3120   17.0340 C.3   232  VAL232      0.1727
     84  C         10.4850    6.2730   17.5060 C.2   232  VAL232      0.2617
     85  O         10.2530    5.2660   16.8240 O.2   232  VAL232     -0.2715
     86  CB        10.8610    8.0700   15.8360 C.3   232  VAL232      0.0290
     87  CG1        9.5970    8.7810   16.2650 C.3   232  VAL232      0.0023
     88  CG2       11.8600    9.0410   15.2340 C.3   232  VAL232      0.0023
     89  N          9.8370    6.5290   18.6310 N.am  233  GLY233     -0.1940
     90  CA         8.8300    5.6180   19.1510 C.3   233  GLY233      0.2014
     91  C          7.4180    5.9900   18.7580 C.2   233  GLY233      0.2639
     92  O          7.0080    5.8050   17.6290 O.2   233  GLY233     -0.2714
     93  N          6.6630    6.5940   19.6830 N.am  234  GLY234     -0.1939
     94  CA         5.2720    6.8980   19.4070 C.3   234  GLY234      0.2014
     95  C          4.9460    7.6880   18.1630 C.2   234  GLY234      0.2638
     96  O          3.9410    7.4200   17.4980 O.2   234  GLY234     -0.2714
     97  N          5.7850    8.6690   17.8280 N.am  235  ALA235     -0.1977
     98  CA         5.5420    9.4750   16.6480 C.3   235  ALA235      0.1597
     99  C          5.6240    8.6940   15.3520 C.2   235  ALA235      0.2287
    100  O          5.1080    9.1240   14.3190 O.2   235  ALA235     -0.2864
    101  CB         6.4880   10.6880   16.6030 C.3   235  ALA235      0.0319
@<TRIPOS>BOND
     1   100    99    2
     2    88    86    1
     3     1     2    1
     4    99    98    1
     5    86    87    1
     6    86    83    1
     7     2     3    1
     8     2     5    1
     9    80    79    1
    10     3     4    2
    11    74    75    1
    12    82    83    1
    13    82    76   am
    14   101    98    1
    15    75    76    1
    16    75    78    1
    17    98    97    1
    18    85    84    2
    19    83    84    1
    20    76    77    2
    21     5     6    1
    22    78    79    1
    23    96    95    2
    24    84    89   am
    25    79    81    1
    26    92    91    2
    27    97    95   am
    28    12    11    2
    29     7     6    2
    30     9    10    1
    31    95    94    1
    32     6     8   am
    33    89    90    1
    34    91    90    1
    35    91    93   am
    36    11    10    1
    37    10    13    1
    38    94    93    1
    39    13    14    1
    40    14    15    1
    41    60    61    1
    42    61    62    1
    43    67    66    2
    44    70    71    2
    45    70    69    1
    46    15    16    1
    47    25    27   ar
    48    25    23   ar
    49    16    17    1
    50    62    64   am
    51    62    63    2
    52    64    65    1
    53    27    26   ar
    54    22    23    1
    55    22    19    1
    56    66    68   am
    57    66    65    1
    58    69    68    1
    59    69    72    1
    60    23    24   ar
    61    18    19    1
    62    73    72    1
    63    19    20    1
    64    26    24   ar
    65    48    49    1
    66    48    47    1
    67    43    44    1
    68    41    40   ar
    69    49    51   ar
    70    49    50   ar
    71    44    47    1
    72    44    45    1
    73    20    21    2
    74    20    28   am
    75    40    42   ar
    76    40    39    1
    77    28    29    1
    78    38    39    1
    79    38    35    1
    80    45    46    2
    81    34    35    1
    82    34    30   am
    83    33    32    1
    84    29    32    1
    85    29    30    1
    86    35    36    1
    87    36    37    2
    88    30    31    2
    89    59    57    1
    90    57    56    1
    91    55    54    2
    92    53    56    1
    93    53    52    1
    94    53    54    1
    95    56    58    1
