@<TRIPOS>MOLECULE
tmp/4mvaA00.pdb
 65 60 0 0 0
SMALL
GASTEIGER

@<TRIPOS>ATOM
      1  N          9.4670  -25.1020   14.2480 N.3    11  LYS11      -0.1245
      2  CA        10.5810  -24.5580   15.0370 C.3    11  LYS11       0.1561
      3  C         11.3120  -23.4830   14.2210 C.2    11  LYS11       0.2260
      4  O         10.6450  -22.7290   13.4780 O.2    11  LYS11      -0.2867
      5  CB        11.4830  -25.6620   15.5960 C.3    11  LYS11       0.0271
      6  CG        10.7150  -26.7220   16.3690 C.3    11  LYS11       0.0035
      7  CD        11.6460  -27.6830   17.1020 C.3    11  LYS11       0.0206
      8  CE        10.8550  -28.6600   17.9320 C.3    11  LYS11       0.1093
      9  NZ        11.8020  -29.5540   18.7010 N.3    11  LYS11      -0.1314
     10  N          5.1320  -33.5990   26.2950 N.3   167  GLU167     -0.1245
     11  CA         6.5090  -33.7840   25.8560 C.3   167  GLU167      0.1567
     12  C          7.3010  -34.5860   26.8780 C.2   167  GLU167      0.2260
     13  O          7.4670  -34.1410   28.0280 O.2   167  GLU167     -0.2867
     14  CB         7.2440  -32.4500   25.7170 C.3   167  GLU167      0.0388
     15  CG         6.7200  -31.4810   24.6860 C.3   167  GLU167      0.1160
     16  CD         7.6270  -30.2620   24.5730 C.2   167  GLU167      0.3649
     17  OE1        8.7050  -30.3650   23.9500 O.co2 167  GLU167     -0.2457
     18  OE2        7.2470  -29.1970   25.0920 O.co2 167  GLU167     -0.2457
     19  N         13.3620  -37.7750   27.0660 N.3   171  ALA171     -0.1231
     20  CA        13.7310  -38.5290   25.8710 C.3   171  ALA171      0.1694
     21  C         14.5300  -37.6790   24.8510 C.2   171  ALA171      0.2591
     22  O         14.8860  -38.1790   23.7820 O.2   171  ALA171     -0.2718
     23  CB        12.4640  -39.0840   25.2070 C.3   171  ALA171      0.0304
     24  N         14.7950  -36.4060   25.1510 N.am  172  ILE172     -0.1980
     25  CA        15.5310  -35.5210   24.2200 C.3   172  ILE172      0.1595
     26  C         17.0350  -35.5150   24.4950 C.2   172  ILE172      0.2287
     27  O         17.4790  -35.0830   25.5680 O.2   172  ILE172     -0.2864
     28  CB        14.9970  -34.0650   24.2850 C.3   172  ILE172      0.0276
     29  CG1       13.5000  -34.0360   23.9780 C.3   172  ILE172      0.0022
     30  CG2       15.7540  -33.1730   23.3110 C.3   172  ILE172      0.0022
     31  CD1       12.8410  -32.6890   24.1870 C.3   172  ILE172      0.0001
     32  N          3.7370  -35.1980   22.1130 N.3   210  GLY210     -0.1210
     33  CA         4.7560  -34.2060   21.6940 C.3   210  GLY210      0.1956
     34  C          6.1860  -34.6990   21.7360 C.2   210  GLY210      0.2612
     35  O          7.1170  -33.9180   21.6410 O.2   210  GLY210     -0.2717
     36  N          6.3640  -36.0010   21.9280 N.am  211  GLY211     -0.1942
     37  CA         7.6640  -36.6120   21.7580 C.3   211  GLY211      0.2014
     38  C          7.9240  -36.7690   20.2670 C.2   211  GLY211      0.2640
     39  O          7.1770  -36.2780   19.4490 O.2   211  GLY211     -0.2714
     40  N          8.9860  -37.4610   19.9070 N.am  212  SER212     -0.1935
     41  CA         9.3410  -37.6060   18.5040 C.3   212  SER212      0.2055
     42  C          8.3580  -38.5070   17.7910 C.2   212  SER212      0.2642
     43  O          8.1310  -39.6430   18.1890 O.2   212  SER212     -0.2714
     44  CB        10.7460  -38.1490   18.3440 C.3   212  SER212      0.2130
     45  OG        11.1070  -38.1520   16.9590 O.3   212  SER212     -0.2179
     46  N          7.7250  -37.9790   16.7650 N.am  213  VAL213     -0.1977
     47  CA         6.7720  -38.6890   15.9380 C.3   213  VAL213      0.1596
     48  C          7.2670  -38.7030   14.4970 C.2   213  VAL213      0.2287
     49  O          7.6700  -37.6730   13.9410 O.2   213  VAL213     -0.2864
     50  CB         5.3640  -38.0640   16.0210 C.3   213  VAL213      0.0276
     51  CG1        4.3680  -38.8540   15.1670 C.3   213  VAL213      0.0022
     52  CG2        4.8920  -38.0020   17.4570 C.3   213  VAL213      0.0022
     53  N          7.6540  -32.3700   15.2600 N.3   233  GLY233     -0.1210
     54  CA         8.7980  -31.5060   15.0470 C.3   233  GLY233      0.1956
     55  C          9.4360  -31.7320   13.6980 C.2   233  GLY233      0.2612
     56  O          8.8990  -31.3140   12.6750 O.2   233  GLY233     -0.2717
     57  N         10.5650  -32.4250   13.6590 N.am  234  GLY234     -0.1942
     58  CA        11.3090  -32.5920   12.4170 C.3   234  GLY234      0.2014
     59  C         10.5390  -33.0880   11.2070 C.2   234  GLY234      0.2638
     60  O         10.7290  -32.5900   10.0920 O.2   234  GLY234     -0.2714
     61  N          9.6680  -34.0850   11.3960 N.am  235  ALA235     -0.1977
     62  CA         8.9150  -34.6310   10.2730 C.3   235  ALA235      0.1597
     63  C          7.9390  -33.6470    9.6880 C.2   235  ALA235      0.2287
     64  O          7.4700  -33.8170    8.5590 O.2   235  ALA235     -0.2864
     65  CB         8.1910  -35.9110   10.6420 C.3   235  ALA235      0.0319
@<TRIPOS>BOND
     1    64    63    2
     2    63    62    1
     3    60    59    2
     4    62    65    1
     5    62    61    1
     6    59    61   am
     7    59    58    1
     8    58    57    1
     9    56    55    2
    10     4     3    2
    11    57    55   am
    12    55    54    1
    13    49    48    2
    14     3     2    1
    15     1     2    1
    16    48    47    1
    17     2     5    1
    18    54    53    1
    19    51    50    1
    20     5     6    1
    21    47    50    1
    22    47    46    1
    23    50    52    1
    24     6     7    1
    25    46    42   am
    26    45    44    1
    27     7     8    1
    28    42    43    2
    29    42    41    1
    30     8     9    1
    31    44    41    1
    32    41    40    1
    33    39    38    2
    34    40    38   am
    35    38    37    1
    36    35    34    2
    37    33    34    1
    38    33    32    1
    39    34    36   am
    40    37    36    1
    41    30    28    1
    42    22    21    2
    43    17    16   ar
    44    29    31    1
    45    29    28    1
    46    25    28    1
    47    25    26    1
    48    25    24    1
    49    26    27    2
    50    16    15    1
    51    16    18   ar
    52    15    14    1
    53    21    24   am
    54    21    20    1
    55    23    20    1
    56    14    11    1
    57    11    10    1
    58    11    12    1
    59    20    19    1
    60    12    13    2
