@<TRIPOS>MOLECULE
tmp/4mvdA00.pdb
 207 202 0 0 0
SMALL
GASTEIGER

@<TRIPOS>ATOM
      1  N         11.3930   -9.4090   39.3020 N.3    42  ALA42      -0.1231
      2  CA        11.9800   -8.6470   38.2030 C.3    42  ALA42       0.1694
      3  C         11.4790   -9.2240   36.8780 C.2    42  ALA42       0.2592
      4  O         11.3060  -10.4330   36.7510 O.2    42  ALA42      -0.2718
      5  CB        13.5070   -8.6810   38.2780 C.3    42  ALA42       0.0304
      6  N         11.2540   -8.3580   35.8950 N.am   43  ASP43      -0.1960
      7  CA        10.5410   -8.7380   34.6810 C.3    43  ASP43       0.1840
      8  C         11.2120   -8.1590   33.4360 C.2    43  ASP43       0.2623
      9  O         11.9740   -7.1930   33.5270 O.2    43  ASP43      -0.2715
     10  CB         9.0860   -8.2570   34.7790 C.3    43  ASP43       0.1450
     11  CG         8.9000   -6.7670   34.8070 C.2    43  ASP43       0.3671
     12  OD1        9.8980   -6.0260   35.0730 O.co2  43  ASP43      -0.2456
     13  OD2        7.8660   -6.1730   34.5130 O.co2  43  ASP43      -0.2456
     14  N         10.9380   -8.7560   32.2770 N.am   44  GLY44      -0.1940
     15  CA        11.5840   -8.3450   31.0440 C.3    44  GLY44       0.2014
     16  C         11.5360   -9.4060   29.9620 C.2    44  GLY44       0.2639
     17  O         11.1350  -10.5450   30.2040 O.2    44  GLY44      -0.2714
     18  N         11.9630   -9.0220   28.7630 N.am   45  ILE45      -0.1963
     19  CA        11.9690   -9.9210   27.6180 C.3    45  ILE45       0.1727
     20  C         13.1500  -10.8660   27.7420 C.2    45  ILE45       0.2616
     21  O         13.0280  -12.0670   27.5140 O.2    45  ILE45      -0.2715
     22  CB        12.1020   -9.1360   26.2930 C.3    45  ILE45       0.0290
     23  CG1       10.9570   -8.1230   26.2500 C.3    45  ILE45       0.0022
     24  CG2       12.0430  -10.1010   25.0520 C.3    45  ILE45       0.0023
     25  CD1       10.6680   -7.6030   24.8860 C.3    45  ILE45       0.0001
     26  N         14.2950  -10.3060   28.1180 N.am   46  PHE46      -0.1960
     27  CA        15.5380  -11.0610   28.2140 C.3    46  PHE46       0.1771
     28  C         15.9020  -11.6810   26.8740 C.2    46  PHE46       0.2619
     29  O         16.5400  -12.7300   26.8160 O.2    46  PHE46      -0.2715
     30  CB        15.4610  -12.1210   29.3110 C.3    46  PHE46       0.0574
     31  CG        15.3510  -11.5880   30.7500 C.ar   46  PHE46      -0.0200
     32  CD1       15.7900  -10.3160   31.0490 C.ar   46  PHE46      -0.0042
     33  CD2       14.8510  -12.4360   31.7360 C.ar   46  PHE46      -0.0042
     34  CE1       15.7160   -9.9050   32.3640 C.ar   46  PHE46      -0.0003
     35  CE2       14.7870  -12.0140   33.0420 C.ar   46  PHE46      -0.0003
     36  CZ        15.2280  -10.7360   33.3400 C.ar   46  PHE46      -0.0000
     37  N         15.4800  -11.0190   25.8000 N.am   47  ASP47      -0.1971
     38  CA        15.8830  -11.3840   24.4520 C.3    47  ASP47       0.1709
     39  C         17.4090  -11.3090   24.3720 C.2    47  ASP47       0.2293
     40  O         18.0210  -10.3890   24.9240 O.2    47  ASP47      -0.2864
     41  CB        15.2380  -10.4170   23.4510 C.3    47  ASP47       0.1436
     42  CG        15.6040  -10.7720   22.0210 C.2    47  ASP47       0.3671
     43  OD1       15.5170  -11.9630   21.6550 O.co2  47  ASP47      -0.2456
     44  OD2       15.9990   -9.8560   21.2650 O.co2  47  ASP47      -0.2456
     45  N         21.7840  -11.5470   28.2250 N.3    50  HIS50      -0.1241
     46  CA        23.1540  -11.0480   28.3170 C.3    50  HIS50       0.1621
     47  C         23.5440  -10.6010   29.7280 C.2    50  HIS50       0.2264
     48  O         22.8020  -10.8200   30.6890 O.2    50  HIS50      -0.2867
     49  CB        23.4120   -9.9400   27.2820 C.3    50  HIS50       0.0745
     50  CG        22.5970   -8.6700   27.4520 C.ar   50  HIS50       0.0817
     51  ND1       21.3420   -8.4880   27.0740 N.ar   50  HIS50      -0.2268
     52  CD2       23.0290   -7.5050   28.0510 C.ar   50  HIS50       0.1154
     53  CE1       20.9870   -7.2730   27.4150 C.ar   50  HIS50       0.1986
     54  NE2       22.0020   -6.6740   28.0050 N.ar   50  HIS50      -0.2212
     55  N         24.0320   -7.5530   31.0380 N.3    52  GLY52      -0.1210
     56  CA        23.2720   -6.4570   31.6150 C.3    52  GLY52       0.1956
     57  C         22.1010   -7.0260   32.3940 C.2    52  GLY52       0.2611
     58  O         21.8580   -6.6690   33.5540 O.2    52  GLY52      -0.2717
     59  N         21.3810   -7.9300   31.7360 N.am   53  HIS53      -0.1975
     60  CA        20.3060   -8.6750   32.3620 C.3    53  HIS53       0.1656
     61  C         20.8010   -9.3170   33.6490 C.2    53  HIS53       0.2291
     62  O         20.2320   -9.1100   34.7200 O.2    53  HIS53      -0.2864
     63  CB        19.8170   -9.7720   31.4140 C.3    53  HIS53       0.0771
     64  CG        19.0580   -9.2320   30.2470 C.ar   53  HIS53       0.0820
     65  ND1       18.9280   -9.8910   29.0570 N.ar   53  HIS53      -0.2267
     66  CD2       18.3610   -8.0670   30.0820 C.ar   53  HIS53       0.1154
     67  CE1       18.2060   -9.1940   28.2040 C.ar   53  HIS53       0.1986
     68  NE2       17.8470   -8.0670   28.8140 N.ar   53  HIS53      -0.2212
     69  N         21.6350   -7.1010   36.4430 N.3    56  ALA56      -0.1245
     70  CA        20.3560   -6.5790   36.9280 C.3    56  ALA56       0.1562
     71  C         19.7390   -7.5510   37.9310 C.2    56  ALA56       0.2260
     72  O         19.2550   -7.1630   38.9990 O.2    56  ALA56      -0.2867
     73  CB        19.4050   -6.3460   35.7640 C.3    56  ALA56       0.0290
     74  N          8.2270  -12.1910   29.7610 N.3    74  CYS74      -0.1235
     75  CA         7.0580  -11.9160   28.9270 C.3    74  CYS74       0.1677
     76  C          7.0380  -12.7450   27.6520 C.2    74  CYS74       0.2270
     77  O          8.0830  -13.1240   27.1240 O.2    74  CYS74      -0.2867
     78  CB         6.9570  -10.4270   28.5850 C.3    74  CYS74       0.0956
     79  SG         6.5950   -9.3730   30.0210 S.3    74  CYS74      -0.0801
     80  N          6.0460   -4.0740   22.2560 N.3    83  LYS83      -0.1245
     81  CA         7.4550   -3.6860   22.2190 C.3    83  LYS83       0.1561
     82  C          8.0900   -3.7440   20.8280 C.2    83  LYS83       0.2260
     83  O          8.4460   -2.7130   20.2460 O.2    83  LYS83      -0.2867
     84  CB         8.2670   -4.5420   23.1980 C.3    83  LYS83       0.0271
     85  CG         7.8490   -4.6860   24.6200 C.3    83  LYS83       0.0035
     86  CD         8.2670   -3.5340   25.5010 C.3    83  LYS83       0.0206
     87  CE         8.5070   -4.1320   26.8960 C.3    83  LYS83       0.1093
     88  NZ         7.3300   -4.7850   27.4690 N.3    83  LYS83      -0.1314
     89  N          2.9130  -10.7620   32.7970 N.3   111  PRO111     -0.2102
     90  CA         2.0730   -9.6080   32.4520 C.3   111  PRO111      0.1504
     91  C          2.8950   -8.3730   32.0850 C.2   111  PRO111      0.2575
     92  O          3.9820   -8.1740   32.6320 O.2   111  PRO111     -0.2718
     93  CB         1.2510   -9.3430   33.6970 C.3   111  PRO111      0.0282
     94  CG         2.1450   -9.8030   34.8550 C.3   111  PRO111      0.0208
     95  CD         2.7580  -11.0640   34.2810 C.3   111  PRO111      0.0893
     96  N          2.3800   -7.5550   31.1690 N.am  112  TRP112     -0.1977
     97  CA         3.0470   -6.3120   30.7950 C.3   112  TRP112      0.1640
     98  C          2.8650   -5.3060   31.9190 C.2   112  TRP112      0.2290
     99  O          3.7300   -4.4620   32.1650 O.2   112  TRP112     -0.2864
    100  CB         2.4610   -5.7540   29.4970 C.3   112  TRP112      0.0576
    101  CG         1.0100   -5.1560   29.6250 C.ar  112  TRP112      0.0006
    102  CD1       -0.1730   -5.8590   29.6610 C.ar  112  TRP112      0.0946
    103  CD2        0.7240   -3.8320   29.7410 C.ar  112  TRP112      0.0152
    104  NE1       -1.0930   -4.9190   29.7950 N.ar  112  TRP112     -0.2442
    105  CE2       -0.6630   -3.6650   29.8520 C.ar  112  TRP112      0.0810
    106  CE3        1.5790   -2.7060   29.7790 C.ar  112  TRP112      0.0012
    107  CZ2       -1.1830   -2.3980   29.9930 C.ar  112  TRP112      0.0191
    108  CZ3        1.0390   -1.4330   29.9260 C.ar  112  TRP112      0.0001
    109  CH2       -0.3440   -1.2890   30.0300 C.ar  112  TRP112      0.0015
    110  N          1.5640   -5.0770   36.1530 N.3   114  LEU114     -0.1245
    111  CA         1.4170   -5.9260   37.3350 C.3   114  LEU114      0.1561
    112  C          0.1980   -5.5980   38.1870 C.2   114  LEU114      0.2260
    113  O         -0.0680   -4.4380   38.4940 O.2   114  LEU114     -0.2867
    114  CB         2.6890   -5.9260   38.1820 C.3   114  LEU114      0.0270
    115  CG         3.8980   -6.6530   37.5930 C.3   114  LEU114      0.0019
    116  CD1        5.0870   -6.4220   38.4960 C.3   114  LEU114      0.0001
    117  CD2        3.6570   -8.1350   37.4620 C.3   114  LEU114      0.0001
    118  N         11.9920   -5.3680   41.2770 N.3   128  ALA128     -0.1231
    119  CA        13.2800   -4.8350   40.8590 C.3   128  ALA128      0.1694
    120  C         13.3170   -4.5510   39.3620 C.2   128  ALA128      0.2592
    121  O         13.1440   -5.4500   38.5390 O.2   128  ALA128     -0.2718
    122  CB        14.4010   -5.7830   41.2490 C.3   128  ALA128      0.0304
    123  N         13.5440   -3.2900   39.0150 N.am  129  HIS129     -0.1962
    124  CA        13.7510   -2.9150   37.6240 C.3   129  HIS129      0.1787
    125  C         14.4930   -1.5830   37.5880 C.2   129  HIS129      0.2620
    126  O         14.7000   -0.9590   38.6290 O.2   129  HIS129     -0.2715
    127  CB        12.4040   -2.7990   36.9160 C.3   129  HIS129      0.0785
    128  CG        11.4760   -1.7110   37.4280 C.ar  129  HIS129      0.0821
    129  ND1       10.7070   -1.7790   38.5020 N.ar  129  HIS129     -0.2267
    130  CD2       11.3030   -0.4640   36.8650 C.ar  129  HIS129      0.1154
    131  CE1       10.0780   -0.6360   38.6240 C.ar  129  HIS129      0.1986
    132  NE2       10.4330    0.1630   37.6380 N.ar  129  HIS129     -0.2212
    133  N         14.8760   -1.1330   36.3960 N.am  130  ASP130     -0.1971
    134  CA        15.5970    0.1300   36.2710 C.3   130  ASP130      0.1709
    135  C         14.6320    1.2820   36.5730 C.2   130  ASP130      0.2293
    136  O         13.4150    1.1090   36.4700 O.2   130  ASP130     -0.2864
    137  CB        16.2620    0.2500   34.8840 C.3   130  ASP130      0.1436
    138  CG        17.3780   -0.6960   34.6490 C.2   130  ASP130      0.3671
    139  OD1       17.9690   -1.2340   35.6340 O.co2 130  ASP130     -0.2456
    140  OD2       17.7650   -0.8800   33.4470 O.co2 130  ASP130     -0.2456
    141  N          8.7820    3.4010   32.3670 N.3   134  TYR134     -0.1241
    142  CA         8.5720    2.5110   31.2280 C.3   134  TYR134      0.1605
    143  C          7.3000    2.8790   30.4760 C.2   134  TYR134      0.2264
    144  O          6.1940    2.7170   30.9930 O.2   134  TYR134     -0.2867
    145  CB         8.5020    1.0590   31.7090 C.3   134  TYR134      0.0534
    146  CG         9.8590    0.4610   32.0510 C.ar  134  TYR134     -0.0201
    147  CD1       10.9420    0.5970   31.1750 C.ar  134  TYR134     -0.0009
    148  CD2       10.0710   -0.2050   33.2620 C.ar  134  TYR134     -0.0009
    149  CE1       12.2050    0.0890   31.5020 C.ar  134  TYR134      0.0417
    150  CE2       11.3360   -0.7150   33.5970 C.ar  134  TYR134      0.0417
    151  CZ        12.3930   -0.5620   32.7110 C.ar  134  TYR134      0.1957
    152  OH        13.6300   -1.0690   33.0450 O.3   134  TYR134     -0.2866
    153  N          4.6530    2.1690   33.4750 N.3   142  VAL142     -0.1245
    154  CA         3.8600    1.0190   33.9090 C.3   142  VAL142      0.1561
    155  C          4.2030    0.5900   35.3360 C.2   142  VAL142      0.2260
    156  O          3.5110   -0.2390   35.9300 O.2   142  VAL142     -0.2867
    157  CB         4.0270   -0.1810   32.9530 C.3   142  VAL142      0.0252
    158  CG1        5.4160   -0.7640   32.9050 C.3   142  VAL142      0.0019
    159  CG2        2.9690   -1.2440   33.2020 C.3   142  VAL142      0.0019
    160  N         17.0380   -0.6750   40.0010 N.3   155  THR155     -0.1203
    161  CA        18.3270   -1.2870   39.7210 C.3   155  THR155      0.1994
    162  C         19.0650   -0.4410   38.6880 C.2   155  THR155      0.2618
    163  O         18.5160    0.5360   38.1770 O.2   155  THR155     -0.2717
    164  CB        18.1730   -2.7260   39.2040 C.3   155  THR155      0.1784
    165  OG1       17.4110   -2.6910   38.0070 O.3   155  THR155     -0.2211
    166  CG2       17.5180   -3.6320   40.2290 C.3   155  THR155      0.0376
    167  N         20.2960   -0.8270   38.3690 N.am  156  GLN156     -0.1965
    168  CA        21.1310   -0.0430   37.4670 C.3   156  GLN156      0.1733
    169  C         21.4230   -0.7910   36.1670 C.2   156  GLN156      0.2616
    170  O         21.8450   -1.9500   36.1920 O.2   156  GLN156     -0.2715
    171  CB        22.4430    0.3400   38.1640 C.3   156  GLN156      0.0408
    172  CG        22.2060    1.3260   39.2930 C.3   156  GLN156      0.0908
    173  CD        21.7530    2.6840   38.7940 C.2   156  GLN156      0.2608
    174  OE1       22.1640    3.1400   37.7190 O.2   156  GLN156     -0.2717
    175  NE2       20.9470    3.3310   39.5490 N.am  156  GLN156     -0.0878
    176  N         21.1870   -0.1330   35.0340 N.am  157  ARG157     -0.1963
    177  CA        21.5230   -0.7160   33.7410 C.3   157  ARG157      0.1729
    178  C         23.0350   -0.8750   33.6420 C.2   157  ARG157      0.2616
    179  O         23.7800   -0.0060   34.0860 O.2   157  ARG157     -0.2715
    180  CB        21.0420    0.1920   32.6110 C.3   157  ARG157      0.0348
    181  CG        21.2920   -0.3480   31.1980 C.3   157  ARG157      0.0492
    182  CD        20.6250    0.5260   30.1260 C.3   157  ARG157      0.2205
    183  NE        21.1160    1.9060   30.1190 N.pl3 157  ARG157     -0.0865
    184  CZ        22.3270    2.2760   29.6960 C.cat 157  ARG157      0.5346
    185  NH1       23.1940    1.3740   29.2340 N.pl3 157  ARG157      0.1354
    186  NH2       22.6810    3.5540   29.7430 N.pl3 157  ARG157      0.1354
    187  N         23.4960   -1.9820   33.0680 N.am  158  THR158     -0.1951
    188  CA        24.9200   -2.1200   32.7840 C.3   158  THR158      0.1897
    189  C         25.2410   -1.2540   31.5590 C.2   158  THR158      0.2313
    190  O         24.3470   -0.6240   30.9900 O.2   158  THR158     -0.2863
    191  CB        25.3220   -3.6020   32.5960 C.3   158  THR158      0.1794
    192  OG1       24.8310   -4.3830   33.6420 O.3   158  THR158     -0.2208
    193  CG2       26.8270   -3.7950   32.5260 C.3   158  THR158      0.0378
    194  N         26.4550   -2.6910   26.8090 N.3   161  ILE161     -0.1231
    195  CA        25.7480   -3.8900   26.3890 C.3   161  ILE161      0.1692
    196  C         24.2430   -3.6820   26.4530 C.2   161  ILE161      0.2592
    197  O         23.7280   -2.9990   27.3440 O.2   161  ILE161     -0.2718
    198  CB        26.1280   -5.1160   27.2450 C.3   161  ILE161      0.0266
    199  CG1       25.7520   -6.4210   26.5390 C.3   161  ILE161      0.0019
    200  CG2       25.6440   -4.9650   28.6890 C.3   161  ILE161      0.0020
    201  CD1       26.4410   -7.6180   27.1000 C.3   161  ILE161      0.0001
    202  N         23.5540   -4.2670   25.4820 N.am  162  SER162     -0.1952
    203  CA        22.1070   -4.3750   25.4980 C.3   162  SER162      0.1924
    204  C         21.7290   -5.1070   24.2260 C.2   162  SER162      0.2314
    205  O         22.4880   -5.1170   23.2530 O.2   162  SER162     -0.2863
    206  CB        21.4470   -2.9980   25.5560 C.3   162  SER162      0.2116
    207  OG        21.6170   -2.2580   24.3950 O.3   162  SER162     -0.2180
@<TRIPOS>BOND
     1    83    82    2
     2    82    81    1
     3    44    42   ar
     4    43    42   ar
     5    42    41    1
     6    81    80    1
     7    81    84    1
     8    84    85    1
     9   205   204    2
    10    41    38    1
    11   204   203    1
    12    39    38    1
    13    39    40    2
    14   207   206    1
    15    38    37    1
    16    85    86    1
    17    25    23    1
    18    24    22    1
    19   202   203    1
    20   202   196   am
    21   203   206    1
    22    86    87    1
    23    37    28   am
    24    23    22    1
    25    22    19    1
    26   195   196    1
    27   195   194    1
    28   195   198    1
    29   196   197    2
    30   199   201    1
    31   199   198    1
    32    29    28    2
    33    28    27    1
    34    87    88    1
    35    51    53   ar
    36    51    50   ar
    37    77    76    2
    38   198   200    1
    39    49    50    1
    40    49    46    1
    41    53    54   ar
    42    50    52   ar
    43    21    20    2
    44    19    20    1
    45    19    18    1
    46    76    75    1
    47    20    26   am
    48    54    52   ar
    49    26    27    1
    50    67    68   ar
    51    67    65   ar
    52    27    30    1
    53    45    46    1
    54    46    47    1
    55    78    75    1
    56    78    79    1
    57    18    16   am
    58    68    66   ar
    59    75    74    1
    60    65    64   ar
    61   185   184    1
    62    30    31    1
    63   100   101    1
    64   100    97    1
    65   101   102   ar
    66   101   103   ar
    67   102   104   ar
    68   184   186    1
    69   184   183    2
    70    47    48    2
    71   103   106   ar
    72   103   105   ar
    73   106   108   ar
    74   104   105   ar
    75   105   107   ar
    76   108   109   ar
    77    16    17    2
    78    16    15    1
    79   107   109   ar
    80    66    64   ar
    81   183   182    1
    82   182   181    1
    83    64    63    1
    84   143   144    2
    85   143   142    1
    86    31    32   ar
    87    31    33   ar
    88    97    96    1
    89    97    98    1
    90   190   189    2
    91    55    56    1
    92    15    14    1
    93    32    34   ar
    94    96    91   am
    95   147   149   ar
    96   147   146   ar
    97   181   180    1
    98   142   145    1
    99   142   141    1
   100    63    60    1
   101   149   151   ar
   102   189   188    1
   103    56    57    1
   104   145   146    1
   105    59    60    1
   106    59    57   am
   107    33    35   ar
   108    98    99    2
   109   146   148   ar
   110    91    90    1
   111    91    92    2
   112    14     8   am
   113    60    61    1
   114    34    36   ar
   115    57    58    2
   116    90    89    1
   117    90    93    1
   118   193   191    1
   119   191   188    1
   120   191   192    1
   121   180   177    1
   122   151   152    1
   123   151   150   ar
   124   188   187    1
   125    89    95    1
   126   158   157    1
   127   157   159    1
   128   157   154    1
   129    35    36   ar
   130   187   178   am
   131   148   150   ar
   132     8     9    2
   133     8     7    1
   134   140   138   ar
   135   153   154    1
   136   178   177    1
   137   178   179    2
   138    61    62    2
   139    93    94    1
   140   177   176    1
   141   154   155    1
   142    95    94    1
   143    13    11   ar
   144   138   137    1
   145   138   139   ar
   146     7    10    1
   147     7     6    1
   148    10    11    1
   149    11    12   ar
   150   137   134    1
   151   176   169   am
   152   155   156    2
   153    73    70    1
   154     6     3   am
   155   110   111    1
   156   169   170    2
   157   169   168    1
   158   134   133    1
   159   134   135    1
   160   133   125   am
   161    69    70    1
   162   136   135    2
   163     4     3    2
   164   130   128   ar
   165   130   132   ar
   166     3     2    1
   167   127   128    1
   168   127   124    1
   169    70    71    1
   170   111   114    1
   171   111   112    1
   172   128   129   ar
   173   117   115    1
   174   168   171    1
   175   168   167    1
   176   125   124    1
   177   125   126    2
   178   115   114    1
   179   115   116    1
   180   124   123    1
   181   132   131   ar
   182   174   173    2
   183    71    72    2
   184   165   164    1
   185   171   172    1
   186   163   162    2
   187   112   113    2
   188     2     5    1
   189     2     1    1
   190   167   162   am
   191   129   131   ar
   192   121   120    2
   193   162   161    1
   194   173   172    1
   195   173   175   am
   196   123   120   am
   197   164   161    1
   198   164   166    1
   199   120   119    1
   200   161   160    1
   201   119   122    1
   202   119   118    1
