@<TRIPOS>MOLECULE
tmp/4mvfA00.pdb
 144 134 0 0 0
SMALL
GASTEIGER

@<TRIPOS>ATOM
      1  N         32.3970   87.1210   15.0090 N.3    19  LEU19      -0.1231
      2  CA        31.3860   86.6840   15.9720 C.3    19  LEU19       0.1693
      3  C         31.0090   87.7830   16.9600 C.2    19  LEU19       0.2593
      4  O         29.8590   87.8790   17.3870 O.2    19  LEU19      -0.2718
      5  CB        31.8750   85.4480   16.7390 C.3    19  LEU19       0.0284
      6  CG        32.0640   84.1890   15.8800 C.3    19  LEU19       0.0019
      7  CD1       32.5840   83.0190   16.7200 C.3    19  LEU19       0.0001
      8  CD2       30.7770   83.8160   15.1890 C.3    19  LEU19       0.0001
      9  N         31.9860   88.5870   17.3460 N.am   20  GLY20      -0.1942
     10  CA        31.7390   89.6490   18.3030 C.3    20  GLY20       0.2014
     11  C         32.9930   90.4100   18.6600 C.2    20  GLY20       0.2639
     12  O         34.0680   90.1690   18.0940 O.2    20  GLY20      -0.2714
     13  N         32.8570   91.3190   19.6170 N.am   21  GLN21      -0.1963
     14  CA        33.9460   92.2000   19.9980 C.3    21  GLN21       0.1733
     15  C         34.1620   92.1050   21.4870 C.2    21  GLN21       0.2616
     16  O         33.2590   92.4010   22.2660 O.2    21  GLN21      -0.2715
     17  CB        33.6060   93.6480   19.6250 C.3    21  GLN21       0.0408
     18  CG        34.4720   94.6910   20.3200 C.3    21  GLN21       0.0908
     19  CD        35.8590   94.8000   19.7130 C.2    21  GLN21       0.2608
     20  OE1       36.0080   95.1440   18.5400 O.2    21  GLN21      -0.2717
     21  NE2       36.8840   94.5070   20.5130 N.am   21  GLN21      -0.0878
     22  N         35.3570   91.6800   21.8850 N.am   22  GLY22      -0.1955
     23  CA        35.6990   91.5960   23.2940 C.3    22  GLY22       0.1869
     24  C         36.3650   92.8720   23.7590 C.2    22  GLY22       0.2309
     25  O         36.4730   93.8300   22.9930 O.2    22  GLY22      -0.2863
     26  N         36.5230   88.4020   18.1140 N.3    27  VAL27      -0.1245
     27  CA        36.4170   86.9650   18.0400 C.3    27  VAL27       0.1561
     28  C         35.8320   86.5850   16.7000 C.2    27  VAL27       0.2260
     29  O         34.8070   87.1440   16.2800 O.2    27  VAL27      -0.2867
     30  CB        35.4800   86.4230   19.1370 C.3    27  VAL27       0.0252
     31  CG1       35.3050   84.9250   18.9830 C.3    27  VAL27       0.0019
     32  CG2       36.0230   86.7800   20.4970 C.3    27  VAL27       0.0019
     33  N         36.4360   78.9460   17.4870 N.3    40  ALA40      -0.1245
     34  CA        36.3550   80.3670   17.7840 C.3    40  ALA40       0.1562
     35  C         37.7900   80.8400   17.9020 C.2    40  ALA40       0.2260
     36  O         38.6030   80.2140   18.5960 O.2    40  ALA40      -0.2867
     37  CB        35.5970   80.6160   19.1120 C.3    40  ALA40       0.0290
     38  N         40.1120   83.9510   19.0780 N.3    42  LYS42      -0.1245
     39  CA        40.0730   85.1320   19.9080 C.3    42  LYS42       0.1561
     40  C         41.3270   85.9310   19.6320 C.2    42  LYS42       0.2260
     41  O         42.4400   85.4680   19.8630 O.2    42  LYS42      -0.2867
     42  CB        39.9910   84.7470   21.3950 C.3    42  LYS42       0.0271
     43  CG        39.9120   85.9240   22.3640 C.3    42  LYS42       0.0035
     44  CD        40.1080   85.4480   23.8150 C.3    42  LYS42       0.0206
     45  CE        39.8560   86.5510   24.8410 C.3    42  LYS42       0.1093
     46  NZ        40.1020   86.0740   26.2440 N.3    42  LYS42      -0.1314
     47  N         35.3460   76.3110   28.5000 N.3    71  VAL71      -0.1245
     48  CA        35.6980   76.3000   27.0650 C.3    71  VAL71       0.1561
     49  C         37.1030   75.7250   26.8280 C.2    71  VAL71       0.2260
     50  O         38.0270   75.9690   27.6060 O.2    71  VAL71      -0.2867
     51  CB        35.5940   77.7280   26.4530 C.3    71  VAL71       0.0252
     52  CG1       36.7350   78.6070   26.9460 C.3    71  VAL71       0.0019
     53  CG2       35.5790   77.6720   24.9320 C.3    71  VAL71       0.0019
     54  N         40.0660   78.3810   19.9870 N.3    87  MET87      -0.1230
     55  CA        39.2380   77.8420   21.0670 C.3    87  MET87       0.1702
     56  C         38.0380   77.0950   20.5480 C.2    87  MET87       0.2592
     57  O         37.6950   77.1780   19.3720 O.2    87  MET87      -0.2718
     58  CB        38.7340   78.9670   21.9710 C.3    87  MET87       0.0401
     59  CG        39.7390   80.0440   22.2730 C.3    87  MET87       0.0596
     60  SD        38.9080   81.4210   23.0960 S.3    87  MET87      -0.1393
     61  CE        38.4700   80.6840   24.6540 C.3    87  MET87       0.0692
     62  N         37.3830   76.3760   21.4550 N.am   88  GLU88      -0.1966
     63  CA        36.1410   75.6940   21.1520 C.3    88  GLU88       0.1733
     64  C         35.0820   76.6980   20.7100 C.2    88  GLU88       0.2616
     65  O         34.9370   77.7630   21.3120 O.2    88  GLU88      -0.2715
     66  CB        35.6650   74.9630   22.4150 C.3    88  GLU88       0.0429
     67  CG        34.2560   74.4550   22.3520 C.3    88  GLU88       0.1163
     68  CD        33.8170   73.8290   23.6850 C.2    88  GLU88       0.3649
     69  OE1       34.6190   73.8310   24.6540 O.co2  88  GLU88      -0.2457
     70  OE2       32.6760   73.3360   23.7490 O.co2  88  GLU88      -0.2457
     71  N         34.3330   76.3480   19.6700 N.am   89  LEU89      -0.1963
     72  CA        33.2440   77.1980   19.1870 C.3    89  LEU89       0.1728
     73  C         31.9540   76.7760   19.8780 C.2    89  LEU89       0.2616
     74  O         31.5320   75.6250   19.7670 O.2    89  LEU89      -0.2715
     75  CB        33.0700   77.0420   17.6730 C.3    89  LEU89       0.0311
     76  CG        31.9040   77.8170   17.0640 C.3    89  LEU89       0.0022
     77  CD1       32.1920   79.3000   17.1510 C.3    89  LEU89       0.0001
     78  CD2       31.6560   77.3840   15.6190 C.3    89  LEU89       0.0001
     79  N         31.3500   77.7050   20.6060 N.am   90  CYS90      -0.1954
     80  CA        30.0650   77.4800   21.2560 C.3    90  CYS90       0.1843
     81  C         28.9470   78.1350   20.4570 C.2    90  CYS90       0.2626
     82  O         29.1780   78.6650   19.3820 O.2    90  CYS90      -0.2714
     83  CB        30.0840   78.1010   22.6530 C.3    90  CYS90       0.0997
     84  SG        31.3490   77.4120   23.7300 S.3    90  CYS90      -0.0797
     85  N         27.7400   78.1220   21.0060 N.am   91  SER91      -0.1936
     86  CA        26.6290   78.8480   20.4100 C.3    91  SER91       0.2055
     87  C         26.7470   80.3080   20.8390 C.2    91  SER91       0.2643
     88  O         27.5580   80.6440   21.7030 O.2    91  SER91      -0.2714
     89  CB        25.3100   78.2810   20.9220 C.3    91  SER91       0.2130
     90  OG        25.0010   78.8610   22.1710 O.3    91  SER91      -0.2179
     91  N         25.9470   81.1830   20.2460 N.am   92  GLY92      -0.1954
     92  CA        25.9410   82.5690   20.6780 C.3    92  GLY92       0.1869
     93  C         24.9330   82.8110   21.7950 C.2    92  GLY92       0.2309
     94  O         24.6520   83.9580   22.1610 O.2    92  GLY92      -0.2863
     95  N         23.4370   83.3880   25.1800 N.3    94  GLU94      -0.1245
     96  CA        23.7900   83.8640   26.5220 C.3    94  GLU94       0.1567
     97  C         22.9130   83.2560   27.6090 C.2    94  GLU94       0.2260
     98  O         21.7910   82.8220   27.3550 O.2    94  GLU94      -0.2867
     99  CB        23.6780   85.3840   26.5950 C.3    94  GLU94       0.0388
    100  CG        24.7640   86.1080   25.8510 C.3    94  GLU94       0.1160
    101  CD        24.6660   87.6150   26.0050 C.2    94  GLU94       0.3649
    102  OE1       23.9050   88.0880   26.8820 O.co2  94  GLU94      -0.2457
    103  OE2       25.3540   88.3250   25.2480 O.co2  94  GLU94      -0.2457
    104  N         28.0070   87.6660   31.2990 N.3   137  GLU137     -0.1231
    105  CA        28.4950   87.7490   29.9140 C.3   137  GLU137      0.1699
    106  C         29.6510   86.7970   29.6350 C.2   137  GLU137      0.2592
    107  O         29.9960   86.5860   28.4800 O.2   137  GLU137     -0.2718
    108  CB        28.9560   89.1670   29.5440 C.3   137  GLU137      0.0402
    109  CG        28.0190   90.2570   29.9700 C.3   137  GLU137      0.1161
    110  CD        28.1960   90.6070   31.4310 C.2   137  GLU137      0.3649
    111  OE1       29.2500   91.1870   31.7810 O.co2 137  GLU137     -0.2457
    112  OE2       27.2950   90.2790   32.2290 O.co2 137  GLU137     -0.2457
    113  N         30.2620   86.2430   30.6830 N.am  138  ASN138     -0.1974
    114  CA        31.3840   85.3330   30.4860 C.3   138  ASN138      0.1688
    115  C         30.9710   83.8680   30.3190 C.2   138  ASN138      0.2292
    116  O         31.8150   82.9690   30.3030 O.2   138  ASN138     -0.2864
    117  CB        32.4600   85.5450   31.5630 C.3   138  ASN138      0.1181
    118  CG        33.2610   86.8380   31.3340 C.2   138  ASN138      0.2629
    119  OD1       33.4690   87.2490   30.1900 O.2   138  ASN138     -0.2716
    120  ND2       33.6980   87.4820   32.4140 N.am  138  ASN138     -0.0877
    121  N         28.5150   81.0900   27.9140 N.3   140  LEU140     -0.1245
    122  CA        27.8000   80.8140   26.6800 C.3   140  LEU140      0.1561
    123  C         27.3210   79.3630   26.7000 C.2   140  LEU140      0.2260
    124  O         28.0210   78.4770   27.2090 O.2   140  LEU140     -0.2867
    125  CB        28.7340   81.0320   25.4910 C.3   140  LEU140      0.0270
    126  CG        28.3670   81.9850   24.3520 C.3   140  LEU140      0.0019
    127  CD1       27.6160   83.2160   24.8210 C.3   140  LEU140      0.0001
    128  CD2       29.6410   82.3800   23.5930 C.3   140  LEU140      0.0001
    129  N         33.6100   81.0790   29.1490 N.3   153  ILE153     -0.1231
    130  CA        34.3840   81.2830   27.9160 C.3   153  ILE153      0.1692
    131  C         35.5540   82.2880   28.0020 C.2   153  ILE153      0.2592
    132  O         36.2720   82.5030   27.0150 O.2   153  ILE153     -0.2718
    133  CB        33.4690   81.6470   26.7090 C.3   153  ILE153      0.0266
    134  CG1       32.4310   82.7320   27.0630 C.3   153  ILE153      0.0019
    135  CG2       32.7250   80.4190   26.2310 C.3   153  ILE153      0.0020
    136  CD1       33.0010   84.1040   27.4470 C.3   153  ILE153      0.0001
    137  N         35.7370   82.9130   29.1570 N.am  154  ASP154     -0.1974
    138  CA        36.7870   83.9320   29.2930 C.3   154  ASP154      0.1709
    139  C         37.4790   83.8800   30.6520 C.2   154  ASP154      0.2293
    140  O         36.8210   83.8470   31.6970 O.2   154  ASP154     -0.2864
    141  CB        36.2170   85.3300   29.0580 C.3   154  ASP154      0.1436
    142  CG        37.2920   86.4100   29.0870 C.2   154  ASP154      0.3671
    143  OD1       37.9840   86.5850   28.0720 O.co2 154  ASP154     -0.2456
    144  OD2       37.4540   87.0740   30.1240 O.co2 154  ASP154     -0.2456
@<TRIPOS>BOND
     1     1     2    1
     2     8     6    1
     3    78    76    1
     4     6     7    1
     5     6     5    1
     6     2     5    1
     7     2     3    1
     8    29    28    2
     9    28    27    1
    10     3     9   am
    11     3     4    2
    12    76    77    1
    13    76    75    1
    14     9    10    1
    15    33    34    1
    16    75    72    1
    17    34    35    1
    18    34    37    1
    19    35    36    2
    20    27    26    1
    21    27    30    1
    22    12    11    2
    23    10    11    1
    24    20    19    2
    25    11    13   am
    26    31    30    1
    27    38    39    1
    28    30    32    1
    29    72    71    1
    30    72    73    1
    31    57    56    2
    32    82    81    2
    33    13    14    1
    34    17    14    1
    35    17    18    1
    36    40    41    2
    37    40    39    1
    38    71    64   am
    39    19    18    1
    40    19    21   am
    41    74    73    2
    42    73    79   am
    43    39    42    1
    44    54    55    1
    45    14    15    1
    46    91    92    1
    47    91    87   am
    48    86    87    1
    49    86    89    1
    50    86    85    1
    51    81    85   am
    52    81    80    1
    53    56    55    1
    54    56    62   am
    55    79    80    1
    56    92    93    1
    57    64    63    1
    58    64    65    2
    59    87    88    2
    60    89    90    1
    61    55    58    1
    62    63    62    1
    63    63    66    1
    64    80    83    1
    65    42    43    1
    66    15    22   am
    67    15    16    2
    68    93    94    2
    69    22    23    1
    70    58    59    1
    71    59    60    1
    72    67    66    1
    73    67    68    1
    74    43    44    1
    75    83    84    1
    76    25    24    2
    77    60    61    1
    78    23    24    1
    79   128   126    1
    80    68    70   ar
    81    68    69   ar
    82    44    45    1
    83   126   127    1
    84   126   125    1
    85    45    46    1
    86    53    51    1
    87    95    96    1
    88   103   101   ar
    89   125   122    1
    90   100   101    1
    91   100    99    1
    92   101   102   ar
    93   135   133    1
    94    51    52    1
    95    51    48    1
    96    96    99    1
    97    96    97    1
    98   122   123    1
    99   122   121    1
   100   123   124    2
   101   133   134    1
   102   133   130    1
   103    49    48    1
   104    49    50    2
   105   132   131    2
   106   134   136    1
   107    48    47    1
   108    98    97    2
   109   130   131    1
   110   130   129    1
   111   131   137   am
   112   143   142   ar
   113   107   106    2
   114   141   142    1
   115   141   138    1
   116   142   144   ar
   117   137   138    1
   118   138   139    1
   119   108   105    1
   120   108   109    1
   121   106   105    1
   122   106   113   am
   123   105   104    1
   124   109   110    1
   125   119   118    2
   126   116   115    2
   127   115   114    1
   128   114   113    1
   129   114   117    1
   130   139   140    2
   131   118   117    1
   132   118   120   am
   133   110   111   ar
   134   110   112   ar
