@<TRIPOS>MOLECULE
tmp/4mvhA00.pdb
 185 180 0 0 0
SMALL
GASTEIGER

@<TRIPOS>ATOM
      1  N        -15.6720   30.5320   95.1140 N.3    62  TYR62      -0.1227
      2  CA       -14.6340   30.5880   94.0710 C.3    62  TYR62       0.1736
      3  C        -13.2340   30.1800   94.5440 C.2    62  TYR62       0.2595
      4  O        -12.6280   29.2870   93.9540 O.2    62  TYR62      -0.2718
      5  CB       -14.5790   31.9840   93.4370 C.3    62  TYR62       0.0548
      6  CG       -13.5170   32.1190   92.3640 C.ar   62  TYR62      -0.0200
      7  CD1      -13.6660   31.5040   91.1230 C.ar   62  TYR62      -0.0009
      8  CD2      -12.3610   32.8570   92.5920 C.ar   62  TYR62      -0.0009
      9  CE1      -12.6930   31.6270   90.1410 C.ar   62  TYR62       0.0417
     10  CE2      -11.3850   32.9840   91.6210 C.ar   62  TYR62       0.0417
     11  CZ       -11.5500   32.3700   90.3980 C.ar   62  TYR62       0.1957
     12  OH       -10.5680   32.5030   89.4400 O.3    62  TYR62      -0.2866
     13  N        -12.7130   30.8350   95.5800 N.am   63  HIS63      -0.1975
     14  CA       -11.3330   30.5830   96.0410 C.3    63  HIS63       0.1656
     15  C        -11.2180   29.2880   96.8520 C.2    63  HIS63       0.2291
     16  O        -10.9560   29.3050   98.0590 O.2    63  HIS63      -0.2864
     17  CB       -10.7980   31.7690   96.8490 C.3    63  HIS63       0.0771
     18  CG       -10.4870   32.9720   96.0150 C.ar   63  HIS63       0.0820
     19  ND1      -11.1460   34.1740   96.1620 N.ar   63  HIS63      -0.2267
     20  CD2       -9.5870   33.1550   95.0200 C.ar   63  HIS63       0.1154
     21  CE1      -10.6650   35.0460   95.2940 C.ar   63  HIS63       0.1986
     22  NE2       -9.7160   34.4540   94.5910 N.ar   63  HIS63      -0.2212
     23  N         -3.0120   40.6840   92.8350 N.3   173  LEU173     -0.1245
     24  CA        -3.3310   41.3660   91.5690 C.3   173  LEU173      0.1561
     25  C         -2.8930   42.8340   91.5570 C.2   173  LEU173      0.2260
     26  O         -2.6870   43.4100   90.4890 O.2   173  LEU173     -0.2867
     27  CB        -4.8350   41.2630   91.2680 C.3   173  LEU173      0.0270
     28  CG        -5.2890   41.5550   89.8300 C.3   173  LEU173      0.0019
     29  CD1       -4.6150   40.6150   88.8380 C.3   173  LEU173      0.0001
     30  CD2       -6.8040   41.4480   89.7130 C.3   173  LEU173      0.0001
     31  N         -3.8230   32.2680   87.2280 N.3   212  ASP212     -0.1225
     32  CA        -4.8150   32.6470   88.2300 C.3   212  ASP212      0.1805
     33  C         -6.1200   33.1280   87.5940 C.2   212  ASP212      0.2597
     34  O         -7.2080   32.8470   88.0970 O.2   212  ASP212     -0.2718
     35  CB        -4.2500   33.7380   89.1590 C.3   212  ASP212      0.1424
     36  CG        -4.9530   33.7910   90.4990 C.2   212  ASP212      0.3668
     37  OD1       -5.6060   32.7970   90.8730 O.co2 212  ASP212     -0.2456
     38  OD2       -4.8430   34.8250   91.1900 O.co2 212  ASP212     -0.2456
     39  N         -6.0070   33.8520   86.4870 N.am  213  LEU213     -0.1979
     40  CA        -7.1790   34.3600   85.7870 C.3   213  LEU213      0.1596
     41  C         -7.6510   33.4260   84.6710 C.2   213  LEU213      0.2287
     42  O         -8.5170   33.8070   83.8890 O.2   213  LEU213     -0.2864
     43  CB        -6.8750   35.7390   85.1980 C.3   213  LEU213      0.0297
     44  CG        -6.4460   36.8180   86.1880 C.3   213  LEU213      0.0022
     45  CD1       -5.9580   38.0370   85.4270 C.3   213  LEU213      0.0001
     46  CD2       -7.5760   37.1810   87.1420 C.3   213  LEU213      0.0001
     47  N         -9.7030   31.2620   84.0970 N.3   215  SER215     -0.1202
     48  CA       -11.1370   31.0680   83.8560 C.3   215  SER215      0.2020
     49  C        -11.6280   31.8440   82.6300 C.2   215  SER215      0.2618
     50  O        -12.5950   31.4380   81.9890 O.2   215  SER215     -0.2717
     51  CB       -11.9670   31.4750   85.0780 C.3   215  SER215      0.2103
     52  OG       -12.1380   32.8800   85.1340 O.3   215  SER215     -0.2182
     53  N        -10.9650   32.9560   82.3140 N.am  216  VAL216     -0.1979
     54  CA       -11.3060   33.7550   81.1270 C.3   216  VAL216      0.1595
     55  C        -10.7740   33.1610   79.8130 C.2   216  VAL216      0.2287
     56  O        -11.0580   33.6870   78.7410 O.2   216  VAL216     -0.2864
     57  CB       -10.8030   35.2150   81.2450 C.3   216  VAL216      0.0276
     58  CG1      -11.2990   35.8550   82.5300 C.3   216  VAL216      0.0022
     59  CG2       -9.2850   35.2900   81.1530 C.3   216  VAL216      0.0022
     60  N        -18.0050   32.6000   86.4650 N.3   227  ALA227     -0.1245
     61  CA       -18.3080   33.9930   86.8360 C.3   227  ALA227      0.1562
     62  C        -19.3920   34.1050   87.9180 C.2   227  ALA227      0.2260
     63  O        -19.3300   34.9990   88.7640 O.2   227  ALA227     -0.2867
     64  CB       -18.6930   34.8110   85.6100 C.3   227  ALA227      0.0290
     65  N        -17.4600   33.6140   91.1650 N.3   230  ILE230     -0.1231
     66  CA       -16.6370   34.7880   91.4630 C.3   230  ILE230      0.1692
     67  C        -17.4980   35.9030   92.0580 C.2   230  ILE230      0.2592
     68  O        -17.1500   36.4800   93.0880 O.2   230  ILE230     -0.2718
     69  CB       -15.9020   35.3050   90.2000 C.3   230  ILE230      0.0266
     70  CG1      -14.8590   34.2810   89.7320 C.3   230  ILE230      0.0019
     71  CG2      -15.2250   36.6500   90.4610 C.3   230  ILE230      0.0020
     72  CD1      -14.3810   34.4860   88.3060 C.3   230  ILE230      0.0001
     73  N        -18.6240   36.1900   91.4080 N.am  231  TYR231     -0.1976
     74  CA       -19.5230   37.2630   91.8440 C.3   231  TYR231      0.1639
     75  C        -20.2470   36.9460   93.1520 C.2   231  TYR231      0.2290
     76  O        -20.5740   37.8610   93.9070 O.2   231  TYR231     -0.2864
     77  CB       -20.5290   37.6240   90.7450 C.3   231  TYR231      0.0560
     78  CG       -19.9650   38.5840   89.7190 C.ar  231  TYR231     -0.0198
     79  CD1      -19.7800   39.9320   90.0260 C.ar  231  TYR231     -0.0009
     80  CD2      -19.6150   38.1490   88.4420 C.ar  231  TYR231     -0.0009
     81  CE1      -19.2640   40.8160   89.0910 C.ar  231  TYR231      0.0417
     82  CE2      -19.0980   39.0250   87.5010 C.ar  231  TYR231      0.0417
     83  CZ       -18.9240   40.3560   87.8290 C.ar  231  TYR231      0.1957
     84  OH       -18.4110   41.2190   86.8900 O.3   231  TYR231     -0.2866
     85  N        -17.7490   38.1150   95.7070 N.3   234  PHE234     -0.1227
     86  CA       -17.6920   39.5730   95.6640 C.3   234  PHE234      0.1736
     87  C        -18.9220   40.2160   96.2930 C.2   234  PHE234      0.2595
     88  O        -18.7950   41.1420   97.0820 O.2   234  PHE234     -0.2718
     89  CB       -17.5280   40.0490   94.2150 C.3   234  PHE234      0.0547
     90  CG       -16.1110   40.0050   93.7100 C.ar  234  PHE234     -0.0202
     91  CD1      -15.1370   39.2260   94.3300 C.ar  234  PHE234     -0.0042
     92  CD2      -15.7550   40.7400   92.5890 C.ar  234  PHE234     -0.0042
     93  CE1      -13.8390   39.1990   93.8490 C.ar  234  PHE234     -0.0003
     94  CE2      -14.4590   40.7100   92.1010 C.ar  234  PHE234     -0.0003
     95  CZ       -13.5000   39.9390   92.7300 C.ar  234  PHE234     -0.0000
     96  N        -20.1060   39.7170   95.9510 N.am  235  TRP235     -0.1976
     97  CA       -21.3450   40.2670   96.5010 C.3   235  TRP235      0.1640
     98  C        -21.4380   40.0200   98.0070 C.2   235  TRP235      0.2290
     99  O        -21.8660   40.8960   98.7500 O.2   235  TRP235     -0.2864
    100  CB       -22.5640   39.7030   95.7730 C.3   235  TRP235      0.0576
    101  CG       -22.6490   40.1340   94.3210 C.ar  235  TRP235      0.0006
    102  CD1      -22.1110   41.2630   93.7650 C.ar  235  TRP235      0.0946
    103  CD2      -23.3220   39.4470   93.2550 C.ar  235  TRP235      0.0152
    104  NE1      -22.3960   41.3120   92.4280 N.ar  235  TRP235     -0.2442
    105  CE2      -23.1410   40.2140   92.0860 C.ar  235  TRP235      0.0810
    106  CE3      -24.0520   38.2540   93.1750 C.ar  235  TRP235      0.0012
    107  CZ2      -23.6670   39.8320   90.8510 C.ar  235  TRP235      0.0191
    108  CZ3      -24.5800   37.8760   91.9460 C.ar  235  TRP235      0.0001
    109  CH2      -24.3800   38.6630   90.8000 C.ar  235  TRP235      0.0015
    110  N        -19.2750   49.1920   92.9550 N.3   250  PRO250     -0.2102
    111  CA       -20.2950   48.4750   92.1680 C.3   250  PRO250      0.1504
    112  C        -19.9400   47.0130   91.8550 C.2   250  PRO250      0.2575
    113  O        -20.8310   46.1660   91.7630 O.2   250  PRO250     -0.2718
    114  CB       -20.3760   49.2890   90.8700 C.3   250  PRO250      0.0282
    115  CG       -19.9170   50.6560   91.2430 C.3   250  PRO250      0.0208
    116  CD       -18.8870   50.4670   92.3190 C.3   250  PRO250      0.0893
    117  N        -18.6460   46.7430   91.6890 N.am  251  MET251     -0.1980
    118  CA       -18.1120   45.3890   91.4880 C.3   251  MET251      0.1605
    119  C        -18.6210   44.3880   92.5310 C.2   251  MET251      0.2287
    120  O        -18.9340   43.2380   92.2060 O.2   251  MET251     -0.2864
    121  CB       -16.5810   45.4470   91.5460 C.3   251  MET251      0.0413
    122  CG       -15.8550   44.1870   91.1160 C.3   251  MET251      0.0598
    123  SD       -14.0870   44.4920   90.8890 S.3   251  MET251     -0.1393
    124  CE       -13.4370   44.1790   92.5280 C.3   251  MET251      0.0692
    125  N        -21.2990   44.9890   94.6160 N.3   253  ASP253     -0.1239
    126  CA       -22.6560   45.3580   95.0130 C.3   253  ASP253      0.1674
    127  C        -23.6760   44.5250   94.2330 C.2   253  ASP253      0.2266
    128  O        -23.7840   44.6580   93.0150 O.2   253  ASP253     -0.2867
    129  CB       -22.8710   46.8570   94.7620 C.3   253  ASP253      0.1410
    130  CG       -24.0320   47.4310   95.5510 C.2   253  ASP253      0.3668
    131  OD1      -24.9280   46.6680   95.9720 O.co2 253  ASP253     -0.2456
    132  OD2      -24.0480   48.6630   95.7460 O.co2 253  ASP253     -0.2456
    133  N        -26.4070   45.9940   91.7350 N.3   256  LYS256     -0.1245
    134  CA       -26.0400   46.3720   90.3680 C.3   256  LYS256      0.1561
    135  C        -25.5460   45.1680   89.5570 C.2   256  LYS256      0.2260
    136  O        -24.5270   45.2400   88.8680 O.2   256  LYS256     -0.2867
    137  CB       -24.9860   47.4820   90.4170 C.3   256  LYS256      0.0271
    138  CG       -25.4880   48.7320   91.1250 C.3   256  LYS256      0.0035
    139  CD       -24.3800   49.7140   91.4580 C.3   256  LYS256      0.0206
    140  CE       -24.9480   50.9030   92.2180 C.3   256  LYS256      0.1093
    141  NZ       -23.9330   51.9620   92.4610 N.3   256  LYS256     -0.1314
    142  N        -25.1560   45.3030   85.5150 N.3   259  GLU259     -0.1231
    143  CA       -23.9690   45.9480   84.9320 C.3   259  GLU259      0.1699
    144  C        -22.7820   44.9820   84.8010 C.2   259  GLU259      0.2592
    145  O        -21.7160   45.3740   84.3250 O.2   259  GLU259     -0.2718
    146  CB       -23.5420   47.1540   85.7770 C.3   259  GLU259      0.0402
    147  CG       -24.5950   48.2460   85.9100 C.3   259  GLU259      0.1161
    148  CD       -24.2510   49.2650   86.9840 C.2   259  GLU259      0.3649
    149  OE1      -25.1860   49.8130   87.6040 O.co2 259  GLU259     -0.2457
    150  OE2      -23.0480   49.5120   87.2170 O.co2 259  GLU259     -0.2457
    151  N        -22.9680   43.7310   85.2260 N.am  260  VAL260     -0.1980
    152  CA       -21.9210   42.7000   85.1510 C.3   260  VAL260      0.1595
    153  C        -21.2850   42.5840   83.7560 C.2   260  VAL260      0.2287
    154  O        -20.0560   42.5950   83.6410 O.2   260  VAL260     -0.2864
    155  CB       -22.4500   41.3240   85.6520 C.3   260  VAL260      0.0276
    156  CG1      -21.5970   40.1620   85.1520 C.3   260  VAL260      0.0022
    157  CG2      -22.5200   41.3140   87.1730 C.3   260  VAL260      0.0022
    158  N        -19.0060   45.4450   83.3390 N.3   263  GLY263     -0.1210
    159  CA       -17.9310   45.2680   84.3020 C.3   263  GLY263      0.1956
    160  C        -16.9030   44.2490   83.8410 C.2   263  GLY263      0.2611
    161  O        -15.7000   44.4610   84.0070 O.2   263  GLY263     -0.2717
    162  N        -17.3790   43.1450   83.2640 N.am  264  GLN264     -0.1979
    163  CA       -16.4970   42.1270   82.6900 C.3   264  GLN264      0.1601
    164  C        -15.8060   42.6340   81.4250 C.2   264  GLN264      0.2287
    165  O        -14.6140   42.3950   81.2310 O.2   264  GLN264     -0.2864
    166  CB       -17.2630   40.8320   82.3920 C.3   264  GLN264      0.0394
    167  CG       -17.6250   40.0360   83.6360 C.3   264  GLN264      0.0908
    168  CD       -16.4210   39.3820   84.2830 C.2   264  GLN264      0.2608
    169  OE1      -16.0440   39.7220   85.4040 O.2   264  GLN264     -0.2717
    170  NE2      -15.8060   38.4460   83.5770 N.am  264  GLN264     -0.0878
    171  N        -14.8940   45.6830   80.7440 N.3   266  GLY266     -0.1210
    172  CA       -13.8120   46.5660   81.1970 C.3   266  GLY266      0.1956
    173  C        -12.6310   45.8380   81.8230 C.2   266  GLY266      0.2611
    174  O        -11.4960   46.3190   81.7610 O.2   266  GLY266     -0.2717
    175  N        -12.8970   44.6810   82.4270 N.am  267  PHE267     -0.1976
    176  CA       -11.8520   43.8490   83.0260 C.3   267  PHE267      0.1639
    177  C        -10.9980   43.1640   81.9550 C.2   267  PHE267      0.2290
    178  O         -9.7720   43.1060   82.0730 O.2   267  PHE267     -0.2864
    179  CB       -12.4720   42.8010   83.9540 C.3   267  PHE267      0.0560
    180  CG       -11.4670   41.8840   84.5940 C.ar  267  PHE267     -0.0200
    181  CD1      -10.6110   42.3520   85.5850 C.ar  267  PHE267     -0.0042
    182  CD2      -11.3760   40.5540   84.2100 C.ar  267  PHE267     -0.0042
    183  CE1       -9.6870   41.5100   86.1800 C.ar  267  PHE267     -0.0003
    184  CE2      -10.4500   39.7080   84.7990 C.ar  267  PHE267     -0.0003
    185  CZ        -9.6050   40.1860   85.7870 C.ar  267  PHE267     -0.0000
@<TRIPOS>BOND
     1    56    55    2
     2    55    54    1
     3   171   172    1
     4    54    57    1
     5    54    53    1
     6    59    57    1
     7   172   173    1
     8   165   164    2
     9    57    58    1
    10   164   163    1
    11   174   173    2
    12   173   175   am
    13   177   178    2
    14   177   176    1
    15    50    49    2
    16    53    49   am
    17   166   163    1
    18   166   167    1
    19   175   176    1
    20    49    48    1
    21   163   162    1
    22   176   179    1
    23   162   160   am
    24   158   159    1
    25   170   168   am
    26   167   168    1
    27   154   153    2
    28   153   152    1
    29   160   161    2
    30   160   159    1
    31    48    47    1
    32    48    51    1
    33    42    41    2
    34   179   180    1
    35   182   180   ar
    36   182   184   ar
    37   168   169    2
    38   145   144    2
    39   180   181   ar
    40    41    40    1
    41   184   185   ar
    42   144   143    1
    43   144   151   am
    44   143   142    1
    45   143   146    1
    46    51    52    1
    47   152   151    1
    48   152   155    1
    49   156   155    1
    50    43    40    1
    51    43    44    1
    52    45    44    1
    53   181   183   ar
    54    64    61    1
    55   155   157    1
    56   146   147    1
    57    40    39    1
    58   185   183   ar
    59   147   148    1
    60    44    46    1
    61    60    61    1
    62    39    33   am
    63    61    62    1
    64    84    83    1
    65   148   150   ar
    66   148   149   ar
    67    31    32    1
    68    82    83   ar
    69    82    80   ar
    70    33    34    2
    71    33    32    1
    72    83    81   ar
    73    62    63    2
    74    32    35    1
    75    72    70    1
    76    80    78   ar
    77    29    28    1
    78   136   135    2
    79    81    79   ar
    80    35    36    1
    81    12    11    1
    82   135   134    1
    83    30    28    1
    84    78    79   ar
    85    78    77    1
    86    70    69    1
    87    28    27    1
    88     9    11   ar
    89     9     7   ar
    90    69    71    1
    91    69    66    1
    92   134   137    1
    93   134   133    1
    94    11    10   ar
    95   137   138    1
    96    26    25    2
    97    36    37   ar
    98    36    38   ar
    99    77    74    1
   100   109   107   ar
   101   109   108   ar
   102   107   105   ar
   103   114   115    1
   104   114   111    1
   105   123   122    1
   106   123   124    1
   107   122   121    1
   108     7     6   ar
   109   138   139    1
   110    65    66    1
   111   115   116    1
   112    27    24    1
   113    73    74    1
   114    73    67   am
   115   139   140    1
   116    66    67    1
   117   118   121    1
   118   118   117    1
   119   118   119    1
   120    25    24    1
   121    24    23    1
   122    10     8   ar
   123   117   112   am
   124   113   112    2
   125    74    75    1
   126   112   111    1
   127   108   106   ar
   128    67    68    2
   129   105   104   ar
   130   105   103   ar
   131    94    92   ar
   132    94    95   ar
   133   111   110    1
   134   120   119    2
   135   140   141    1
   136   116   110    1
   137     6     8   ar
   138     6     5    1
   139   104   102   ar
   140    92    90   ar
   141    95    93   ar
   142   128   127    2
   143    75    76    2
   144   106   103   ar
   145   103   101   ar
   146     5     2    1
   147    90    89    1
   148    90    91   ar
   149   102   101   ar
   150    93    91   ar
   151     4     3    2
   152     2     3    1
   153     2     1    1
   154    89    86    1
   155   127   126    1
   156   101   100    1
   157     3    13   am
   158    22    20   ar
   159    22    21   ar
   160   125   126    1
   161   129   126    1
   162   129   130    1
   163    20    18   ar
   164    21    19   ar
   165   130   132   ar
   166   130   131   ar
   167    13    14    1
   168    86    85    1
   169    86    87    1
   170   100    97    1
   171    96    87   am
   172    96    97    1
   173    18    19   ar
   174    18    17    1
   175    14    17    1
   176    14    15    1
   177    87    88    2
   178    97    98    1
   179    15    16    2
   180    98    99    2
