@<TRIPOS>MOLECULE
tmp/4mvjG00.pdb
 73 70 0 0 0
SMALL
GASTEIGER

@<TRIPOS>ATOM
      1  N         28.0760  -21.0500   25.2390 N.3    11  GLY11      -0.1210
      2  CA        27.6930  -22.3630   25.7620 C.3    11  GLY11       0.1956
      3  C         27.1850  -22.2280   27.1850 C.2    11  GLY11       0.2612
      4  O         26.7220  -21.1260   27.5840 O.2    11  GLY11      -0.2717
      5  N         27.2580  -23.3010   27.9720 N.am   12  ARG12      -0.1965
      6  CA        26.7300  -23.2370   29.3480 C.3    12  ARG12       0.1729
      7  C         27.3700  -22.1070   30.1690 C.2    12  ARG12       0.2616
      8  O         26.6660  -21.2840   30.7410 O.2    12  ARG12      -0.2715
      9  CB        26.8880  -24.5650   30.0850 C.3    12  ARG12       0.0348
     10  CG        26.1180  -25.7410   29.5000 C.3    12  ARG12       0.0492
     11  CD        24.6220  -25.4570   29.4640 C.3    12  ARG12       0.2205
     12  NE        24.0560  -25.2210   30.7870 N.pl3  12  ARG12      -0.0865
     13  CZ        22.8580  -24.6950   31.0120 C.cat  12  ARG12       0.5346
     14  NH1       22.1140  -24.3050   30.0020 N.pl3  12  ARG12       0.1354
     15  NH2       22.4100  -24.5400   32.2530 N.pl3  12  ARG12       0.1354
     16  N         28.6910  -22.0460   30.2010 N.am   13  ILE13      -0.1963
     17  CA        29.3590  -21.0200   30.9480 C.3    13  ILE13       0.1727
     18  C         29.1000  -19.6560   30.3650 C.2    13  ILE13       0.2617
     19  O         28.7660  -18.7200   31.0960 O.2    13  ILE13      -0.2715
     20  CB        30.8660  -21.2720   31.0260 C.3    13  ILE13       0.0290
     21  CG1       31.1460  -22.5710   31.8000 C.3    13  ILE13       0.0022
     22  CG2       31.5700  -20.1200   31.7250 C.3    13  ILE13       0.0023
     23  CD1       30.5940  -22.6240   33.2370 C.3    13  ILE13       0.0001
     24  N         29.1930  -19.5290   29.0540 N.am   14  GLY14      -0.1940
     25  CA        28.9720  -18.2200   28.4390 C.3    14  GLY14       0.2014
     26  C         27.6180  -17.6450   28.8130 C.2    14  GLY14       0.2638
     27  O         27.4970  -16.4840   29.1670 O.2    14  GLY14      -0.2714
     28  N         26.6060  -18.4920   28.7940 N.am   15  ARG15      -0.1977
     29  CA        25.2600  -18.0510   29.0880 C.3    15  ARG15       0.1597
     30  C         24.9900  -17.7390   30.5270 C.2    15  ARG15       0.2287
     31  O         24.2200  -16.8400   30.8190 O.2    15  ARG15      -0.2864
     32  CB        24.2600  -19.0690   28.5710 C.3    15  ARG15       0.0334
     33  CG        24.2790  -19.1250   27.0580 C.3    15  ARG15       0.0492
     34  CD        23.1320  -19.8070   26.3960 C.3    15  ARG15       0.2205
     35  NE        22.7140  -21.0970   26.9010 N.pl3  15  ARG15      -0.0865
     36  CZ        23.1280  -22.2980   26.5130 C.cat  15  ARG15       0.5346
     37  NH1       24.1260  -22.5460   25.6510 N.pl3  15  ARG15       0.1354
     38  NH2       22.5140  -23.3070   27.0660 N.pl3  15  ARG15       0.1354
     39  N         35.2310  -18.4670   26.3760 N.3    95  ALA95      -0.1231
     40  CA        34.4590  -19.6240   26.8800 C.3    95  ALA95       0.1694
     41  C         34.0830  -20.6670   25.8710 C.2    95  ALA95       0.2593
     42  O         33.0660  -21.3310   26.0130 O.2    95  ALA95      -0.2718
     43  CB        33.1900  -19.1270   27.5880 C.3    95  ALA95       0.0304
     44  N         34.8980  -20.8260   24.8530 N.am   96  THR96      -0.1939
     45  CA        34.6390  -21.8340   23.8330 C.3    96  THR96       0.2028
     46  C         35.2900  -23.1670   24.1820 C.2    96  THR96       0.2642
     47  O         34.9810  -24.1800   23.5750 O.2    96  THR96      -0.2714
     48  CB        35.2630  -21.4180   22.4940 C.3    96  THR96       0.1808
     49  OG1       36.6980  -21.4800   22.5930 O.3    96  THR96      -0.2208
     50  CG2       34.8220  -20.0180   22.1130 C.3    96  THR96       0.0379
     51  N         36.2280  -23.1450   25.1310 N.am   97  GLY97      -0.1954
     52  CA        36.9660  -24.3390   25.5120 C.3    97  GLY97       0.1869
     53  C         38.0840  -24.7030   24.5370 C.2    97  GLY97       0.2309
     54  O         38.8220  -25.6440   24.7670 O.2    97  GLY97      -0.2863
     55  N         27.6470  -33.2280   32.0670 N.3   178  THR178     -0.1203
     56  CA        27.9850  -32.0070   31.3280 C.3   178  THR178      0.1994
     57  C         27.8600  -32.2190   29.8430 C.2   178  THR178      0.2618
     58  O         27.6150  -33.3390   29.3770 O.2   178  THR178     -0.2717
     59  CB        29.4020  -31.5010   31.5810 C.3   178  THR178      0.1784
     60  OG1       30.3470  -32.3760   30.9510 O.3   178  THR178     -0.2211
     61  CG2       29.6680  -31.3430   33.0950 C.3   178  THR178      0.0376
     62  N         28.0470  -31.1250   29.1010 N.am  179  ALA179     -0.1965
     63  CA        27.9140  -31.1280   27.6440 C.3   179  ALA179      0.1728
     64  C         28.8420  -32.0640   26.8890 C.2   179  ALA179      0.2616
     65  O         28.4910  -32.4860   25.7910 O.2   179  ALA179     -0.2715
     66  CB        28.0620  -29.7360   27.1190 C.3   179  ALA179      0.0334
     67  N         29.9900  -32.4130   27.4660 N.am  180  THR180     -0.1951
     68  CA        30.8980  -33.3380   26.7980 C.3   180  THR180      0.1897
     69  C         30.4150  -34.7950   26.8360 C.2   180  THR180      0.2313
     70  O         30.9490  -35.6260   26.1070 O.2   180  THR180     -0.2863
     71  CB        32.2970  -33.3070   27.3800 C.3   180  THR180      0.1794
     72  OG1       32.2850  -33.8210   28.7170 O.3   180  THR180     -0.2208
     73  CG2       32.8410  -31.8970   27.3900 C.3   180  THR180      0.0378
@<TRIPOS>BOND
     1    50    48    1
     2    48    49    1
     3    48    45    1
     4    47    46    2
     5    45    46    1
     6    45    44    1
     7    46    51   am
     8    53    54    2
     9    53    52    1
    10    44    41   am
    11    51    52    1
    12     1     2    1
    13    37    36    1
    14     2     3    1
    15    65    64    2
    16    41    42    2
    17    41    40    1
    18    70    69    2
    19    39    40    1
    20    34    35    1
    21    34    33    1
    22    36    35    2
    23    36    38    1
    24    68    69    1
    25    68    71    1
    26    68    67    1
    27    40    43    1
    28    64    67   am
    29    64    63    1
    30    33    32    1
    31    66    63    1
    32     3     4    2
    33     3     5   am
    34    71    73    1
    35    71    72    1
    36    63    62    1
    37     5     6    1
    38    25    26    1
    39    25    24    1
    40    32    29    1
    41    28    26   am
    42    28    29    1
    43    26    27    2
    44    24    18   am
    45    29    30    1
    46    62    57   am
    47     6     9    1
    48     6     7    1
    49    58    57    2
    50    11    10    1
    51    11    12    1
    52    10     9    1
    53    57    56    1
    54    14    13    1
    55     7    16   am
    56     7     8    2
    57    16    17    1
    58    18    17    1
    59    18    19    2
    60    30    31    2
    61    12    13    2
    62    17    20    1
    63    60    59    1
    64    13    15    1
    65    20    22    1
    66    20    21    1
    67    56    59    1
    68    56    55    1
    69    59    61    1
    70    21    23    1
