@<TRIPOS>MOLECULE
tmp/4mvkA00.pdb
 251 242 0 0 0
SMALL
GASTEIGER

@<TRIPOS>ATOM
      1  N        -24.1640   -1.2960   13.7630 N.3    27  VAL27      -0.1245
      2  CA       -23.2650   -0.3510   13.0870 C.3    27  VAL27       0.1561
      3  C        -23.2130    0.9000   13.9650 C.2    27  VAL27       0.2260
      4  O        -24.1320    1.7310   13.9670 O.2    27  VAL27      -0.2867
      5  CB       -23.7710   -0.0360   11.6820 C.3    27  VAL27       0.0252
      6  CG1      -22.8350    1.0170   11.0220 C.3    27  VAL27       0.0019
      7  CG2      -23.6950   -1.3140   10.8180 C.3    27  VAL27       0.0019
      8  N        -19.0200    4.7460   11.3970 N.3    30  VAL30      -0.1245
      9  CA       -18.6020    4.5700    9.9800 C.3    30  VAL30       0.1561
     10  C        -17.7260    5.7170    9.5630 C.2    30  VAL30       0.2260
     11  O        -17.9720    6.8660    9.9480 O.2    30  VAL30      -0.2867
     12  CB       -19.8440    4.3810    9.0360 C.3    30  VAL30       0.0252
     13  CG1      -20.7660    5.5870    9.0930 C.3    30  VAL30       0.0019
     14  CG2      -19.3510    4.0880    7.6040 C.3    30  VAL30       0.0019
     15  N        -16.4440    9.6390    0.9720 N.3    34  LYS34      -0.1245
     16  CA       -17.2080   10.8320    0.4990 C.3    34  LYS34       0.1561
     17  C        -17.6760   11.9250    1.5480 C.2    34  LYS34       0.2260
     18  O        -17.8000   11.6590    2.7590 O.2    34  LYS34      -0.2867
     19  CB       -18.4530   10.3190   -0.2000 C.3    34  LYS34       0.0271
     20  CG       -18.4350    8.8490   -0.4960 C.3    34  LYS34       0.0035
     21  CD       -19.8240    8.2380   -0.4260 C.3    34  LYS34       0.0206
     22  CE       -19.8560    6.9780   -1.2820 C.3    34  LYS34       0.1093
     23  NZ       -20.9100    5.9730   -0.9360 N.3    34  LYS34      -0.1314
     24  N        -27.8600   10.0140   10.5930 N.3    43  TRP43      -0.1227
     25  CA       -27.8070    8.6030   10.1150 C.3    43  TRP43       0.1737
     26  C        -28.1530    7.6900   11.2340 C.2    43  TRP43       0.2595
     27  O        -27.5020    7.7250   12.2840 O.2    43  TRP43      -0.2718
     28  CB       -26.4120    8.3100    9.6550 C.3    43  TRP43       0.0564
     29  CG       -26.0960    8.8890    8.3110 C.ar   43  TRP43       0.0003
     30  CD1      -26.8670    9.7960    7.5540 C.ar   43  TRP43       0.0946
     31  CD2      -24.9060    8.6040    7.5180 C.ar   43  TRP43       0.0152
     32  NE1      -26.2170   10.0840    6.3740 N.ar   43  TRP43      -0.2442
     33  CE2      -25.0310    9.3780    6.2910 C.ar   43  TRP43       0.0810
     34  CE3      -23.7750    7.8410    7.7190 C.ar   43  TRP43       0.0012
     35  CZ2      -24.0340    9.3630    5.3160 C.ar   43  TRP43       0.0191
     36  CZ3      -22.7690    7.8320    6.7310 C.ar   43  TRP43       0.0001
     37  CH2      -22.9150    8.5450    5.5440 C.ar   43  TRP43       0.0015
     38  N        -29.2210    6.8770   11.0890 N.am   44  LYS44      -0.1966
     39  CA       -29.6480    5.9940   12.1790 C.3    44  LYS44       0.1728
     40  C        -28.8410    4.6940   12.2630 C.2    44  LYS44       0.2616
     41  O        -28.4360    4.0940   11.2690 O.2    44  LYS44      -0.2715
     42  CB       -31.1260    5.6520   11.9630 C.3    44  LYS44       0.0311
     43  CG       -32.0580    6.8720   12.0300 C.3    44  LYS44       0.0038
     44  CD       -33.5050    6.3550   11.7610 C.3    44  LYS44       0.0206
     45  CE       -34.6320    7.3780   11.6550 C.3    44  LYS44       0.1093
     46  NZ       -34.2460    8.3770   10.6160 N.3    44  LYS44      -0.1314
     47  N        -28.4800    4.2840   13.4900 N.am   45  MET45      -0.1963
     48  CA       -27.8770    2.9680   13.7470 C.3    45  MET45       0.1736
     49  C        -28.7620    1.8950   13.0300 C.2    45  MET45       0.2616
     50  O        -29.9860    1.9670   13.0470 O.2    45  MET45      -0.2715
     51  CB       -27.8500    2.7680   15.2620 C.3    45  MET45       0.0427
     52  CG       -27.0770    1.5060   15.6270 C.3    45  MET45       0.0599
     53  SD       -26.8390    1.4620   17.4310 S.3    45  MET45      -0.1393
     54  CE       -25.8140    2.8570   17.7530 C.3    45  MET45       0.0692
     55  N        -28.0640    0.9200   12.4880 N.am   46  TYR46      -0.1974
     56  CA       -28.7420   -0.3090   11.9570 C.3    46  TYR46       0.1639
     57  C        -27.9870   -1.4990   12.4530 C.2    46  TYR46       0.2290
     58  O        -26.8960   -1.3720   13.0320 O.2    46  TYR46      -0.2864
     59  CB       -28.9600   -0.2360   10.3980 C.3    46  TYR46       0.0560
     60  CG       -27.7310   -0.2880    9.5220 C.ar   46  TYR46      -0.0198
     61  CD1      -27.0750    0.9020    9.1300 C.ar   46  TYR46      -0.0009
     62  CD2      -27.3200   -1.5050    8.9950 C.ar   46  TYR46      -0.0009
     63  CE1      -25.9800    0.8390    8.2510 C.ar   46  TYR46       0.0417
     64  CE2      -26.2690   -1.5530    8.0830 C.ar   46  TYR46       0.0417
     65  CZ       -25.6290   -0.3830    7.7340 C.ar   46  TYR46       0.1957
     66  OH       -24.6390   -0.4680    6.7360 O.3    46  TYR46      -0.2866
     67  N        -26.4900   -5.6580   11.4830 N.3    48  THR48      -0.1218
     68  CA       -26.1320   -6.6190   10.4200 C.3    48  THR48       0.1862
     69  C        -25.9680   -7.9490   11.1530 C.2    48  THR48       0.2287
     70  O        -25.1840   -8.0370   12.1350 O.2    48  THR48      -0.2866
     71  CB       -24.8980   -6.1710    9.6640 C.3    48  THR48       0.1770
     72  OG1      -25.3280   -4.9990    8.9330 O.3    48  THR48      -0.2211
     73  CG2      -24.6180   -7.2510    8.6060 C.3    48  THR48       0.0375
     74  N        -24.4770  -11.6560   10.6760 N.3    50  TYR50      -0.1241
     75  CA       -23.5850  -12.4990    9.8810 C.3    50  TYR50       0.1605
     76  C        -23.8930  -13.9680   10.1880 C.2    50  TYR50       0.2264
     77  O        -23.5610  -14.3870   11.3370 O.2    50  TYR50      -0.2867
     78  CB       -22.1140  -12.2520   10.2170 C.3    50  TYR50       0.0534
     79  CG       -21.5600  -10.9370    9.5550 C.ar   50  TYR50      -0.0201
     80  CD1      -21.8560   -9.6470   10.0990 C.ar   50  TYR50      -0.0009
     81  CD2      -20.7140  -11.0210    8.4710 C.ar   50  TYR50      -0.0009
     82  CE1      -21.3170   -8.5130    9.4900 C.ar   50  TYR50       0.0417
     83  CE2      -20.2620   -9.8990    7.8360 C.ar   50  TYR50       0.0417
     84  CZ       -20.4620   -8.6700    8.4030 C.ar   50  TYR50       0.1957
     85  OH       -19.9240   -7.5700    7.7650 O.3    50  TYR50      -0.2866
     86  N        -28.9530   -7.2750    6.8010 N.3    62  SER62      -0.1202
     87  CA       -29.0520   -5.9760    7.5570 C.3    62  SER62       0.2020
     88  C        -30.4910   -5.6110    7.7140 C.2    62  SER62       0.2619
     89  O        -31.3540   -5.8450    6.8090 O.2    62  SER62      -0.2717
     90  CB       -28.2570   -4.8530    6.8900 C.3    62  SER62       0.2103
     91  OG       -26.9110   -5.2370    6.7380 O.3    62  SER62      -0.2182
     92  N        -30.7890   -4.9670    8.8450 N.am   63  VAL63      -0.1965
     93  CA       -32.1320   -4.5330    9.1530 C.3    63  VAL63       0.1727
     94  C        -31.9810   -3.0790    9.6750 C.2    63  VAL63       0.2617
     95  O        -31.0800   -2.7770   10.5170 O.2    63  VAL63      -0.2715
     96  CB       -32.8040   -5.3960   10.2330 C.3    63  VAL63       0.0290
     97  CG1      -31.9570   -5.5870   11.4640 C.3    63  VAL63       0.0023
     98  CG2      -34.2070   -4.8560   10.6230 C.3    63  VAL63       0.0023
     99  N        -32.8790   -2.2270    9.1990 N.am   64  GLY64      -0.1940
    100  CA       -32.8160   -0.8000    9.6270 C.3    64  GLY64       0.2014
    101  C        -34.1640   -0.1440    9.5210 C.2    64  GLY64       0.2639
    102  O        -35.1370   -0.7170    9.0550 O.2    64  GLY64      -0.2714
    103  N        -34.2710    1.1000   10.0140 N.am   65  PHE65      -0.1959
    104  CA       -35.5420    1.8670   10.0540 C.3    65  PHE65       0.1771
    105  C        -35.3860    3.0120    9.0730 C.2    65  PHE65       0.2620
    106  O        -34.3760    3.7510    9.0900 O.2    65  PHE65      -0.2715
    107  CB       -35.7350    2.3950   11.5000 C.3    65  PHE65       0.0574
    108  CG       -36.9540    3.2870   11.6960 C.ar   65  PHE65      -0.0200
    109  CD1      -38.1520    2.9420   11.1270 C.ar   65  PHE65      -0.0042
    110  CD2      -36.8450    4.4690   12.4670 C.ar   65  PHE65      -0.0042
    111  CE1      -39.2890    3.7340   11.3010 C.ar   65  PHE65      -0.0003
    112  CE2      -37.9900    5.2790   12.6400 C.ar   65  PHE65      -0.0003
    113  CZ       -39.1750    4.9230   12.0360 C.ar   65  PHE65      -0.0000
    114  N        -36.3150    3.1170    8.1100 N.am   66  GLY66      -0.1954
    115  CA       -36.3400    4.2560    7.1900 C.3    66  GLY66       0.1869
    116  C        -37.1420    5.3780    7.8270 C.2    66  GLY66       0.2309
    117  O        -36.8330    5.8040    8.9530 O.2    66  GLY66      -0.2863
    118  N        -36.6210   -1.8710    6.8760 N.3    71  HIS71      -0.1226
    119  CA       -35.9940   -2.3160    5.6340 C.3    71  HIS71       0.1752
    120  C        -35.0180   -3.4290    5.9370 C.2    71  HIS71       0.2596
    121  O        -34.4130   -3.4950    7.0360 O.2    71  HIS71      -0.2718
    122  CB       -35.2740   -1.1370    4.9980 C.3    71  HIS71       0.0759
    123  CG       -36.2090   -0.0010    4.6580 C.ar   71  HIS71       0.0818
    124  ND1      -36.8050    0.1140    3.4560 N.ar   71  HIS71      -0.2268
    125  CD2      -36.7090    1.0150    5.4540 C.ar   71  HIS71       0.1154
    126  CE1      -37.6110    1.2100    3.4510 C.ar   71  HIS71       0.1986
    127  NE2      -37.5680    1.7590    4.6740 N.ar   71  HIS71      -0.2212
    128  N        -34.8450   -4.3210    4.9640 N.am   72  TYR72      -0.1962
    129  CA       -33.8910   -5.4440    5.0340 C.3    72  TYR72       0.1771
    130  C        -33.0370   -5.5150    3.7800 C.2    72  TYR72       0.2619
    131  O        -33.4730   -5.1200    2.7010 O.2    72  TYR72      -0.2715
    132  CB       -34.6480   -6.7980    5.2000 C.3    72  TYR72       0.0574
    133  CG       -35.6370   -6.6790    6.3120 C.ar   72  TYR72      -0.0198
    134  CD1      -36.8460   -6.0380    6.1050 C.ar   72  TYR72      -0.0009
    135  CD2      -35.3140   -7.1140    7.6020 C.ar   72  TYR72      -0.0009
    136  CE1      -37.7520   -5.8470    7.1540 C.ar   72  TYR72       0.0417
    137  CE2      -36.2310   -6.9630    8.6540 C.ar   72  TYR72       0.0417
    138  CZ       -37.4300   -6.3040    8.4130 C.ar   72  TYR72       0.1957
    139  OH       -38.3550   -6.1240    9.4110 O.3    72  TYR72      -0.2866
    140  N        -31.8170   -6.0130    3.9440 N.am   73  LYS73      -0.1977
    141  CA       -30.8500   -6.1760    2.8320 C.3    73  LYS73       0.1596
    142  C        -30.1250   -7.5140    3.0240 C.2    73  LYS73       0.2287
    143  O        -29.5420   -7.7160    4.0780 O.2    73  LYS73      -0.2864
    144  CB       -29.8560   -4.9780    2.8930 C.3    73  LYS73       0.0298
    145  CG       -28.7440   -5.0070    1.8640 C.3    73  LYS73       0.0038
    146  CD       -27.7260   -3.8580    2.1520 C.3    73  LYS73       0.0206
    147  CE       -26.5320   -4.0310    1.2390 C.3    73  LYS73       0.1093
    148  NZ       -25.7910   -2.7620    1.1850 N.3    73  LYS73      -0.1314
    149  N        -27.5130  -10.5380    1.4190 N.3    75  ARG75      -0.1245
    150  CA       -26.4890  -10.8630    0.4220 C.3    75  ARG75       0.1563
    151  C        -25.5470  -11.8930    1.0230 C.2    75  ARG75       0.2260
    152  O        -25.6790  -12.2000    2.2110 O.2    75  ARG75      -0.2867
    153  CB       -25.7230   -9.5890   -0.0710 C.3    75  ARG75       0.0307
    154  CG       -24.9510   -8.8820    1.0200 C.3    75  ARG75       0.0489
    155  CD       -25.7930   -8.1850    2.0880 C.3    75  ARG75       0.2205
    156  NE       -24.9870   -7.1160    2.7200 N.pl3  75  ARG75      -0.0865
    157  CZ       -25.3820   -6.5250    3.8610 C.cat  75  ARG75       0.5346
    158  NH1      -26.5510   -6.9290    4.5240 N.pl3  75  ARG75       0.1354
    159  NH2      -24.6280   -5.4930    4.3150 N.pl3  75  ARG75       0.1354
    160  N        -21.4860  -13.1900    1.6590 N.3    77  PHE77      -0.1241
    161  CA       -20.0530  -12.9040    1.6500 C.3    77  PHE77       0.1605
    162  C        -19.3600  -14.2570    1.5540 C.2    77  PHE77       0.2264
    163  O        -19.6010  -15.1960    2.3790 O.2    77  PHE77      -0.2867
    164  CB       -19.5220  -12.1840    2.8840 C.3    77  PHE77       0.0534
    165  CG       -19.9710  -10.7250    3.0560 C.ar   77  PHE77      -0.0203
    166  CD1      -20.8050  -10.0590    2.1230 C.ar   77  PHE77      -0.0042
    167  CD2      -19.4680  -10.0290    4.1760 C.ar   77  PHE77      -0.0042
    168  CE1      -21.1460   -8.6900    2.3000 C.ar   77  PHE77      -0.0003
    169  CE2      -19.8550   -8.6730    4.3460 C.ar   77  PHE77      -0.0003
    170  CZ       -20.6430   -8.0300    3.4260 C.ar   77  PHE77      -0.0000
    171  N        -18.0320  -10.0160   -1.9700 N.3    88  LEU88      -0.1245
    172  CA       -19.4660  -10.0530   -2.1260 C.3    88  LEU88       0.1561
    173  C        -19.8900  -10.9600   -3.2330 C.2    88  LEU88       0.2260
    174  O        -19.4160  -10.8110   -4.4040 O.2    88  LEU88      -0.2867
    175  CB       -19.9480   -8.6040   -2.3890 C.3    88  LEU88       0.0270
    176  CG       -21.4200   -8.4250   -2.7770 C.3    88  LEU88       0.0019
    177  CD1      -22.3110   -8.8460   -1.6120 C.3    88  LEU88       0.0001
    178  CD2      -21.6600   -6.9270   -3.1530 C.3    88  LEU88       0.0001
    179  N        -22.8150   -4.6530   -8.2310 N.3    98  THR98      -0.1218
    180  CA       -21.9590   -4.2410   -7.0600 C.3    98  THR98       0.1862
    181  C        -20.9170   -5.3370   -6.8150 C.2    98  THR98       0.2287
    182  O        -21.1680   -6.5410   -6.9350 O.2    98  THR98      -0.2866
    183  CB       -22.7910   -4.0150   -5.7550 C.3    98  THR98       0.1770
    184  OG1      -23.8210   -3.0330   -6.0480 O.3    98  THR98      -0.2211
    185  CG2      -21.9570   -3.5110   -4.5460 C.3    98  THR98       0.0375
    186  N        -17.4970   -6.0480   -3.9690 N.3   100  ALA100     -0.1245
    187  CA       -16.8700   -5.5370   -2.7530 C.3   100  ALA100      0.1562
    188  C        -15.7440   -6.4360   -2.2620 C.2   100  ALA100      0.2260
    189  O        -15.8360   -7.6770   -2.4500 O.2   100  ALA100     -0.2867
    190  CB       -17.8970   -5.3600   -1.6120 C.3   100  ALA100      0.0290
    191  N        -13.9800   -1.9490    4.0000 N.3   117  PHE117     -0.1241
    192  CA       -14.6580   -2.3350    2.7680 C.3   117  PHE117      0.1605
    193  C        -14.2260   -1.4330    1.6330 C.2   117  PHE117      0.2264
    194  O        -14.1610   -0.2140    1.7370 O.2   117  PHE117     -0.2867
    195  CB       -16.1670   -2.0400    2.9470 C.3   117  PHE117      0.0534
    196  CG       -16.8990   -2.9530    3.9540 C.ar  117  PHE117     -0.0203
    197  CD1      -17.6020   -4.0770    3.4920 C.ar  117  PHE117     -0.0042
    198  CD2      -16.8830   -2.6420    5.3190 C.ar  117  PHE117     -0.0042
    199  CE1      -18.2890   -4.9010    4.4420 C.ar  117  PHE117     -0.0003
    200  CE2      -17.5290   -3.4750    6.2460 C.ar  117  PHE117     -0.0003
    201  CZ       -18.2440   -4.5900    5.8070 C.ar  117  PHE117     -0.0000
    202  N        -15.6750   -0.8790   -2.3570 N.3   119  VAL119     -0.1245
    203  CA       -16.9510   -1.1730   -3.0460 C.3   119  VAL119      0.1561
    204  C        -16.9590   -0.5570   -4.4200 C.2   119  VAL119      0.2260
    205  O        -16.4260    0.5640   -4.5850 O.2   119  VAL119     -0.2867
    206  CB       -18.1380   -0.5850   -2.2120 C.3   119  VAL119      0.0252
    207  CG1      -19.4520   -0.8880   -2.9170 C.3   119  VAL119      0.0019
    208  CG2      -18.1060   -1.1800   -0.7890 C.3   119  VAL119      0.0019
    209  N        -19.9860    0.2570   -7.2740 N.3   121  GLN121     -0.1245
    210  CA       -21.3910    0.1750   -7.6370 C.3   121  GLN121      0.1566
    211  C        -21.6460    1.1480   -8.7960 C.2   121  GLN121      0.2260
    212  O        -21.2880    2.3380   -8.7580 O.2   121  GLN121     -0.2867
    213  CB       -22.3080    0.6040   -6.4650 C.3   121  GLN121      0.0367
    214  CG       -22.1320    0.0020   -5.0920 C.3   121  GLN121      0.0905
    215  CD       -23.3440    0.3240   -4.2010 C.2   121  GLN121      0.2608
    216  OE1      -24.3050    0.9890   -4.6520 O.2   121  GLN121     -0.2717
    217  NE2      -23.3270   -0.1820   -2.9420 N.am  121  GLN121     -0.0878
    218  N        -14.9960    2.3650    2.9810 N.3   128  ASN128     -0.1240
    219  CA       -15.3410    2.8000    4.3330 C.3   128  ASN128      0.1653
    220  C        -14.6900    1.8600    5.3300 C.2   128  ASN128      0.2266
    221  O        -14.3520    0.7210    5.0100 O.2   128  ASN128     -0.2867
    222  CB       -16.8980    2.8760    4.5650 C.3   128  ASN128      0.1155
    223  CG       -17.5930    1.5420    4.4350 C.2   128  ASN128      0.2627
    224  OD1      -17.7450    0.8790    5.4960 O.2   128  ASN128     -0.2716
    225  ND2      -18.0540    1.1660    3.3030 N.am  128  ASN128     -0.0877
    226  N        -16.0840    0.2770    8.8840 N.3   130  THR130     -0.1218
    227  CA       -17.3060    0.1850    9.6920 C.3   130  THR130      0.1862
    228  C        -16.8770   -0.3210   11.0870 C.2   130  THR130      0.2287
    229  O        -16.0360   -1.2520   11.2350 O.2   130  THR130     -0.2866
    230  CB       -18.2700   -0.8280    9.0540 C.3   130  THR130      0.1770
    231  OG1      -18.7750   -0.3120    7.8100 O.3   130  THR130     -0.2211
    232  CG2      -19.4660   -1.0950    9.9390 C.3   130  THR130      0.0375
    233  N        -18.3300   -1.9870   14.3340 N.3   132  TYR132     -0.1241
    234  CA       -19.4240   -2.8320   14.8170 C.3   132  TYR132      0.1605
    235  C        -19.3420   -3.0750   16.3010 C.2   132  TYR132      0.2264
    236  O        -18.2720   -3.1760   16.8880 O.2   132  TYR132     -0.2867
    237  CB       -19.3000   -4.2270   14.2060 C.3   132  TYR132      0.0534
    238  CG       -19.6700   -4.3290   12.7210 C.ar  132  TYR132     -0.0201
    239  CD1      -20.9880   -4.0610   12.2690 C.ar  132  TYR132     -0.0009
    240  CD2      -18.7300   -4.8550   11.8380 C.ar  132  TYR132     -0.0009
    241  CE1      -21.3460   -4.2770   10.8990 C.ar  132  TYR132      0.0417
    242  CE2      -19.0500   -5.0760   10.4590 C.ar  132  TYR132      0.0417
    243  CZ       -20.3730   -4.8220   10.0680 C.ar  132  TYR132      0.1957
    244  OH       -20.6950   -5.1240    8.7430 O.3   132  TYR132     -0.2866
    245  N        -23.4670    6.6430   14.1440 N.3   163  PRO163     -0.2116
    246  CA       -24.9350    6.6750   13.9300 C.3   163  PRO163      0.1372
    247  C        -25.7350    6.7500   15.2150 C.2   163  PRO163      0.2244
    248  O        -25.3290    6.2110   16.2760 O.2   163  PRO163     -0.2868
    249  CB       -25.2120    5.3430   13.1690 C.3   163  PRO163      0.0268
    250  CG       -23.8890    5.1300   12.4040 C.3   163  PRO163      0.0207
    251  CD       -22.8080    5.5270   13.4290 C.3   163  PRO163      0.0892
@<TRIPOS>BOND
     1   211   212    2
     2   211   210    1
     3   179   180    1
     4   210   209    1
     5   210   213    1
     6   180   181    1
     7   180   183    1
     8   182   181    2
     9   213   214    1
    10   184   183    1
    11   183   185    1
    12   214   215    1
    13   216   215    2
    14   205   204    2
    15   204   203    1
    16   174   173    2
    17   215   217   am
    18   186   187    1
    19   173   172    1
    20   178   176    1
    21   203   202    1
    22   203   206    1
    23   207   206    1
    24   176   175    1
    25   176   177    1
    26   187   188    1
    27   187   190    1
    28   189   188    2
    29   175   172    1
    30   206   208    1
    31   172   171    1
    32    22    23    1
    33    22    21    1
    34    20    21    1
    35    20    19    1
    36    19    16    1
    37   153   150    1
    38   153   154    1
    39   150   151    1
    40   150   149    1
    41    16    15    1
    42    16    17    1
    43   154   155    1
    44   151   152    2
    45   148   147    1
    46   147   146    1
    47    17    18    2
    48   162   161    1
    49   162   163    2
    50   193   194    2
    51   193   192    1
    52   161   160    1
    53   161   164    1
    54   145   146    1
    55   145   144    1
    56   155   156    1
    57   166   168   ar
    58   166   165   ar
    59   168   170   ar
    60   131   130    2
    61   156   157    2
    62   192   195    1
    63   192   191    1
    64   141   144    1
    65   141   142    1
    66   141   140    1
    67   164   165    1
    68   195   196    1
    69   218   219    1
    70   142   143    2
    71   165   167   ar
    72   225   223   am
    73   170   169   ar
    74   126   124   ar
    75   126   127   ar
    76   124   123   ar
    77   197   196   ar
    78   197   199   ar
    79   130   140   am
    80   130   129    1
    81   157   159    1
    82   157   158    1
    83   196   198   ar
    84   167   169   ar
    85   219   222    1
    86   219   220    1
    87   223   222    1
    88   223   224    2
    89   199   201   ar
    90   123   122    1
    91   123   125   ar
    92   127   125   ar
    93   128   129    1
    94   128   120   am
    95   122   119    1
    96   221   220    2
    97   129   132    1
    98   132   133    1
    99    35    37   ar
   100    35    33   ar
   101   198   200   ar
   102    37    36   ar
   103   119   120    1
   104   119   118    1
   105   201   200   ar
   106   120   121    2
   107   134   133   ar
   108   134   136   ar
   109    33    32   ar
   110    33    31   ar
   111   133   135   ar
   112    32    30   ar
   113    36    34   ar
   114    66    65    1
   115    91    90    1
   116    86    87    1
   117    89    88    2
   118    90    87    1
   119   136   138   ar
   120   115   116    1
   121   115   114    1
   122    31    34   ar
   123    31    29   ar
   124    30    29   ar
   125    87    88    1
   126   135   137   ar
   127    14    12    1
   128    88    92   am
   129    65    64   ar
   130    65    63   ar
   131    85    84    1
   132   231   230    1
   133   116   117    2
   134    83    84   ar
   135    83    81   ar
   136    64    62   ar
   137   114   105   am
   138    63    61   ar
   139    29    28    1
   140    84    82   ar
   141   138   137   ar
   142   138   139    1
   143    81    79   ar
   144    73    71    1
   145   244   243    1
   146    92    93    1
   147   226   227    1
   148    72    71    1
   149    62    60   ar
   150    12    13    1
   151    12     9    1
   152   230   227    1
   153   230   232    1
   154   102   101    2
   155   105   106    2
   156   105   104    1
   157    61    60   ar
   158    93    94    1
   159    93    96    1
   160    99   100    1
   161    99    94   am
   162    82    80   ar
   163   101   100    1
   164   101   103   am
   165    60    59    1
   166    79    80   ar
   167    79    78    1
   168    10    11    2
   169    10     9    1
   170    28    25    1
   171    71    68    1
   172    94    95    2
   173   227   228    1
   174    75    76    1
   175    75    78    1
   176    75    74    1
   177     9     8    1
   178   103   104    1
   179   104   107    1
   180   243   242   ar
   181   243   241   ar
   182    25    24    1
   183    25    26    1
   184    76    77    2
   185    96    98    1
   186    96    97    1
   187    59    56    1
   188    68    69    1
   189    68    67    1
   190   242   240   ar
   191    46    45    1
   192     7     5    1
   193   241   239   ar
   194     6     5    1
   195   228   229    2
   196    38    26   am
   197    38    39    1
   198   109   111   ar
   199   109   108   ar
   200    69    70    2
   201    26    27    2
   202    41    40    2
   203   111   113   ar
   204   107   108    1
   205    45    44    1
   206     5     2    1
   207   108   110   ar
   208    44    43    1
   209   240   238   ar
   210    56    57    1
   211    56    55    1
   212    42    43    1
   213    42    39    1
   214   113   112   ar
   215    39    40    1
   216    40    47   am
   217   239   238   ar
   218   250   249    1
   219   250   251    1
   220    57    58    2
   221   110   112   ar
   222    55    49   am
   223   238   237    1
   224    49    50    2
   225    49    48    1
   226     2     1    1
   227     2     3    1
   228   249   246    1
   229   251   245    1
   230    47    48    1
   231    48    51    1
   232   246   245    1
   233   246   247    1
   234     3     4    2
   235   237   234    1
   236   233   234    1
   237   234   235    1
   238   247   248    2
   239    51    52    1
   240    52    53    1
   241   235   236    2
   242    53    54    1
