@<TRIPOS>MOLECULE
tmp/4mvnD00.pdb
 140 136 0 0 0
SMALL
GASTEIGER

@<TRIPOS>ATOM
      1  N        -26.0650    4.2800  -51.2420 N.3    23  GLY23      -0.1225
      2  CA       -25.4460    3.2040  -50.5330 C.3    23  GLY23       0.1811
      3  C        -26.3140    2.5140  -49.4790 C.2    23  GLY23       0.2280
      4  O        -25.7450    1.5890  -48.8290 O.2    23  GLY23      -0.2866
      5  N        -29.0140    4.0340  -40.3730 N.3    37  ASN37      -0.1240
      6  CA       -27.8760    4.0250  -39.4440 C.3    37  ASN37       0.1653
      7  C        -27.0600    5.3170  -39.5480 C.2    37  ASN37       0.2266
      8  O        -27.4070    6.2560  -40.3070 O.2    37  ASN37      -0.2867
      9  CB       -26.9970    2.7560  -39.5840 C.3    37  ASN37       0.1155
     10  CG       -26.0720    2.8140  -40.7800 C.2    37  ASN37       0.2627
     11  OD1      -26.2630    3.6520  -41.6130 O.2    37  ASN37      -0.2716
     12  ND2      -25.0960    1.8940  -40.8600 N.am   37  ASN37      -0.0877
     13  N        -23.8680    5.9600  -40.5140 N.3    39  HIS39      -0.1226
     14  CA       -22.9610    6.2820  -41.6600 C.3    39  HIS39       0.1752
     15  C        -23.8080    6.6390  -42.8770 C.2    39  HIS39       0.2595
     16  O        -23.4460    7.5570  -43.6740 O.2    39  HIS39      -0.2718
     17  CB       -22.0760    5.0560  -41.9670 C.3    39  HIS39       0.0759
     18  CG       -21.2410    5.2360  -43.1980 C.ar   39  HIS39       0.0818
     19  ND1      -21.5750    4.6960  -44.4210 N.ar   39  HIS39      -0.2268
     20  CD2      -20.1370    5.9790  -43.3950 C.ar   39  HIS39       0.1154
     21  CE1      -20.6970    5.1260  -45.3320 C.ar   39  HIS39       0.1986
     22  NE2      -19.7960    5.8600  -44.7210 N.ar   39  HIS39      -0.2212
     23  N        -24.9390    5.9470  -43.0570 N.am   40  ILE40      -0.1980
     24  CA       -25.7520    6.2430  -44.2360 C.3    40  ILE40       0.1595
     25  C        -26.2750    7.6870  -44.1590 C.2    40  ILE40       0.2287
     26  O        -26.2390    8.4030  -45.1950 O.2    40  ILE40      -0.2864
     27  CB       -26.9530    5.2860  -44.3560 C.3    40  ILE40       0.0276
     28  CG1      -26.4960    3.8690  -44.6570 C.3    40  ILE40       0.0022
     29  CG2      -27.9350    5.8010  -45.4350 C.3    40  ILE40       0.0022
     30  CD1      -25.6350    3.6840  -45.9810 C.3    40  ILE40       0.0001
     31  N        -28.3390  -10.8780  -46.4780 N.3   149  ALA149     -0.1231
     32  CA       -28.1860   -9.4270  -46.6530 C.3   149  ALA149      0.1694
     33  C        -26.9150   -9.1960  -47.4380 C.2   149  ALA149      0.2592
     34  O        -26.0530  -10.0450  -47.4900 O.2   149  ALA149     -0.2718
     35  CB       -28.0690   -8.7350  -45.2440 C.3   149  ALA149      0.0304
     36  N        -26.7750   -8.0040  -48.0020 N.am  150  GLN150     -0.1966
     37  CA       -25.6550   -7.6260  -48.8520 C.3   150  GLN150      0.1718
     38  C        -25.4620   -6.1450  -48.6490 C.2   150  GLN150      0.2458
     39  O        -26.3400   -5.4480  -48.1200 O.2   150  GLN150     -0.2730
     40  CB       -25.9620   -7.8350  -50.3230 C.3   150  GLN150      0.0407
     41  CG       -26.1720   -9.3280  -50.7110 C.3   150  GLN150      0.0908
     42  CD       -26.6740   -9.3840  -52.1440 C.2   150  GLN150      0.2608
     43  OE1      -27.8290   -9.0550  -52.4570 O.2   150  GLN150     -0.2717
     44  NE2      -25.7950   -9.7430  -53.0350 N.am  150  GLN150     -0.0878
     45  N        -24.3310   -5.6000  -49.1440 N.am  151  PRO151     -0.2716
     46  CA       -24.0760   -4.1680  -49.1910 C.3   151  PRO151      0.1536
     47  C        -25.2850   -3.5230  -49.8350 C.2   151  PRO151      0.2599
     48  O        -25.8200   -4.0190  -50.8260 O.2   151  PRO151     -0.2715
     49  CB       -22.8460   -4.0680  -50.1510 C.3   151  PRO151      0.0310
     50  CG       -22.0210   -5.3050  -49.7460 C.3   151  PRO151      0.0237
     51  CD       -23.1650   -6.3660  -49.6700 C.3   151  PRO151      0.0939
     52  N        -25.7790   -2.4280  -49.2030 N.am  152  GLY152     -0.1941
     53  CA       -26.9830   -1.7830  -49.5940 C.3   152  GLY152      0.2014
     54  C        -28.0800   -1.9660  -48.5410 C.2   152  GLY152      0.2639
     55  O        -29.0360   -1.2110  -48.4890 O.2   152  GLY152     -0.2714
     56  N        -27.9320   -3.0050  -47.7080 N.am  153  ASN153     -0.1958
     57  CA       -29.0000   -3.2690  -46.6910 C.3   153  ASN153      0.1819
     58  C        -28.6940   -2.5280  -45.3770 C.2   153  ASN153      0.2622
     59  O        -29.5460   -2.6630  -44.4740 O.2   153  ASN153     -0.2715
     60  CB       -29.0520   -4.7380  -46.3150 C.3   153  ASN153      0.1195
     61  CG       -29.9700   -5.5490  -47.1960 C.2   153  ASN153      0.2630
     62  OD1      -29.5780   -6.5800  -47.7480 O.2   153  ASN153     -0.2716
     63  ND2      -31.2470   -5.1700  -47.2450 N.am  153  ASN153     -0.0877
     64  N        -27.5960   -1.7740  -45.2140 N.am  154  SER154     -0.1950
     65  CA       -27.4860   -1.0420  -43.8950 C.3   154  SER154      0.1924
     66  C        -28.5810   -0.0200  -43.8030 C.2   154  SER154      0.2314
     67  O        -28.9330    0.6780  -44.7560 O.2   154  SER154     -0.2863
     68  CB       -26.1720   -0.3700  -43.7860 C.3   154  SER154      0.2116
     69  OG       -25.2030   -1.4690  -43.6610 O.3   154  SER154     -0.2180
     70  N        -31.1320   -3.1560  -39.6720 N.3   169  LEU169     -0.1231
     71  CA       -29.8370   -3.8250  -39.8770 C.3   169  LEU169      0.1693
     72  C        -28.7170   -2.7930  -39.8940 C.2   169  LEU169      0.2592
     73  O        -28.8790   -1.7410  -40.5020 O.2   169  LEU169     -0.2718
     74  CB       -29.8960   -4.4580  -41.2720 C.3   169  LEU169      0.0284
     75  CG       -28.6540   -5.3640  -41.5280 C.3   169  LEU169      0.0019
     76  CD1      -29.0570   -6.4860  -42.4380 C.3   169  LEU169      0.0001
     77  CD2      -27.4930   -4.6060  -42.2290 C.3   169  LEU169      0.0001
     78  N        -27.5960   -3.0970  -39.2100 N.am  170  TYR170     -0.1962
     79  CA       -26.3790   -2.2220  -39.2290 C.3   170  TYR170      0.1771
     80  C        -25.1610   -2.9000  -39.8170 C.2   170  TYR170      0.2619
     81  O        -24.2310   -2.2220  -40.2760 O.2   170  TYR170     -0.2715
     82  CB       -26.1890   -1.4400  -37.9380 C.3   170  TYR170      0.0574
     83  CG       -25.5490   -2.3080  -36.8640 C.ar  170  TYR170     -0.0198
     84  CD1      -24.1640   -2.5420  -36.8900 C.ar  170  TYR170     -0.0009
     85  CD2      -26.3380   -2.8670  -35.8710 C.ar  170  TYR170     -0.0009
     86  CE1      -23.5470   -3.3940  -35.9020 C.ar  170  TYR170      0.0417
     87  CE2      -25.6980   -3.7160  -34.8400 C.ar  170  TYR170      0.0417
     88  CZ       -24.3430   -3.9490  -34.9080 C.ar  170  TYR170      0.1957
     89  OH       -23.8510   -4.7790  -33.8950 O.3   170  TYR170     -0.2866
     90  N        -25.0580   -4.2090  -39.7100 N.am  171  ALA171     -0.1963
     91  CA       -23.8350   -4.8960  -40.2930 C.3   171  ALA171      0.1728
     92  C        -24.0670   -6.3060  -40.6120 C.2   171  ALA171      0.2617
     93  O        -25.0140   -6.9360  -40.0730 O.2   171  ALA171     -0.2715
     94  CB       -22.6880   -4.8310  -39.1940 C.3   171  ALA171      0.0334
     95  N        -23.2380   -6.8440  -41.5150 N.am  172  GLY172     -0.1940
     96  CA       -23.1190   -8.2880  -41.7680 C.3   172  GLY172      0.2014
     97  C        -21.7940   -8.8110  -41.2890 C.2   172  GLY172      0.2640
     98  O        -20.9840   -8.0300  -40.7170 O.2   172  GLY172     -0.2714
     99  N        -21.6070  -10.0960  -41.4350 N.am  173  SER173     -0.1935
    100  CA       -20.3430  -10.7010  -40.9340 C.3   173  SER173      0.2055
    101  C        -19.4910  -11.2410  -42.1090 C.2   173  SER173      0.2644
    102  O        -18.5560  -12.0760  -41.9290 O.2   173  SER173     -0.2714
    103  CB       -20.6530  -11.7170  -39.8320 C.3   173  SER173      0.2130
    104  OG       -21.4870  -12.7180  -40.3480 O.3   173  SER173     -0.2179
    105  N        -19.8360  -10.8300  -43.3230 N.am  174  GLY174     -0.1939
    106  CA       -18.9880  -11.1170  -44.5540 C.3   174  GLY174      0.2014
    107  C        -18.9340   -9.8500  -45.4090 C.2   174  GLY174      0.2638
    108  O        -19.8160   -8.9850  -45.2980 O.2   174  GLY174     -0.2714
    109  N        -17.9150   -9.7200  -46.2770 N.am  175  LYS175     -0.1977
    110  CA       -17.7750   -8.4990  -47.0750 C.3   175  LYS175      0.1596
    111  C        -18.8460   -8.3420  -48.1600 C.2   175  LYS175      0.2287
    112  O        -19.3630   -7.2330  -48.3990 O.2   175  LYS175     -0.2864
    113  CB       -16.3710   -8.4850  -47.7070 C.3   175  LYS175      0.0298
    114  CG       -16.0360   -7.3210  -48.5990 C.3   175  LYS175      0.0038
    115  CD       -14.5190   -7.4480  -48.8600 C.3   175  LYS175      0.0206
    116  CE       -13.8450   -6.1540  -49.1900 C.3   175  LYS175      0.1093
    117  NZ       -13.7920   -6.0500  -50.6540 N.3   175  LYS175     -0.1314
    118  N        -21.7140  -10.6280  -48.7240 N.3   177  GLU177     -0.1231
    119  CA       -23.0340  -11.2520  -48.4270 C.3   177  GLU177      0.1699
    120  C        -22.9270  -11.8530  -47.0520 C.2   177  GLU177      0.2592
    121  O        -21.8130  -12.2300  -46.5870 O.2   177  GLU177     -0.2718
    122  CB       -23.4520  -12.3670  -49.3850 C.3   177  GLU177      0.0402
    123  CG       -22.4060  -13.4910  -49.4880 C.3   177  GLU177      0.1161
    124  CD       -22.7430  -14.4930  -50.5890 C.2   177  GLU177      0.3649
    125  OE1      -23.7650  -14.3470  -51.3590 O.co2 177  GLU177     -0.2457
    126  OE2      -21.9220  -15.4590  -50.6740 O.co2 177  GLU177     -0.2457
    127  N        -24.0780  -12.0370  -46.3940 N.am  178  SER178     -0.1952
    128  CA       -24.0070  -12.6000  -45.0490 C.3   178  SER178      0.1924
    129  C        -25.3740  -13.1710  -44.6910 C.2   178  SER178      0.2314
    130  O        -26.3510  -12.5080  -44.9740 O.2   178  SER178     -0.2863
    131  CB       -23.6610  -11.4480  -44.1130 C.3   178  SER178      0.2116
    132  OG       -23.6290  -11.9570  -42.8300 O.3   178  SER178     -0.2180
    133  N        -26.2850  -11.5650  -39.4210 N.3   181  ASN181     -0.1240
    134  CA       -26.3020  -10.1120  -39.5310 C.3   181  ASN181      0.1653
    135  C        -26.6760   -9.5100  -38.1940 C.2   181  ASN181      0.2266
    136  O        -27.3490  -10.1500  -37.3340 O.2   181  ASN181     -0.2867
    137  CB       -27.3680   -9.7290  -40.5820 C.3   181  ASN181      0.1155
    138  CG       -26.9300  -10.2530  -41.9450 C.2   181  ASN181      0.2627
    139  OD1      -25.8610   -9.8360  -42.3870 O.2   181  ASN181     -0.2716
    140  ND2      -27.7010  -11.1020  -42.5960 N.am  181  ASN181     -0.0877
@<TRIPOS>BOND
     1    44    42   am
     2    43    42    2
     3    42    41    1
     4   125   124   ar
     5     1     2    1
     6    48    47    2
     7    41    40    1
     8   126   124   ar
     9   117   116    1
    10   124   123    1
    11     2     3    1
    12    40    37    1
    13    49    50    1
    14    49    46    1
    15    47    52   am
    16    47    46    1
    17    50    51    1
    18    51    45    1
    19    53    52    1
    20    53    54    1
    21   123   122    1
    22     3     4    2
    23   122   119    1
    24    46    45    1
    25   116   115    1
    26    45    38   am
    27   115   114    1
    28    37    38    1
    29    37    36    1
    30   118   119    1
    31    38    39    2
    32   114   113    1
    33    54    55    2
    34    54    56   am
    35   119   120    1
    36   112   111    2
    37   111   110    1
    38    36    33   am
    39    62    61    2
    40    56    57    1
    41   113   110    1
    42    34    33    2
    43    33    32    1
    44    63    61   am
    45    61    60    1
    46   110   109    1
    47   120   121    2
    48   120   127   am
    49    57    60    1
    50    57    58    1
    51    32    31    1
    52    32    35    1
    53   127   128    1
    54   109   107   am
    55    30    28    1
    56    29    27    1
    57   107   108    2
    58   107   106    1
    59    58    64   am
    60    58    59    2
    61    21    22   ar
    62    21    19   ar
    63    64    65    1
    64    26    25    2
    65   128   129    1
    66   128   131    1
    67   130   129    2
    68    67    66    2
    69    22    20   ar
    70    28    27    1
    71   106   105    1
    72    19    18   ar
    73    27    24    1
    74    24    25    1
    75    24    23    1
    76   131   132    1
    77    65    66    1
    78    65    68    1
    79    68    69    1
    80    16    15    2
    81    20    18   ar
    82   105   101   am
    83    18    17    1
    84    23    15   am
    85    15    14    1
    86   140   138   am
    87    76    75    1
    88   139   138    2
    89    77    75    1
    90   101   102    2
    91   101   100    1
    92    17    14    1
    93   138   137    1
    94    96    95    1
    95    96    97    1
    96    14    13    1
    97    11    10    2
    98    75    74    1
    99    95    92   am
   100    99    97   am
   101    99   100    1
   102    97    98    2
   103    74    71    1
   104   100   103    1
   105    12    10   am
   106    10     9    1
   107    92    91    1
   108    92    93    2
   109   137   134    1
   110    73    72    2
   111     5     6    1
   112   104   103    1
   113     8     7    2
   114    91    90    1
   115    91    94    1
   116    81    80    2
   117    72    71    1
   118    72    78   am
   119    71    70    1
   120    80    90   am
   121    80    79    1
   122     9     6    1
   123     7     6    1
   124   134   133    1
   125   134   135    1
   126    79    78    1
   127    79    82    1
   128   135   136    2
   129    82    83    1
   130    84    83   ar
   131    84    86   ar
   132    83    85   ar
   133    86    88   ar
   134    85    87   ar
   135    88    87   ar
   136    88    89    1
