@<TRIPOS>MOLECULE
tmp/4mvoC02.pdb
 104 99 0 0 0
SMALL
GASTEIGER

@<TRIPOS>ATOM
      1  N         16.7630  -42.1380   32.2130 N.3   134  ILE134     -0.1245
      2  CA        17.0730  -41.3530   31.0160 C.3   134  ILE134      0.1561
      3  C         18.5030  -41.4690   30.5100 C.2   134  ILE134      0.2260
      4  O         18.7390  -41.5010   29.3040 O.2   134  ILE134     -0.2867
      5  CB        16.7590  -39.8880   31.2460 C.3   134  ILE134      0.0252
      6  CG1       15.2510  -39.7590   31.3800 C.3   134  ILE134      0.0019
      7  CG2       17.2420  -39.0140   30.1040 C.3   134  ILE134      0.0019
      8  CD1       14.7990  -38.3570   31.6200 C.3   134  ILE134      0.0001
      9  N         18.8890  -45.2290   29.0660 N.3   137  MET137     -0.1230
     10  CA        18.2500  -45.2610   27.7590 C.3   137  MET137      0.1702
     11  C         19.0390  -44.5930   26.6710 C.2   137  MET137      0.2593
     12  O         19.3420  -45.2200   25.6730 O.2   137  MET137     -0.2718
     13  CB        16.9100  -44.5690   27.8720 C.3   137  MET137      0.0401
     14  CG        15.9180  -45.4580   28.5270 C.3   137  MET137      0.0596
     15  SD        15.4050  -46.7440   27.3890 S.3   137  MET137     -0.1393
     16  CE        14.2520  -45.8050   26.3680 C.3   137  MET137      0.0692
     17  N         19.4620  -43.3610   26.9050 N.am  138  THR138     -0.1953
     18  CA        20.2930  -42.6630   25.9410 C.3   138  THR138      0.1897
     19  C         21.5590  -43.3980   25.6090 C.2   138  THR138      0.2313
     20  O         22.0230  -43.3200   24.4870 O.2   138  THR138     -0.2863
     21  CB        20.6390  -41.2790   26.4120 C.3   138  THR138      0.1794
     22  OG1       19.4090  -40.5980   26.6420 O.3   138  THR138     -0.2208
     23  CG2       21.3510  -40.5120   25.3320 C.3   138  THR138      0.0378
     24  N         20.1130  -46.2930   23.3130 N.3   141  PHE141     -0.1241
     25  CA        19.7750  -45.7500   22.0180 C.3   141  PHE141      0.1605
     26  C         21.0650  -45.5110   21.2480 C.2   141  PHE141      0.2264
     27  O         21.1560  -45.8480   20.0800 O.2   141  PHE141     -0.2867
     28  CB        18.9690  -44.4690   22.1900 C.3   141  PHE141      0.0534
     29  CG        17.4950  -44.6790   22.0770 C.ar  141  PHE141     -0.0203
     30  CD1       16.7940  -45.3020   23.0990 C.ar  141  PHE141     -0.0042
     31  CD2       16.7980  -44.2350   20.9680 C.ar  141  PHE141     -0.0042
     32  CE1       15.4140  -45.5180   22.9940 C.ar  141  PHE141     -0.0003
     33  CE2       15.4190  -44.4330   20.8620 C.ar  141  PHE141     -0.0003
     34  CZ        14.7310  -45.0810   21.8690 C.ar  141  PHE141     -0.0000
     35  N         22.6710  -42.8700    8.2910 N.3   162  THR162     -0.1218
     36  CA        23.4990  -41.9860    9.0820 C.3   162  THR162      0.1862
     37  C         23.2350  -42.2580   10.5840 C.2   162  THR162      0.2287
     38  O         22.1500  -42.7220   10.9580 O.2   162  THR162     -0.2866
     39  CB        23.1500  -40.5450    8.6670 C.3   162  THR162      0.1770
     40  OG1       24.2050  -39.9960    7.8640 O.3   162  THR162     -0.2211
     41  CG2       22.7790  -39.6480    9.8630 C.3   162  THR162      0.0375
     42  N         22.5660  -40.2670   12.9130 N.3   164  GLY164     -0.1210
     43  CA        21.3940  -39.4960   13.2760 C.3   164  GLY164      0.1956
     44  C         20.1030  -40.1110   12.7790 C.2   164  GLY164      0.2611
     45  O         19.1080  -40.2030   13.5060 O.2   164  GLY164     -0.2717
     46  N         20.1350  -40.5740   11.5360 N.am  165  GLU165     -0.1979
     47  CA        18.9790  -41.2370   10.9610 C.3   165  GLU165      0.1602
     48  C         18.5740  -42.4520   11.7600 C.2   165  GLU165      0.2287
     49  O         17.4020  -42.5790   12.1260 O.2   165  GLU165     -0.2864
     50  CB        19.2200  -41.6280    9.5100 C.3   165  GLU165      0.0415
     51  CG        18.5860  -40.6410    8.5850 C.3   165  GLU165      0.1163
     52  CD        19.3080  -40.5060    7.2650 C.2   165  GLU165      0.3649
     53  OE1       18.7840  -39.7780    6.3760 O.co2 165  GLU165     -0.2457
     54  OE2       20.3750  -41.1450    7.1050 O.co2 165  GLU165     -0.2457
     55  N         19.0060  -42.8910   14.7530 N.3   167  PHE167     -0.1227
     56  CA        18.4460  -42.4630   16.0050 C.3   167  PHE167      0.1736
     57  C         16.9580  -42.2820   15.7870 C.2   167  PHE167      0.2595
     58  O         16.1630  -42.9680   16.4150 O.2   167  PHE167     -0.2718
     59  CB        19.0700  -41.1460   16.5210 C.3   167  PHE167      0.0547
     60  CG        19.9760  -41.3310   17.7160 C.ar  167  PHE167     -0.0202
     61  CD1       21.3630  -41.4630   17.5400 C.ar  167  PHE167     -0.0042
     62  CD2       19.4280  -41.5640   18.9830 C.ar  167  PHE167     -0.0042
     63  CE1       22.1960  -41.6830   18.6270 C.ar  167  PHE167     -0.0003
     64  CE2       20.2410  -41.8230   20.0740 C.ar  167  PHE167     -0.0003
     65  CZ        21.6310  -41.8850   19.8970 C.ar  167  PHE167     -0.0000
     66  N         16.6110  -41.5230   14.7500 N.am  168  TYR168     -0.1976
     67  CA        15.2120  -41.2390   14.4310 C.3   168  TYR168      0.1639
     68  C         14.4030  -42.4830   14.1780 C.2   168  TYR168      0.2290
     69  O         13.2720  -42.6130   14.6710 O.2   168  TYR168     -0.2864
     70  CB        15.1350  -40.2310   13.2830 C.3   168  TYR168      0.0560
     71  CG        13.7460  -39.8330   12.8420 C.ar  168  TYR168     -0.0198
     72  CD1       12.9920  -40.6260   11.9700 C.ar  168  TYR168     -0.0009
     73  CD2       13.1260  -38.7510   13.4180 C.ar  168  TYR168     -0.0009
     74  CE1       11.6910  -40.2710   11.5950 C.ar  168  TYR168      0.0417
     75  CE2       11.8390  -38.3870   13.0750 C.ar  168  TYR168      0.0417
     76  CZ        11.1220  -39.1530   12.1750 C.ar  168  TYR168      0.1957
     77  OH         9.8540  -38.7510   11.8690 O.3   168  TYR168     -0.2866
     78  N         13.9050  -44.1050   17.3600 N.3   171  PHE171     -0.1241
     79  CA        12.9250  -43.4250   18.1850 C.3   171  PHE171      0.1605
     80  C         11.5550  -43.9280   17.7950 C.2   171  PHE171      0.2264
     81  O         10.7220  -44.2650   18.6790 O.2   171  PHE171     -0.2867
     82  CB        12.9900  -41.8970   18.0860 C.3   171  PHE171      0.0534
     83  CG        11.9970  -41.2030   19.0050 C.ar  171  PHE171     -0.0203
     84  CD1       12.0510  -41.3590   20.3620 C.ar  171  PHE171     -0.0042
     85  CD2       10.9630  -40.4620   18.5050 C.ar  171  PHE171     -0.0042
     86  CE1       11.0870  -40.7500   21.1820 C.ar  171  PHE171     -0.0003
     87  CE2       10.0250  -39.8600   19.3180 C.ar  171  PHE171     -0.0003
     88  CZ        10.0830  -40.0070   20.6390 C.ar  171  PHE171     -0.0000
     89  N         10.4420  -47.1810   18.8640 N.3   174  MET174     -0.1245
     90  CA        10.1040  -47.1670   20.2650 C.3   174  MET174      0.1570
     91  C          8.7180  -46.5920   20.5430 C.2   174  MET174      0.2261
     92  O          7.9340  -47.1210   21.3400 O.2   174  MET174     -0.2867
     93  CB        11.1520  -46.4040   21.1010 C.3   174  MET174      0.0387
     94  CG        10.5310  -45.8730   22.4190 C.3   174  MET174      0.0595
     95  SD        11.5760  -45.0230   23.6040 S.3   174  MET174     -0.1393
     96  CE        12.0400  -43.5300   22.7510 C.3   174  MET174      0.0692
     97  N         10.6580  -48.3230   29.8650 N.3   209  MET209     -0.1245
     98  CA         9.6990  -47.2600   29.8980 C.3   209  MET209      0.1570
     99  C          8.5550  -47.5890   30.8570 C.2   209  MET209      0.2261
    100  O          7.9480  -46.6840   31.4120 O.2   209  MET209     -0.2867
    101  CB         9.1640  -47.0080   28.4880 C.3   209  MET209      0.0387
    102  CG        10.0350  -46.0870   27.6490 C.3   209  MET209      0.0595
    103  SD         9.6710  -44.3320   27.8550 S.3   209  MET209     -0.1393
    104  CE        11.3700  -43.6540   27.7410 C.3   209  MET209      0.0692
@<TRIPOS>BOND
     1    53    52   ar
     2    54    52   ar
     3    52    51    1
     4    40    39    1
     5    35    36    1
     6    51    50    1
     7    39    36    1
     8    39    41    1
     9    36    37    1
    10    50    47    1
    11    37    38    2
    12    47    46    1
    13    47    48    1
    14    46    44   am
    15    74    72   ar
    16    74    76   ar
    17    48    49    2
    18    77    76    1
    19    72    71   ar
    20    76    75   ar
    21    44    43    1
    22    44    45    2
    23    71    70    1
    24    71    73   ar
    25    42    43    1
    26    75    73   ar
    27    70    67    1
    28    68    67    1
    29    68    69    2
    30    67    66    1
    31    66    57   am
    32    55    56    1
    33    57    56    1
    34    57    58    2
    35    56    59    1
    36    59    60    1
    37    78    79    1
    38    61    60   ar
    39    61    63   ar
    40    60    62   ar
    41    80    79    1
    42    80    81    2
    43    82    79    1
    44    82    83    1
    45    85    83   ar
    46    85    87   ar
    47    63    65   ar
    48    89    90    1
    49    62    64   ar
    50    83    84   ar
    51    87    88   ar
    52    65    64   ar
    53    27    26    2
    54    90    91    1
    55    90    93    1
    56    84    86   ar
    57    91    92    2
    58    88    86   ar
    59    33    31   ar
    60    33    34   ar
    61    31    29   ar
    62    93    94    1
    63    26    25    1
    64    34    32   ar
    65    25    28    1
    66    25    24    1
    67    29    28    1
    68    29    30   ar
    69    94    95    1
    70    96    95    1
    71    32    30   ar
    72    20    19    2
    73    23    21    1
    74    19    18    1
    75    12    11    2
    76    18    21    1
    77    18    17    1
    78    16    15    1
    79    21    22    1
    80    11    17   am
    81    11    10    1
    82    15    14    1
    83   102   103    1
    84   102   101    1
    85   104   103    1
    86    10    13    1
    87    10     9    1
    88    13    14    1
    89   101    98    1
    90     4     3    2
    91    97    98    1
    92    98    99    1
    93     7     5    1
    94     3     2    1
    95    99   100    2
    96     2     5    1
    97     2     1    1
    98     5     6    1
    99     6     8    1
