@<TRIPOS>MOLECULE
tmp/4mvxB00.pdb
 198 195 0 0 0
SMALL
GASTEIGER

@<TRIPOS>ATOM
      1  N        -33.4180  -11.5820   -5.0610 N.3    16  PRO16      -0.2102
      2  CA       -34.4920  -12.1540   -5.8320 C.3    16  PRO16       0.1504
      3  C        -34.3330  -11.6700   -7.2490 C.2    16  PRO16       0.2575
      4  O        -33.5570  -10.7480   -7.4860 O.2    16  PRO16      -0.2718
      5  CB       -35.7550  -11.5540   -5.1890 C.3    16  PRO16       0.0282
      6  CG       -35.2930  -10.8450   -3.9490 C.3    16  PRO16       0.0208
      7  CD       -33.8860  -10.4440   -4.2600 C.3    16  PRO16       0.0893
      8  N        -35.0380  -12.2930   -8.1850 N.am   17  ILE17      -0.1980
      9  CA       -35.0460  -11.8090   -9.5500 C.3    17  ILE17       0.1595
     10  C        -36.2860  -10.9460   -9.7160 C.2    17  ILE17       0.2287
     11  O        -37.3550  -11.2680   -9.1890 O.2    17  ILE17      -0.2864
     12  CB       -34.9690  -12.9350  -10.5890 C.3    17  ILE17       0.0276
     13  CG1      -36.0810  -13.9710  -10.3940 C.3    17  ILE17       0.0022
     14  CG2      -33.6060  -13.6080  -10.5100 C.3    17  ILE17       0.0022
     15  CD1      -36.1920  -14.9370  -11.5530 C.3    17  ILE17       0.0001
     16  N        -39.2370   -8.4620  -11.4980 N.3    19  TYR19      -0.1241
     17  CA       -40.1780   -8.5420  -12.6160 C.3    19  TYR19       0.1605
     18  C        -40.0480   -7.3450  -13.5590 C.2    19  TYR19       0.2264
     19  O        -40.0930   -6.1950  -13.1290 O.2    19  TYR19      -0.2867
     20  CB       -41.6200   -8.6830  -12.1170 C.3    19  TYR19       0.0534
     21  CG       -42.5190   -9.4320  -13.0810 C.ar   19  TYR19      -0.0201
     22  CD1      -42.0700  -10.5790  -13.7350 C.ar   19  TYR19      -0.0009
     23  CD2      -43.8180   -9.0110  -13.3290 C.ar   19  TYR19      -0.0009
     24  CE1      -42.8780  -11.2760  -14.6110 C.ar   19  TYR19       0.0417
     25  CE2      -44.6390   -9.7060  -14.2090 C.ar   19  TYR19       0.0417
     26  CZ       -44.1640  -10.8370  -14.8460 C.ar   19  TYR19       0.1957
     27  OH       -44.9650  -11.5360  -15.7290 O.3    19  TYR19      -0.2866
     28  N        -36.8280  -11.5820  -13.8420 N.3    56  ASP56      -0.1239
     29  CA       -37.9430  -12.5150  -14.0800 C.3    56  ASP56       0.1674
     30  C        -38.7100  -11.9780  -15.2830 C.2    56  ASP56       0.2266
     31  O        -39.2890  -10.8980  -15.2150 O.2    56  ASP56      -0.2867
     32  CB       -38.8130  -12.5260  -12.8150 C.3    56  ASP56       0.1410
     33  CG       -40.1090  -13.3310  -12.9440 C.2    56  ASP56       0.3668
     34  OD1      -40.3630  -13.9920  -13.9700 O.co2  56  ASP56      -0.2456
     35  OD2      -40.8930  -13.2900  -11.9710 O.co2  56  ASP56      -0.2456
     36  N        -40.8820  -13.7750  -17.8630 N.3    58  HIS58      -0.1226
     37  CA       -42.0130  -14.4420  -18.4980 C.3    58  HIS58       0.1752
     38  C        -43.3610  -13.9940  -17.9450 C.2    58  HIS58       0.2597
     39  O        -43.4250  -13.2270  -16.9900 O.2    58  HIS58      -0.2718
     40  CB       -41.8720  -15.9530  -18.3420 C.3    58  HIS58       0.0759
     41  CG       -40.7090  -16.5200  -19.0860 C.ar   58  HIS58       0.0818
     42  ND1      -39.7620  -17.3170  -18.4880 N.ar   58  HIS58      -0.2268
     43  CD2      -40.3360  -16.4020  -20.3810 C.ar   58  HIS58       0.1154
     44  CE1      -38.8570  -17.6700  -19.3810 C.ar   58  HIS58       0.1986
     45  NE2      -39.1810  -17.1280  -20.5380 N.ar   58  HIS58      -0.2212
     46  N        -44.4370  -14.4660  -18.5650 N.am   59  GLY59      -0.1942
     47  CA       -45.7720  -14.2750  -18.0270 C.3    59  GLY59       0.2014
     48  C        -46.6410  -13.3300  -18.8250 C.2    59  GLY59       0.2638
     49  O        -46.1610  -12.5520  -19.6590 O.2    59  GLY59      -0.2714
     50  N        -47.9380  -13.3990  -18.5510 N.am   60  GLN60      -0.1977
     51  CA       -48.9190  -12.6320  -19.2930 C.3    60  GLN60       0.1601
     52  C        -48.7260  -11.1180  -19.1560 C.2    60  GLN60       0.2287
     53  O        -48.9990  -10.3740  -20.1040 O.2    60  GLN60      -0.2864
     54  CB       -50.3480  -13.0380  -18.8750 C.3    60  GLN60       0.0394
     55  CG       -50.7770  -12.5490  -17.5000 C.3    60  GLN60       0.0908
     56  CD       -51.9460  -13.3300  -16.9190 C.2    60  GLN60       0.2608
     57  OE1      -51.9000  -14.5610  -16.7860 O.2    60  GLN60      -0.2717
     58  NE2      -52.9940  -12.6080  -16.5340 N.am   60  GLN60      -0.0878
     59  N        -54.2980  -14.2580  -11.8000 N.3   136  GLU136     -0.1245
     60  CA       -53.5890  -15.4530  -12.2600 C.3   136  GLU136      0.1567
     61  C        -53.7330  -16.5410  -11.2140 C.2   136  GLU136      0.2260
     62  O        -52.7740  -17.2560  -10.9160 O.2   136  GLU136     -0.2867
     63  CB       -52.1090  -15.1540  -12.5150 C.3   136  GLU136      0.0388
     64  CG       -51.8570  -13.8930  -13.3290 C.3   136  GLU136      0.1160
     65  CD       -50.3810  -13.5730  -13.5070 C.2   136  GLU136      0.3649
     66  OE1      -49.5240  -14.2460  -12.8870 O.co2 136  GLU136     -0.2457
     67  OE2      -50.0820  -12.6280  -14.2720 O.co2 136  GLU136     -0.2457
     68  N        -50.9160  -17.3120  -20.8600 N.3   221  LEU221     -0.1245
     69  CA       -49.6360  -16.6310  -20.7470 C.3   221  LEU221      0.1561
     70  C        -49.2050  -15.9400  -22.0430 C.2   221  LEU221      0.2260
     71  O        -48.0980  -15.3970  -22.1240 O.2   221  LEU221     -0.2867
     72  CB       -48.5620  -17.6270  -20.3130 C.3   221  LEU221      0.0270
     73  CG       -48.7890  -18.2810  -18.9490 C.3   221  LEU221      0.0019
     74  CD1      -47.6160  -19.1690  -18.5740 C.3   221  LEU221      0.0001
     75  CD2      -49.0110  -17.2370  -17.8630 C.3   221  LEU221      0.0001
     76  N        -43.5940  -17.8740  -22.0520 N.3   225  ALA225     -0.1245
     77  CA       -43.2080  -18.6690  -20.8970 C.3   225  ALA225      0.1562
     78  C        -42.4610  -19.9110  -21.3660 C.2   225  ALA225      0.2260
     79  O        -42.3630  -20.1520  -22.5570 O.2   225  ALA225     -0.2867
     80  CB       -44.4470  -19.0690  -20.1070 C.3   225  ALA225      0.0290
     81  N        -44.7760  -23.6750  -18.0040 N.3   235  VAL235     -0.1231
     82  CA       -44.3600  -23.6330  -16.6120 C.3   235  VAL235      0.1692
     83  C        -44.6850  -22.2460  -16.0420 C.2   235  VAL235      0.2592
     84  O        -44.2660  -21.2120  -16.5990 O.2   235  VAL235     -0.2718
     85  CB       -42.8540  -23.9040  -16.4610 C.3   235  VAL235      0.0266
     86  CG1      -42.4440  -23.8290  -14.9950 C.3   235  VAL235      0.0020
     87  CG2      -42.4980  -25.2530  -17.0640 C.3   235  VAL235      0.0020
     88  N        -45.4300  -22.2280  -14.9350 N.am  236  TYR236     -0.1962
     89  CA       -45.7940  -20.9810  -14.2720 C.3   236  TYR236      0.1771
     90  C        -44.6140  -20.4740  -13.4200 C.2   236  TYR236      0.2619
     91  O        -43.5230  -21.0560  -13.4390 O.2   236  TYR236     -0.2715
     92  CB       -47.0820  -21.1820  -13.4580 C.3   236  TYR236      0.0574
     93  CG       -47.7390  -19.9170  -12.9210 C.ar  236  TYR236     -0.0198
     94  CD1      -47.9400  -18.7980  -13.7260 C.ar  236  TYR236     -0.0009
     95  CD2      -48.1630  -19.8510  -11.6040 C.ar  236  TYR236     -0.0009
     96  CE1      -48.5340  -17.6470  -13.2270 C.ar  236  TYR236      0.0417
     97  CE2      -48.7640  -18.7060  -11.0910 C.ar  236  TYR236      0.0417
     98  CZ       -48.9530  -17.6080  -11.9050 C.ar  236  TYR236      0.1957
     99  OH       -49.5490  -16.4830  -11.3680 O.3   236  TYR236     -0.2866
    100  N        -44.8330  -19.3870  -12.6840 N.am  237  VAL237     -0.1963
    101  CA       -43.7520  -18.6540  -12.0260 C.3   237  VAL237      0.1727
    102  C        -42.9550  -19.4590  -10.9930 C.2   237  VAL237      0.2616
    103  O        -41.7550  -19.2430  -10.8490 O.2   237  VAL237     -0.2715
    104  CB       -44.2980  -17.3690  -11.3600 C.3   237  VAL237      0.0290
    105  CG1      -45.1720  -17.6970  -10.1550 C.3   237  VAL237      0.0023
    106  CG2      -43.1630  -16.4360  -10.9670 C.3   237  VAL237      0.0023
    107  N        -43.6080  -20.3790  -10.2840 N.am  238  TRP238     -0.1974
    108  CA       -42.9760  -21.0210   -9.1260 C.3   238  TRP238      0.1640
    109  C        -41.7110  -21.7550   -9.5510 C.2   238  TRP238      0.2290
    110  O        -40.6270  -21.4420   -9.0850 O.2   238  TRP238     -0.2864
    111  CB       -43.9480  -21.9540   -8.3810 C.3   238  TRP238      0.0576
    112  CG       -45.2830  -21.3300   -8.1480 C.ar  238  TRP238      0.0006
    113  CD1      -46.4890  -21.7780   -8.6020 C.ar  238  TRP238      0.0946
    114  CD2      -45.5480  -20.1100   -7.4530 C.ar  238  TRP238      0.0152
    115  NE1      -47.4930  -20.9250   -8.2180 N.ar  238  TRP238     -0.2442
    116  CE2      -46.9450  -19.8880   -7.5150 C.ar  238  TRP238      0.0810
    117  CE3      -44.7420  -19.1800   -6.7800 C.ar  238  TRP238      0.0012
    118  CZ2      -47.5540  -18.7770   -6.9290 C.ar  238  TRP238      0.0191
    119  CZ3      -45.3520  -18.0710   -6.1860 C.ar  238  TRP238      0.0001
    120  CH2      -46.7440  -17.8780   -6.2760 C.ar  238  TRP238      0.0015
    121  N        -40.2980  -21.5590  -12.4760 N.3   240  ASP240     -0.1225
    122  CA       -39.5060  -20.7570  -13.4090 C.3   240  ASP240      0.1805
    123  C        -38.5730  -19.8280  -12.6320 C.2   240  ASP240      0.2598
    124  O        -37.3570  -19.8740  -12.8100 O.2   240  ASP240     -0.2718
    125  CB       -40.4070  -19.9550  -14.3590 C.3   240  ASP240      0.1424
    126  CG       -39.6140  -19.1400  -15.4020 C.2   240  ASP240      0.3668
    127  OD1      -38.3610  -19.1290  -15.3710 O.co2 240  ASP240     -0.2456
    128  OD2      -40.2520  -18.4990  -16.2640 O.co2 240  ASP240     -0.2456
    129  N        -39.1380  -18.9930  -11.7660 N.am  241  ALA241     -0.1966
    130  CA       -38.3480  -17.9620  -11.0840 C.3   241  ALA241      0.1728
    131  C        -37.4420  -18.5360  -10.0010 C.2   241  ALA241      0.2616
    132  O        -36.2450  -18.2580   -9.9870 O.2   241  ALA241     -0.2715
    133  CB       -39.2480  -16.8840  -10.5030 C.3   241  ALA241      0.0334
    134  N        -38.0020  -19.3380   -9.1010 N.am  242  LEU242     -0.1977
    135  CA       -37.2120  -19.8790   -8.0000 C.3   242  LEU242      0.1596
    136  C        -36.0250  -20.7050   -8.5080 C.2   242  LEU242      0.2287
    137  O        -34.9330  -20.6570   -7.9410 O.2   242  LEU242     -0.2864
    138  CB       -38.0860  -20.7000   -7.0510 C.3   242  LEU242      0.0297
    139  CG       -39.1300  -19.8750   -6.2880 C.3   242  LEU242      0.0022
    140  CD1      -40.1140  -20.7940   -5.5970 C.3   242  LEU242      0.0001
    141  CD2      -38.4790  -18.9600   -5.2650 C.3   242  LEU242      0.0001
    142  N        -34.0350  -20.1010  -10.7770 N.3   244  ASN244     -0.1225
    143  CA       -32.8970  -19.2650  -11.1680 C.3   244  ASN244      0.1785
    144  C        -31.6740  -19.4530  -10.2790 C.2   244  ASN244      0.2597
    145  O        -30.5490  -19.3420  -10.7570 O.2   244  ASN244     -0.2718
    146  CB       -33.2730  -17.7750  -11.2150 C.3   244  ASN244      0.1169
    147  CG       -33.0340  -17.0550   -9.8900 C.2   244  ASN244      0.2627
    148  OD1      -31.9150  -16.6030   -9.5890 O.2   244  ASN244     -0.2716
    149  ND2      -34.0930  -16.9370   -9.0910 N.am  244  ASN244     -0.0877
    150  N        -31.9000  -19.7180   -8.9950 N.am  245  TYR245     -0.1976
    151  CA       -30.8190  -19.9600   -8.0450 C.3   245  TYR245      0.1639
    152  C        -30.0550  -21.2270   -8.3890 C.2   245  TYR245      0.2290
    153  O        -28.8370  -21.2780   -8.2840 O.2   245  TYR245     -0.2864
    154  CB       -31.3680  -20.0920   -6.6230 C.3   245  TYR245      0.0560
    155  CG       -32.1910  -18.9110   -6.1500 C.ar  245  TYR245     -0.0198
    156  CD1      -31.7010  -17.6120   -6.2420 C.ar  245  TYR245     -0.0009
    157  CD2      -33.4510  -19.0950   -5.6170 C.ar  245  TYR245     -0.0009
    158  CE1      -32.4440  -16.5330   -5.8060 C.ar  245  TYR245      0.0417
    159  CE2      -34.2080  -18.0210   -5.1810 C.ar  245  TYR245      0.0417
    160  CZ       -33.6950  -16.7460   -5.2720 C.ar  245  TYR245      0.1957
    161  OH       -34.4470  -15.6860   -4.8440 O.3   245  TYR245     -0.2866
    162  N        -42.4400   -9.8730    1.3180 N.3   282  ASP282     -0.1225
    163  CA       -43.5910  -10.1960    0.4640 C.3   282  ASP282      0.1805
    164  C        -43.5420  -11.5570   -0.2160 C.2   282  ASP282      0.2597
    165  O        -44.5930  -12.1100   -0.5540 O.2   282  ASP282     -0.2718
    166  CB       -43.7930   -9.1100   -0.6090 C.3   282  ASP282      0.1424
    167  CG       -42.4970   -8.7590   -1.3800 C.2   282  ASP282      0.3668
    168  OD1      -41.4820   -8.3030   -0.7660 O.co2 282  ASP282     -0.2456
    169  OD2      -42.5180   -8.9080   -2.6250 O.co2 282  ASP282     -0.2456
    170  N        -42.3440  -12.0900   -0.4250 N.am  283  ILE283     -0.1980
    171  CA       -42.1770  -13.3910   -1.0700 C.3   283  ILE283      0.1595
    172  C        -41.5660  -14.4700   -0.1620 C.2   283  ILE283      0.2287
    173  O        -41.0610  -15.4880   -0.6500 O.2   283  ILE283     -0.2864
    174  CB       -41.3380  -13.2410   -2.3440 C.3   283  ILE283      0.0276
    175  CG1      -39.8780  -12.9150   -2.0190 C.3   283  ILE283      0.0022
    176  CG2      -41.9500  -12.1620   -3.2140 C.3   283  ILE283      0.0022
    177  CD1      -39.0650  -12.5020   -3.2230 C.3   283  ILE283      0.0001
    178  N        -42.9060  -18.0350   -0.5340 N.3   286  PHE286     -0.1227
    179  CA       -42.4780  -18.7490   -1.7370 C.3   286  PHE286      0.1736
    180  C        -41.0800  -19.3140   -1.5530 C.2   286  PHE286      0.2595
    181  O        -40.7950  -20.4160   -2.0230 O.2   286  PHE286     -0.2718
    182  CB       -42.4810  -17.8530   -2.9790 C.3   286  PHE286      0.0547
    183  CG       -43.7060  -17.0140   -3.1280 C.ar  286  PHE286     -0.0202
    184  CD1      -44.9580  -17.4980   -2.7570 C.ar  286  PHE286     -0.0042
    185  CD2      -43.6180  -15.7470   -3.6840 C.ar  286  PHE286     -0.0042
    186  CE1      -46.0920  -16.7240   -2.9040 C.ar  286  PHE286     -0.0003
    187  CE2      -44.7580  -14.9710   -3.8470 C.ar  286  PHE286     -0.0003
    188  CZ       -45.9960  -15.4630   -3.4560 C.ar  286  PHE286     -0.0000
    189  N        -40.2190  -18.5490   -0.8850 N.am  287  HIS287     -0.1975
    190  CA       -38.8400  -18.9750   -0.6410 C.3   287  HIS287      0.1656
    191  C        -38.6860  -19.9530    0.5140 C.2   287  HIS287      0.2291
    192  O        -37.7960  -20.8040    0.4780 O.2   287  HIS287     -0.2864
    193  CB       -37.9270  -17.7590   -0.4440 C.3   287  HIS287      0.0771
    194  CG       -37.5790  -17.0930   -1.7310 C.ar  287  HIS287      0.0820
    195  ND1      -38.5190  -16.4390   -2.4960 N.ar  287  HIS287     -0.2267
    196  CD2      -36.4240  -17.0490   -2.4310 C.ar  287  HIS287      0.1154
    197  CE1      -37.9520  -15.9950   -3.6030 C.ar  287  HIS287      0.1986
    198  NE2      -36.6820  -16.3540   -3.5900 N.ar  287  HIS287     -0.2212
@<TRIPOS>BOND
     1    79    78    2
     2    71    70    2
     3    76    77    1
     4    70    69    1
     5    78    77    1
     6    77    80    1
     7    68    69    1
     8    69    72    1
     9    45    43   ar
    10    45    44   ar
    11    43    41   ar
    12    72    73    1
    13    53    52    2
    14    49    48    2
    15    44    42   ar
    16    51    52    1
    17    51    54    1
    18    51    50    1
    19    41    42   ar
    20    41    40    1
    21    73    74    1
    22    73    75    1
    23    54    55    1
    24    48    50   am
    25    48    47    1
    26    46    47    1
    27    46    38   am
    28    37    40    1
    29    37    38    1
    30    37    36    1
    31    81    82    1
    32    38    39    2
    33    55    56    1
    34    87    85    1
    35    56    57    2
    36    56    58   am
    37    82    85    1
    38    82    83    1
    39    84    83    2
    40    85    86    1
    41   128   126   ar
    42    83    88   am
    43    27    26    1
    44   126   127   ar
    45   126   125    1
    46    30    31    2
    47    30    29    1
    48    88    89    1
    49    26    24   ar
    50    26    25   ar
    51    24    22   ar
    52   125   122    1
    53    67    65   ar
    54    89    92    1
    55    89    90    1
    56    25    23   ar
    57    29    28    1
    58    29    32    1
    59    34    33   ar
    60    22    21   ar
    61    94    96   ar
    62    94    93   ar
    63    18    19    2
    64    18    17    1
    65    65    64    1
    66    65    66   ar
    67    92    93    1
    68    91    90    2
    69    90   100   am
    70   122   123    1
    71   122   121    1
    72    64    63    1
    73    23    21   ar
    74    96    98   ar
    75    21    20    1
    76    33    32    1
    77    33    35   ar
    78    93    95   ar
    79   124   123    2
    80   100   101    1
    81   123   129   am
    82    17    20    1
    83    17    16    1
    84    63    60    1
    85    60    59    1
    86    60    61    1
    87   101   104    1
    88   101   102    1
    89    98    99    1
    90    98    97   ar
    91   129   130    1
    92    95    97   ar
    93    15    13    1
    94   104   106    1
    95   104   105    1
    96   146   143    1
    97   146   147    1
    98    61    62    2
    99   143   142    1
   100   143   144    1
   101   130   133    1
   102   130   131    1
   103   102   103    2
   104   102   107   am
   105   145   144    2
   106    12    14    1
   107    12    13    1
   108    12     9    1
   109   107   108    1
   110   144   150   am
   111   131   132    2
   112   131   134   am
   113   147   148    2
   114   147   149   am
   115    10     9    1
   116    10    11    2
   117   109   108    1
   118   109   110    2
   119     9     8    1
   120   108   111    1
   121   134   135    1
   122   150   151    1
   123   113   115   ar
   124   113   112   ar
   125   136   135    1
   126   136   137    2
   127   152   153    2
   128   152   151    1
   129   111   112    1
   130   115   116   ar
   131     8     3   am
   132   112   114   ar
   133   151   154    1
   134   135   138    1
   135   116   114   ar
   136   116   118   ar
   137     4     3    2
   138   114   117   ar
   139     3     2    1
   140   138   139    1
   141   118   120   ar
   142   117   119   ar
   143   154   155    1
   144   139   140    1
   145   139   141    1
   146   120   119   ar
   147   156   155   ar
   148   156   158   ar
   149   155   157   ar
   150     2     5    1
   151     2     1    1
   152   158   160   ar
   153   157   159   ar
   154   160   159   ar
   155   160   161    1
   156     5     6    1
   157     1     7    1
   158     7     6    1
   159   187   185   ar
   160   187   188   ar
   161   185   183   ar
   162   197   198   ar
   163   197   195   ar
   164   198   196   ar
   165   188   186   ar
   166   177   175    1
   167   176   174    1
   168   183   182    1
   169   183   184   ar
   170   182   179    1
   171   186   184   ar
   172   169   167   ar
   173   195   194   ar
   174   196   194   ar
   175   174   175    1
   176   174   171    1
   177   181   180    2
   178   179   180    1
   179   179   178    1
   180   194   193    1
   181   180   189   am
   182   167   168   ar
   183   167   166    1
   184   171   170    1
   185   171   172    1
   186   189   190    1
   187   173   172    2
   188   190   193    1
   189   190   191    1
   190   166   163    1
   191   165   164    2
   192   170   164   am
   193   164   163    1
   194   163   162    1
   195   192   191    2
