@<TRIPOS>MOLECULE
tmp/4mw1B00.pdb
 181 178 0 0 0
SMALL
GASTEIGER

@<TRIPOS>ATOM
      1  N        -33.6820  -11.5390   -5.0860 N.3    16  PRO16      -0.2102
      2  CA       -34.7340  -12.0840   -5.9360 C.3    16  PRO16       0.1504
      3  C        -34.4380  -11.7020   -7.3730 C.2    16  PRO16       0.2575
      4  O        -33.5630  -10.8630   -7.6180 O.2    16  PRO16      -0.2718
      5  CB       -35.9950  -11.3710   -5.4410 C.3    16  PRO16       0.0282
      6  CG       -35.6170  -10.7640   -4.1110 C.3    16  PRO16       0.0208
      7  CD       -34.1680  -10.4330   -4.2470 C.3    16  PRO16       0.0893
      8  N        -35.1340  -12.3240   -8.3120 N.am   17  ILE17      -0.1980
      9  CA       -35.1500  -11.8140   -9.6570 C.3    17  ILE17       0.1595
     10  C        -36.4050  -10.9450   -9.8130 C.2    17  ILE17       0.2287
     11  O        -37.4610  -11.2250   -9.2570 O.2    17  ILE17      -0.2864
     12  CB       -35.0400  -12.9110  -10.7160 C.3    17  ILE17       0.0276
     13  CG1      -36.1710  -13.9470  -10.5900 C.3    17  ILE17       0.0022
     14  CG2      -33.6850  -13.5920  -10.6090 C.3    17  ILE17       0.0022
     15  CD1      -36.1760  -14.9410  -11.7320 C.3    17  ILE17       0.0001
     16  N        -39.3380   -8.4050  -11.6040 N.3    19  TYR19      -0.1241
     17  CA       -40.2960   -8.5070  -12.7000 C.3    19  TYR19       0.1605
     18  C        -40.2170   -7.2980  -13.6290 C.2    19  TYR19       0.2264
     19  O        -40.2400   -6.1510  -13.1790 O.2    19  TYR19      -0.2867
     20  CB       -41.7140   -8.6790  -12.1580 C.3    19  TYR19       0.0534
     21  CG       -42.6450   -9.4400  -13.0860 C.ar   19  TYR19      -0.0201
     22  CD1      -42.2070  -10.5650  -13.7780 C.ar   19  TYR19      -0.0009
     23  CD2      -43.9720   -9.0560  -13.2410 C.ar   19  TYR19      -0.0009
     24  CE1      -43.0460  -11.2690  -14.6160 C.ar   19  TYR19       0.0417
     25  CE2      -44.8270   -9.7550  -14.0740 C.ar   19  TYR19       0.0417
     26  CZ       -44.3600  -10.8630  -14.7630 C.ar   19  TYR19       0.1957
     27  OH       -45.2000  -11.5710  -15.5990 O.3    19  TYR19      -0.2866
     28  N        -37.0410  -11.5740  -13.9690 N.3    56  ASP56      -0.1239
     29  CA       -38.1330  -12.5170  -14.1540 C.3    56  ASP56       0.1674
     30  C        -38.8860  -11.9730  -15.3530 C.2    56  ASP56       0.2266
     31  O        -39.4420  -10.8820  -15.2800 O.2    56  ASP56      -0.2867
     32  CB       -39.0010  -12.4620  -12.8920 C.3    56  ASP56       0.1410
     33  CG       -40.1950  -13.4200  -12.9100 C.2    56  ASP56       0.3668
     34  OD1      -40.4420  -14.1200  -13.9240 O.co2  56  ASP56      -0.2456
     35  OD2      -40.8930  -13.4610  -11.8680 O.co2  56  ASP56      -0.2456
     36  N        -41.0620  -13.8110  -17.9630 N.3    58  HIS58      -0.1226
     37  CA       -42.2100  -14.4470  -18.5960 C.3    58  HIS58       0.1752
     38  C        -43.5340  -14.0110  -17.9880 C.2    58  HIS58       0.2596
     39  O        -43.5720  -13.2960  -16.9930 O.2    58  HIS58      -0.2718
     40  CB       -42.0930  -15.9550  -18.4720 C.3    58  HIS58       0.0759
     41  CG       -40.9040  -16.5200  -19.1680 C.ar   58  HIS58       0.0818
     42  ND1      -40.0290  -17.3840  -18.5520 N.ar   58  HIS58      -0.2268
     43  CD2      -40.4430  -16.3520  -20.4260 C.ar   58  HIS58       0.1154
     44  CE1      -39.0800  -17.7260  -19.4000 C.ar   58  HIS58       0.1986
     45  NE2      -39.3130  -17.1190  -20.5470 N.ar   58  HIS58      -0.2212
     46  N        -44.6240  -14.4490  -18.6080 N.am   59  GLY59      -0.1957
     47  CA       -45.9440  -14.3060  -18.0350 C.3    59  GLY59       0.1869
     48  C        -46.8070  -13.3500  -18.8110 C.2    59  GLY59       0.2309
     49  O        -46.3120  -12.5620  -19.6430 O.2    59  GLY59      -0.2863
     50  N        -54.4630  -14.0970  -11.6340 N.3   137  GLU137     -0.1245
     51  CA       -53.8110  -15.3240  -12.0810 C.3   137  GLU137      0.1567
     52  C        -53.9290  -16.4380  -11.0270 C.2   137  GLU137      0.2260
     53  O        -52.9990  -17.2270  -10.8340 O.2   137  GLU137     -0.2867
     54  CB       -52.3470  -15.0420  -12.4130 C.3   137  GLU137      0.0388
     55  CG       -52.1380  -13.7630  -13.2080 C.3   137  GLU137      0.1160
     56  CD       -50.6750  -13.4290  -13.4390 C.2   137  GLU137      0.3649
     57  OE1      -49.7900  -14.1430  -12.9200 O.co2 137  GLU137     -0.2457
     58  OE2      -50.4180  -12.4350  -14.1490 O.co2 137  GLU137     -0.2457
     59  N        -51.1940  -17.2630  -20.7770 N.3   225  LEU225     -0.1245
     60  CA       -49.9260  -16.5400  -20.6920 C.3   225  LEU225      0.1561
     61  C        -49.4720  -15.9230  -22.0190 C.2   225  LEU225      0.2260
     62  O        -48.3390  -15.4590  -22.1200 O.2   225  LEU225     -0.2867
     63  CB       -48.8320  -17.4890  -20.1820 C.3   225  LEU225      0.0270
     64  CG       -49.0970  -18.2100  -18.8550 C.3   225  LEU225      0.0019
     65  CD1      -47.9040  -19.0710  -18.4650 C.3   225  LEU225      0.0001
     66  CD2      -49.4080  -17.2200  -17.7350 C.3   225  LEU225      0.0001
     67  N        -43.9360  -17.9410  -22.1210 N.3   229  ALA229     -0.1245
     68  CA       -43.4760  -18.7300  -20.9630 C.3   229  ALA229      0.1562
     69  C        -42.8080  -20.0220  -21.4160 C.2   229  ALA229      0.2260
     70  O        -42.8380  -20.3590  -22.5950 O.2   229  ALA229     -0.2867
     71  CB       -44.6450  -19.0530  -20.0480 C.3   229  ALA229      0.0290
     72  N        -44.9840  -23.5400  -18.0270 N.3   239  VAL239     -0.1231
     73  CA       -44.5460  -23.5250  -16.6440 C.3   239  VAL239      0.1692
     74  C        -44.8480  -22.1470  -16.0550 C.2   239  VAL239      0.2592
     75  O        -44.3880  -21.1330  -16.5870 O.2   239  VAL239     -0.2718
     76  CB       -43.0330  -23.8180  -16.5350 C.3   239  VAL239      0.0266
     77  CG1      -42.5710  -23.7480  -15.0800 C.3   239  VAL239      0.0020
     78  CG2      -42.7150  -25.1790  -17.1400 C.3   239  VAL239      0.0020
     79  N        -45.6200  -22.1160  -14.9670 N.am  240  TYR240     -0.1962
     80  CA       -45.9800  -20.8630  -14.3120 C.3   240  TYR240      0.1771
     81  C        -44.7970  -20.3670  -13.4610 C.2   240  TYR240      0.2619
     82  O        -43.6900  -20.9380  -13.5150 O.2   240  TYR240     -0.2715
     83  CB       -47.2710  -21.0450  -13.4960 C.3   240  TYR240      0.0574
     84  CG       -47.8910  -19.7740  -12.9360 C.ar  240  TYR240     -0.0198
     85  CD1      -48.1170  -18.6590  -13.7360 C.ar  240  TYR240     -0.0009
     86  CD2      -48.2770  -19.7010  -11.6060 C.ar  240  TYR240     -0.0009
     87  CE1      -48.6790  -17.5010  -13.2170 C.ar  240  TYR240      0.0417
     88  CE2      -48.8410  -18.5500  -11.0780 C.ar  240  TYR240      0.0417
     89  CZ       -49.0330  -17.4550  -11.8850 C.ar  240  TYR240      0.1957
     90  OH       -49.5900  -16.3170  -11.3450 O.3   240  TYR240     -0.2866
     91  N        -45.0150  -19.3020  -12.6960 N.am  241  VAL241     -0.1963
     92  CA       -43.9170  -18.5660  -12.0730 C.3   241  VAL241      0.1727
     93  C        -43.0580  -19.3890  -11.1020 C.2   241  VAL241      0.2616
     94  O        -41.8390  -19.2390  -11.0870 O.2   241  VAL241     -0.2715
     95  CB       -44.4350  -17.2820  -11.3650 C.3   241  VAL241      0.0290
     96  CG1      -45.3280  -17.6180  -10.1820 C.3   241  VAL241      0.0023
     97  CG2      -43.2700  -16.4090  -10.9280 C.3   241  VAL241      0.0023
     98  N        -43.6880  -20.2510  -10.3090 N.am  242  TRP242     -0.1974
     99  CA       -43.0000  -20.9070   -9.1920 C.3   242  TRP242      0.1640
    100  C        -41.7670  -21.6830   -9.6450 C.2   242  TRP242      0.2290
    101  O        -40.6700  -21.4170   -9.1830 O.2   242  TRP242     -0.2864
    102  CB       -43.9500  -21.7980   -8.3910 C.3   242  TRP242      0.0576
    103  CG       -45.3110  -21.1510   -8.1680 C.ar  242  TRP242      0.0006
    104  CD1      -46.5120  -21.6010   -8.6330 C.ar  242  TRP242      0.0946
    105  CD2      -45.5860  -19.9270   -7.4780 C.ar  242  TRP242      0.0152
    106  NE1      -47.5130  -20.7550   -8.2580 N.ar  242  TRP242     -0.2442
    107  CE2      -46.9810  -19.7130   -7.5520 C.ar  242  TRP242      0.0810
    108  CE3      -44.7980  -19.0020   -6.7910 C.ar  242  TRP242      0.0012
    109  CZ2      -47.6080  -18.6020   -6.9690 C.ar  242  TRP242      0.0191
    110  CZ3      -45.4180  -17.8970   -6.2030 C.ar  242  TRP242      0.0001
    111  CH2      -46.8130  -17.7080   -6.3020 C.ar  242  TRP242      0.0015
    112  N        -40.4240  -21.5450  -12.6030 N.3   244  ASP244     -0.1225
    113  CA       -39.6200  -20.7240  -13.5130 C.3   244  ASP244      0.1805
    114  C        -38.6910  -19.8110  -12.7190 C.2   244  ASP244      0.2598
    115  O        -37.4730  -19.8830  -12.8640 O.2   244  ASP244     -0.2718
    116  CB       -40.5200  -19.9070  -14.4460 C.3   244  ASP244      0.1424
    117  CG       -39.7410  -19.1180  -15.4900 C.2   244  ASP244      0.3668
    118  OD1      -38.4880  -19.0660  -15.4260 O.co2 244  ASP244     -0.2456
    119  OD2      -40.3900  -18.5260  -16.3790 O.co2 244  ASP244     -0.2456
    120  N        -39.2630  -18.9570  -11.8730 N.am  245  ALA245     -0.1966
    121  CA       -38.4880  -17.9070  -11.2160 C.3   245  ALA245      0.1728
    122  C        -37.5730  -18.4380  -10.1160 C.2   245  ALA245      0.2616
    123  O        -36.4110  -18.0460  -10.0380 O.2   245  ALA245     -0.2715
    124  CB       -39.4110  -16.8370  -10.6640 C.3   245  ALA245      0.0334
    125  N        -38.0900  -19.3010   -9.2460 N.am  246  LEU246     -0.1977
    126  CA       -37.2950  -19.7990   -8.1160 C.3   246  LEU246      0.1596
    127  C        -36.0800  -20.5860   -8.6050 C.2   246  LEU246      0.2287
    128  O        -34.9800  -20.4830   -8.0440 O.2   246  LEU246     -0.2864
    129  CB       -38.1440  -20.6640   -7.1870 C.3   246  LEU246      0.0297
    130  CG       -39.1700  -19.8430   -6.4090 C.3   246  LEU246      0.0022
    131  CD1      -40.2880  -20.7010   -5.8590 C.3   246  LEU246      0.0001
    132  CD2      -38.5130  -19.0500   -5.2820 C.3   246  LEU246      0.0001
    133  N        -32.0660  -19.6600   -9.0990 N.3   249  TYR249     -0.1241
    134  CA       -31.0000  -19.9050   -8.1390 C.3   249  TYR249      0.1605
    135  C        -30.2370  -21.2030   -8.4710 C.2   249  TYR249      0.2264
    136  O        -29.0060  -21.2800   -8.3610 O.2   249  TYR249     -0.2867
    137  CB       -31.5900  -19.9860   -6.7310 C.3   249  TYR249      0.0534
    138  CG       -32.4170  -18.7850   -6.2690 C.ar  249  TYR249     -0.0201
    139  CD1      -31.9110  -17.4930   -6.3250 C.ar  249  TYR249     -0.0009
    140  CD2      -33.6800  -18.9580   -5.7220 C.ar  249  TYR249     -0.0009
    141  CE1      -32.6450  -16.4040   -5.8780 C.ar  249  TYR249      0.0417
    142  CE2      -34.4230  -17.8740   -5.2610 C.ar  249  TYR249      0.0417
    143  CZ       -33.8970  -16.6000   -5.3370 C.ar  249  TYR249      0.1957
    144  OH       -34.6270  -15.5360   -4.8710 O.3   249  TYR249     -0.2866
    145  N        -42.5060   -9.9060    1.2400 N.3   286  ASP286     -0.1225
    146  CA       -43.6110  -10.2430    0.3260 C.3   286  ASP286      0.1805
    147  C        -43.5150  -11.6060   -0.3780 C.2   286  ASP286      0.2597
    148  O        -44.5330  -12.1620   -0.7920 O.2   286  ASP286     -0.2718
    149  CB       -43.7490   -9.1290   -0.7480 C.3   286  ASP286      0.1424
    150  CG       -42.3860   -8.8180   -1.5250 C.2   286  ASP286      0.3668
    151  OD1      -41.3610   -8.3670   -0.9270 O.co2 286  ASP286     -0.2456
    152  OD2      -42.3650   -8.9950   -2.7670 O.co2 286  ASP286     -0.2456
    153  N        -42.3050  -12.1170   -0.5530 N.am  287  ILE287     -0.1980
    154  CA       -42.0750  -13.3870   -1.2370 C.3   287  ILE287      0.1595
    155  C        -41.4580  -14.4380   -0.2930 C.2   287  ILE287      0.2287
    156  O        -40.9330  -15.4610   -0.7450 O.2   287  ILE287     -0.2864
    157  CB       -41.2060  -13.1890   -2.5030 C.3   287  ILE287      0.0276
    158  CG1      -39.7750  -12.7560   -2.1550 C.3   287  ILE287      0.0022
    159  CG2      -41.8410  -12.1420   -3.4050 C.3   287  ILE287      0.0022
    160  CD1      -38.9450  -12.3500   -3.3610 C.3   287  ILE287      0.0001
    161  N        -42.9860  -17.9320   -0.6010 N.3   290  PHE290     -0.1227
    162  CA       -42.5590  -18.6170   -1.8170 C.3   290  PHE290      0.1736
    163  C        -41.1560  -19.2040   -1.6260 C.2   290  PHE290      0.2595
    164  O        -40.8370  -20.2640   -2.1620 O.2   290  PHE290     -0.2718
    165  CB       -42.5650  -17.6890   -3.0460 C.3   290  PHE290      0.0547
    166  CG       -43.8130  -16.8640   -3.2060 C.ar  290  PHE290     -0.0202
    167  CD1      -45.0560  -17.3500   -2.8260 C.ar  290  PHE290     -0.0042
    168  CD2      -43.7410  -15.5980   -3.7740 C.ar  290  PHE290     -0.0042
    169  CE1      -46.2010  -16.5830   -2.9730 C.ar  290  PHE290     -0.0003
    170  CE2      -44.8820  -14.8230   -3.9240 C.ar  290  PHE290     -0.0003
    171  CZ       -46.1170  -15.3200   -3.5240 C.ar  290  PHE290     -0.0000
    172  N        -40.3310  -18.5170   -0.8510 N.am  291  HIS291     -0.1975
    173  CA       -38.9470  -18.9420   -0.6360 C.3   291  HIS291      0.1656
    174  C        -38.7730  -19.9450    0.5160 C.2   291  HIS291      0.2291
    175  O        -37.8690  -20.7790    0.4750 O.2   291  HIS291     -0.2864
    176  CB       -38.0550  -17.7140   -0.4380 C.3   291  HIS291      0.0771
    177  CG       -37.7460  -17.0050   -1.7160 C.ar  291  HIS291      0.0820
    178  ND1      -38.6610  -16.2070   -2.3580 N.ar  291  HIS291     -0.2267
    179  CD2      -36.6360  -16.9980   -2.4890 C.ar  291  HIS291      0.1154
    180  CE1      -38.1360  -15.7400   -3.4770 C.ar  291  HIS291      0.1986
    181  NE2      -36.9080  -16.2080   -3.5800 N.ar  291  HIS291     -0.2212
@<TRIPOS>BOND
     1    70    69    2
     2    67    68    1
     3    62    61    2
     4    61    60    1
     5    69    68    1
     6    68    71    1
     7    59    60    1
     8    60    63    1
     9    45    43   ar
    10    45    44   ar
    11    43    41   ar
    12    63    64    1
    13    49    48    2
    14    44    42   ar
    15    41    42   ar
    16    41    40    1
    17    64    65    1
    18    64    66    1
    19    48    47    1
    20    46    47    1
    21    46    38   am
    22    37    40    1
    23    37    38    1
    24    37    36    1
    25    72    73    1
    26    38    39    2
    27    78    76    1
    28    73    76    1
    29    73    74    1
    30    75    74    2
    31    76    77    1
    32   119   117   ar
    33    74    79   am
    34    27    26    1
    35   117   118   ar
    36   117   116    1
    37    30    31    2
    38    30    29    1
    39    79    80    1
    40    26    24   ar
    41    26    25   ar
    42    24    22   ar
    43   116   113    1
    44    80    83    1
    45    80    81    1
    46    29    28    1
    47    29    32    1
    48    58    56   ar
    49    25    23   ar
    50    34    33   ar
    51    22    21   ar
    52    85    87   ar
    53    85    84   ar
    54    18    19    2
    55    18    17    1
    56    82    81    2
    57   113   114    1
    58   113   112    1
    59    83    84    1
    60    81    91   am
    61    56    55    1
    62    56    57   ar
    63    23    21   ar
    64    87    89   ar
    65    55    54    1
    66    21    20    1
    67    84    86   ar
    68    33    32    1
    69    33    35   ar
    70   115   114    2
    71   114   120   am
    72    17    20    1
    73    17    16    1
    74    91    92    1
    75    54    51    1
    76    51    50    1
    77    51    52    1
    78    92    95    1
    79    92    93    1
    80    89    90    1
    81    89    88   ar
    82   120   121    1
    83    15    13    1
    84    86    88   ar
    85    95    97    1
    86    95    96    1
    87   121   124    1
    88   121   122    1
    89    93    94    2
    90    93    98   am
    91    52    53    2
    92    12    14    1
    93    12    13    1
    94    12     9    1
    95    98    99    1
    96   122   123    2
    97   122   125   am
    98    10     9    1
    99    10    11    2
   100     9     8    1
   101   100    99    1
   102   100   101    2
   103   125   126    1
   104    99   102    1
   105   133   134    1
   106   104   106   ar
   107   104   103   ar
   108   127   126    1
   109   127   128    2
   110   135   136    2
   111   135   134    1
   112   102   103    1
   113     8     3   am
   114   106   107   ar
   115   103   105   ar
   116   134   137    1
   117   126   129    1
   118     4     3    2
   119   107   105   ar
   120   107   109   ar
   121   105   108   ar
   122     3     2    1
   123   129   130    1
   124   109   111   ar
   125   108   110   ar
   126   137   138    1
   127   130   131    1
   128   130   132    1
   129   139   138   ar
   130   139   141   ar
   131   111   110   ar
   132   138   140   ar
   133     2     5    1
   134     2     1    1
   135   141   143   ar
   136   140   142   ar
   137     5     6    1
   138   143   142   ar
   139   143   144    1
   140     1     7    1
   141     7     6    1
   142   170   168   ar
   143   170   171   ar
   144   168   166   ar
   145   181   180   ar
   146   181   179   ar
   147   171   169   ar
   148   180   178   ar
   149   159   157    1
   150   160   158    1
   151   166   165    1
   152   166   167   ar
   153   165   162    1
   154   169   167   ar
   155   152   150   ar
   156   157   158    1
   157   157   154    1
   158   179   177   ar
   159   178   177   ar
   160   164   163    2
   161   162   163    1
   162   162   161    1
   163   177   176    1
   164   163   172   am
   165   150   151   ar
   166   150   149    1
   167   154   153    1
   168   154   155    1
   169   172   173    1
   170   148   147    2
   171   149   146    1
   172   156   155    2
   173   173   176    1
   174   173   174    1
   175   153   147   am
   176   147   146    1
   177   146   145    1
   178   175   174    2
