@<TRIPOS>MOLECULE
tmp/4mw2B00.pdb
 190 186 0 0 0
SMALL
GASTEIGER

@<TRIPOS>ATOM
      1  N        -33.3400   11.4760    5.2590 N.3    16  PRO16      -0.2102
      2  CA       -34.4150   11.9930    6.0830 C.3    16  PRO16       0.1504
      3  C        -34.0940   11.6480    7.5190 C.2    16  PRO16       0.2575
      4  O        -33.1590   10.8610    7.7700 O.2    16  PRO16      -0.2718
      5  CB       -35.6350   11.1980    5.6120 C.3    16  PRO16       0.0282
      6  CG       -35.2450   10.6290    4.2770 C.3    16  PRO16       0.0208
      7  CD       -33.7880   10.3420    4.4420 C.3    16  PRO16       0.0893
      8  N        -34.8330   12.2450    8.4490 N.am   17  ILE17      -0.1980
      9  CA       -34.7910   11.7980    9.8150 C.3    17  ILE17       0.1595
     10  C        -36.0460   10.9710   10.0200 C.2    17  ILE17       0.2287
     11  O        -37.1450   11.3410    9.5740 O.2    17  ILE17      -0.2864
     12  CB       -34.6060   12.9410   10.8370 C.3    17  ILE17       0.0276
     13  CG1      -35.6450   14.0470   10.6670 C.3    17  ILE17       0.0022
     14  CG2      -33.2000   13.5350   10.7130 C.3    17  ILE17       0.0022
     15  CD1      -35.6670   15.0040   11.8330 C.3    17  ILE17       0.0001
     16  N        -38.9830    8.5190   11.7140 N.3    19  TYR19      -0.1241
     17  CA       -39.9640    8.6310   12.7750 C.3    19  TYR19       0.1605
     18  C        -39.8860    7.4210   13.6930 C.2    19  TYR19       0.2264
     19  O        -39.9430    6.2780   13.2400 O.2    19  TYR19      -0.2867
     20  CB       -41.3860    8.7960   12.2090 C.3    19  TYR19       0.0534
     21  CG       -42.3400    9.4510   13.1920 C.ar   19  TYR19      -0.0201
     22  CD1      -41.9670   10.6070   13.8720 C.ar   19  TYR19      -0.0009
     23  CD2      -43.5990    8.9270   13.4420 C.ar   19  TYR19      -0.0009
     24  CE1      -42.8120   11.2210   14.7670 C.ar   19  TYR19       0.0417
     25  CE2      -44.4640    9.5380   14.3470 C.ar   19  TYR19       0.0417
     26  CZ       -44.0610   10.6910   15.0040 C.ar   19  TYR19       0.1957
     27  OH       -44.8740   11.3350   15.9170 O.3    19  TYR19      -0.2866
     28  N        -36.6960   11.6350   14.1190 N.3    56  ASP56      -0.1239
     29  CA       -37.7400   12.6310   14.2580 C.3    56  ASP56       0.1674
     30  C        -38.5240   12.0860   15.4440 C.2    56  ASP56       0.2266
     31  O        -39.1660   11.0340   15.3380 O.2    56  ASP56      -0.2867
     32  CB       -38.5460   12.6290   12.9440 C.3    56  ASP56       0.1410
     33  CG       -39.8520   13.4390   12.9880 C.2    56  ASP56       0.3668
     34  OD1      -40.1550   14.1620   13.9650 O.co2  56  ASP56      -0.2456
     35  OD2      -40.5840   13.3570   11.9710 O.co2  56  ASP56      -0.2456
     36  N        -40.7600   13.7930   17.9570 N.3    58  HIS58      -0.1226
     37  CA       -41.8870   14.4840   18.6130 C.3    58  HIS58       0.1752
     38  C        -43.2570   14.0580   18.0460 C.2    58  HIS58       0.2596
     39  O        -43.3330   13.2910   17.0990 O.2    58  HIS58      -0.2718
     40  CB       -41.7110   16.0050   18.5070 C.3    58  HIS58       0.0759
     41  CG       -40.5090   16.5360   19.2310 C.ar   58  HIS58       0.0818
     42  ND1      -39.5740   17.3490   18.6260 N.ar   58  HIS58      -0.2268
     43  CD2      -40.0880   16.3740   20.5070 C.ar   58  HIS58       0.1154
     44  CE1      -38.6320   17.6660   19.4940 C.ar   58  HIS58       0.1986
     45  NE2      -38.9140   17.0820   20.6410 N.ar   58  HIS58      -0.2212
     46  N        -44.3430   14.5460   18.6390 N.am   59  GLY59      -0.1957
     47  CA       -45.6740   14.3040   18.0850 C.3    59  GLY59       0.1869
     48  C        -46.5670   13.4020   18.9020 C.2    59  GLY59       0.2309
     49  O        -46.1070   12.6760   19.7770 O.2    59  GLY59      -0.2863
     50  N        -48.2420   10.7020   18.1090 N.3    61  LYS61      -0.1245
     51  CA       -48.1040    9.2560   17.8960 C.3    61  LYS61       0.1561
     52  C        -46.9750    8.6300   18.7170 C.2    61  LYS61       0.2260
     53  O        -47.1320    7.5300   19.2540 O.2    61  LYS61      -0.2867
     54  CB       -47.9290    8.9320   16.4140 C.3    61  LYS61       0.0271
     55  CG       -49.2560    8.8560   15.6770 C.3    61  LYS61       0.0035
     56  CD       -49.0730    8.7700   14.1650 C.3    61  LYS61       0.0206
     57  CE       -50.4080    8.5420   13.4670 C.3    61  LYS61       0.1093
     58  NZ       -51.4480    9.5310   13.8890 N.3    61  LYS61      -0.1314
     59  N        -54.5560   14.3590   12.1920 N.3   137  GLU137     -0.1245
     60  CA       -53.7930   15.5740   12.4950 C.3   137  GLU137      0.1567
     61  C        -53.9750   16.6240   11.3850 C.2   137  GLU137      0.2260
     62  O        -53.0630   17.4020   11.1040 O.2   137  GLU137     -0.2867
     63  CB       -52.2990   15.2550   12.7150 C.3   137  GLU137      0.0388
     64  CG       -52.0280   13.9630   13.4890 C.3   137  GLU137      0.1160
     65  CD       -50.5500   13.6820   13.7140 C.2   137  GLU137      0.3649
     66  OE1      -49.7160   14.5040   13.2920 O.co2 137  GLU137     -0.2457
     67  OE2      -50.2170   12.6350   14.3140 O.co2 137  GLU137     -0.2457
     68  N        -50.7220   17.4910   20.9160 N.3   222  LEU222     -0.1245
     69  CA       -49.4620   16.7650   20.7890 C.3   222  LEU222      0.1561
     70  C        -49.0080   16.1260   22.1100 C.2   222  LEU222      0.2260
     71  O        -47.8520   15.6990   22.2310 O.2   222  LEU222     -0.2867
     72  CB       -48.3570   17.7090   20.2810 C.3   222  LEU222      0.0270
     73  CG       -48.5830   18.4730   18.9700 C.3   222  LEU222      0.0019
     74  CD1      -47.2680   19.0350   18.4620 C.3   222  LEU222      0.0001
     75  CD2      -49.1980   17.5770   17.9060 C.3   222  LEU222      0.0001
     76  N        -43.3510   18.0130   22.1090 N.3   226  ALA226     -0.1245
     77  CA       -43.0070   18.8290   20.9630 C.3   226  ALA226      0.1562
     78  C        -42.3230   20.0980   21.4480 C.2   226  ALA226      0.2260
     79  O        -42.2640   20.3660   22.6410 O.2   226  ALA226     -0.2867
     80  CB       -44.2650   19.1880   20.1790 C.3   226  ALA226      0.0290
     81  N        -44.5650   23.7870   18.0330 N.3   236  VAL236     -0.1231
     82  CA       -44.1000   23.7490   16.6550 C.3   236  VAL236      0.1692
     83  C        -44.4410   22.3720   16.0950 C.2   236  VAL236      0.2592
     84  O        -44.0480   21.3620   16.6590 O.2   236  VAL236     -0.2718
     85  CB       -42.5870   23.9850   16.5790 C.3   236  VAL236      0.0266
     86  CG1      -42.0780   23.8660   15.1420 C.3   236  VAL236      0.0020
     87  CG2      -42.2430   25.3440   17.1820 C.3   236  VAL236      0.0020
     88  N        -45.2020   22.3360   15.0030 N.am  237  TYR237     -0.1962
     89  CA       -45.6020   21.0770   14.3920 C.3   237  TYR237      0.1771
     90  C        -44.4830   20.5740   13.4580 C.2   237  TYR237      0.2619
     91  O        -43.4220   21.2130   13.3580 O.2   237  TYR237     -0.2715
     92  CB       -46.9660   21.2400   13.6940 C.3   237  TYR237      0.0574
     93  CG       -47.5720   19.9610   13.1570 C.ar  237  TYR237     -0.0198
     94  CD1      -47.7010   18.8260   13.9560 C.ar  237  TYR237     -0.0009
     95  CD2      -48.0040   19.8820   11.8380 C.ar  237  TYR237     -0.0009
     96  CE1      -48.2370   17.6500   13.4500 C.ar  237  TYR237      0.0417
     97  CE2      -48.5380   18.7120   11.3260 C.ar  237  TYR237      0.0417
     98  CZ       -48.6640   17.6060   12.1350 C.ar  237  TYR237      0.1957
     99  OH       -49.2190   16.4580   11.6070 O.3   237  TYR237     -0.2866
    100  N        -44.7040   19.4370   12.7950 N.am  238  VAL238     -0.1963
    101  CA       -43.6240   18.6960   12.0950 C.3   238  VAL238      0.1727
    102  C        -42.7700   19.4880   11.0940 C.2   238  VAL238      0.2616
    103  O        -41.5710   19.2460   10.9780 O.2   238  VAL238     -0.2715
    104  CB       -44.1750   17.4000   11.4190 C.3   238  VAL238      0.0290
    105  CG1      -45.1630   17.7070   10.2970 C.3   238  VAL238      0.0023
    106  CG2      -43.0440   16.5170   10.9120 C.3   238  VAL238      0.0023
    107  N        -43.3670   20.4330   10.3810 N.am  239  TRP239     -0.1974
    108  CA       -42.7090   21.0390    9.2280 C.3   239  TRP239      0.1640
    109  C        -41.4190   21.7500    9.6580 C.2   239  TRP239      0.2290
    110  O        -40.3230   21.3890    9.2090 O.2   239  TRP239     -0.2864
    111  CB       -43.6720   21.9740    8.4830 C.3   239  TRP239      0.0576
    112  CG       -45.0490   21.3820    8.2720 C.ar  239  TRP239      0.0006
    113  CD1      -46.2390   21.8790    8.7430 C.ar  239  TRP239      0.0946
    114  CD2      -45.3740   20.1770    7.5740 C.ar  239  TRP239      0.0152
    115  NE1      -47.2890   21.0700    8.3550 N.ar  239  TRP239     -0.2442
    116  CE2      -46.7900   20.0140    7.6420 C.ar  239  TRP239      0.0810
    117  CE3      -44.6230   19.2280    6.8820 C.ar  239  TRP239      0.0012
    118  CZ2      -47.4500   18.9330    7.0600 C.ar  239  TRP239      0.0191
    119  CZ3      -45.2830   18.1570    6.2940 C.ar  239  TRP239      0.0001
    120  CH2      -46.6940   18.0180    6.3940 C.ar  239  TRP239      0.0015
    121  N        -40.0980   21.6670   12.6690 N.3   241  ASP241     -0.1225
    122  CA       -39.3420   20.8170   13.5800 C.3   241  ASP241      0.1805
    123  C        -38.4380   19.9090   12.7610 C.2   241  ASP241      0.2598
    124  O        -37.2060   20.0090   12.8510 O.2   241  ASP241     -0.2718
    125  CB       -40.2790   19.9950   14.4780 C.3   241  ASP241      0.1424
    126  CG       -39.5250   19.1490   15.4940 C.2   241  ASP241      0.3668
    127  OD1      -38.2910   18.9890   15.3770 O.co2 241  ASP241     -0.2456
    128  OD2      -40.1750   18.6390   16.4260 O.co2 241  ASP241     -0.2456
    129  N        -39.0570   19.0480   11.9490 N.am  242  ALA242     -0.1966
    130  CA       -38.3340   17.9810   11.2440 C.3   242  ALA242      0.1728
    131  C        -37.3620   18.4870   10.1690 C.2   242  ALA242      0.2616
    132  O        -36.1850   18.1360   10.1910 O.2   242  ALA242     -0.2715
    133  CB       -39.3170   16.9910   10.6470 C.3   242  ALA242      0.0334
    134  N        -37.8460   19.3170    9.2470 N.am  243  LEU243     -0.1977
    135  CA       -37.0100   19.7950    8.1380 C.3   243  LEU243      0.1596
    136  C        -35.7840   20.5480    8.6280 C.2   243  LEU243      0.2287
    137  O        -34.7030   20.4580    8.0470 O.2   243  LEU243     -0.2864
    138  CB       -37.8150   20.6830    7.1850 C.3   243  LEU243      0.0297
    139  CG       -39.0350   20.0620    6.4860 C.3   243  LEU243      0.0022
    140  CD1      -39.7130   21.1360    5.6710 C.3   243  LEU243      0.0001
    141  CD2      -38.6860   18.8870    5.5820 C.3   243  LEU243      0.0001
    142  N        -33.8240   20.0550   10.9620 N.3   245  ASN245     -0.1225
    143  CA       -32.6950   19.2020   11.3470 C.3   245  ASN245      0.1785
    144  C        -31.4670   19.4180   10.4560 C.2   245  ASN245      0.2597
    145  O        -30.3270   19.3200   10.9140 O.2   245  ASN245     -0.2718
    146  CB       -33.0890   17.7140   11.3520 C.3   245  ASN245      0.1169
    147  CG       -32.8170   17.0100   10.0200 C.2   245  ASN245      0.2627
    148  OD1      -31.7110   16.5090    9.7890 O.2   245  ASN245     -0.2716
    149  ND2      -33.8200   16.9640    9.1450 N.am  245  ASN245     -0.0877
    150  N        -31.7200   19.7020    9.1840 N.am  246  TYR246     -0.1976
    151  CA       -30.6520   19.8910    8.2120 C.3   246  TYR246      0.1639
    152  C        -29.8900   21.1580    8.5100 C.2   246  TYR246      0.2290
    153  O        -28.6850   21.1940    8.3580 O.2   246  TYR246     -0.2864
    154  CB       -31.2220   19.9840    6.8000 C.3   246  TYR246      0.0560
    155  CG       -32.0190   18.7850    6.3560 C.ar  246  TYR246     -0.0198
    156  CD1      -31.5020   17.4950    6.4670 C.ar  246  TYR246     -0.0009
    157  CD2      -33.2930   18.9460    5.8070 C.ar  246  TYR246     -0.0009
    158  CE1      -32.2360   16.4010    6.0540 C.ar  246  TYR246      0.0417
    159  CE2      -34.0240   17.8640    5.3750 C.ar  246  TYR246      0.0417
    160  CZ       -33.5100   16.6010    5.5070 C.ar  246  TYR246      0.1957
    161  OH       -34.2540   15.5470    5.0600 O.3   246  TYR246     -0.2866
    162  N        -42.0430   12.0550    0.7710 N.3   284  ILE284     -0.1245
    163  CA       -41.8060   13.3440    1.4350 C.3   284  ILE284      0.1561
    164  C        -41.2350   14.4070    0.4800 C.2   284  ILE284      0.2260
    165  O        -40.6520   15.4000    0.9150 O.2   284  ILE284     -0.2867
    166  CB       -40.9140   13.1670    2.6980 C.3   284  ILE284      0.0252
    167  CG1      -39.4980   12.6870    2.3470 C.3   284  ILE284      0.0019
    168  CG2      -41.5430   12.1550    3.6420 C.3   284  ILE284      0.0019
    169  CD1      -38.6540   12.3200    3.5530 C.3   284  ILE284      0.0001
    170  N        -42.7510   18.0670    0.5860 N.3   287  PHE287     -0.1227
    171  CA       -42.3890   18.7690    1.8080 C.3   287  PHE287      0.1736
    172  C        -40.9730   19.3250    1.6600 C.2   287  PHE287      0.2595
    173  O        -40.6780   20.4250    2.1320 O.2   287  PHE287     -0.2718
    174  CB       -42.4610   17.8400    3.0230 C.3   287  PHE287      0.0547
    175  CG       -43.7330   17.0390    3.1230 C.ar  287  PHE287     -0.0202
    176  CD1      -44.9620   17.5860    2.7690 C.ar  287  PHE287     -0.0042
    177  CD2      -43.7000   15.7430    3.6160 C.ar  287  PHE287     -0.0042
    178  CE1      -46.1250   16.8420    2.8780 C.ar  287  PHE287     -0.0003
    179  CE2      -44.8660   15.0020    3.7420 C.ar  287  PHE287     -0.0003
    180  CZ       -46.0840   15.5500    3.3720 C.ar  287  PHE287     -0.0000
    181  N        -40.1050   18.5540    1.0060 N.am  288  HIS288     -0.1975
    182  CA       -38.7330   18.9730    0.7480 C.3   288  HIS288      0.1656
    183  C        -38.5980   19.9270   -0.4520 C.2   288  HIS288      0.2291
    184  O        -37.8240   20.8660   -0.4130 O.2   288  HIS288     -0.2864
    185  CB       -37.8350   17.7440    0.5530 C.3   288  HIS288      0.0771
    186  CG       -37.4670   17.0620    1.8330 C.ar  288  HIS288      0.0820
    187  ND1      -38.3300   16.2250    2.5000 N.ar  288  HIS288     -0.2267
    188  CD2      -36.3320   17.1010    2.5750 C.ar  288  HIS288      0.1154
    189  CE1      -37.7520   15.7840    3.6010 C.ar  288  HIS288      0.1986
    190  NE2      -36.5380   16.3010    3.6730 N.ar  288  HIS288     -0.2212
@<TRIPOS>BOND
     1   183   184    2
     2   183   182    1
     3   164   165    2
     4   164   163    1
     5   185   182    1
     6   185   186    1
     7   170   171    1
     8   182   181    1
     9   162   163    1
    10   181   172   am
    11   163   166    1
    12   172   171    1
    13   172   173    2
    14   171   174    1
    15   186   187   ar
    16   186   188   ar
    17   167   166    1
    18   167   169    1
    19   187   189   ar
    20   188   190   ar
    21   166   168    1
    22   176   178   ar
    23   176   175   ar
    24   178   180   ar
    25   174   175    1
    26   175   177   ar
    27   180   179   ar
    28   189   190   ar
    29   177   179   ar
    30     6     7    1
    31     6     5    1
    32     7     1    1
    33   161   160    1
    34     1     2    1
    35   159   160   ar
    36   159   157   ar
    37   160   158   ar
    38   141   139    1
    39     5     2    1
    40   140   139    1
    41   157   155   ar
    42   158   156   ar
    43     2     3    1
    44   119   120   ar
    45   119   117   ar
    46   155   156   ar
    47   155   154    1
    48   120   118   ar
    49   139   138    1
    50   154   151    1
    51   117   114   ar
    52   118   116   ar
    53   138   135    1
    54     3     4    2
    55     3     8   am
    56   114   116   ar
    57   114   112   ar
    58   116   115   ar
    59   137   136    2
    60   135   136    1
    61   135   134    1
    62   151   152    1
    63   151   150    1
    64   112   111    1
    65   112   113   ar
    66   115   113   ar
    67   153   152    2
    68     8     9    1
    69   111   108    1
    70   149   147   am
    71   150   144   am
    72   110   109    2
    73   108   109    1
    74   108   107    1
    75   134   131   am
    76    11    10    2
    77   148   147    2
    78     9    10    1
    79     9    12    1
    80   147   146    1
    81   131   132    2
    82   131   130    1
    83   105   104    1
    84   107   102   am
    85   144   145    2
    86   144   143    1
    87   133   130    1
    88    13    12    1
    89    13    15    1
    90    14    12    1
    91   106   104    1
    92   142   143    1
    93   103   102    2
    94   102   101    1
    95    62    61    2
    96   130   129    1
    97    97    95   ar
    98    97    98   ar
    99   143   146    1
   100    61    60    1
   101   104   101    1
   102    99    98    1
   103    16    17    1
   104    95    93   ar
   105   129   123   am
   106    35    33   ar
   107   101   100    1
   108    98    96   ar
   109    59    60    1
   110    20    17    1
   111    20    21    1
   112    60    63    1
   113   121   122    1
   114    63    64    1
   115   123   124    2
   116   123   122    1
   117    17    18    1
   118   100    90   am
   119    32    33    1
   120    32    29    1
   121    33    34   ar
   122    93    92    1
   123    93    94   ar
   124    21    23   ar
   125    21    22   ar
   126    19    18    2
   127    66    65   ar
   128    91    90    2
   129    23    25   ar
   130    96    94   ar
   131    90    89    1
   132    57    58    1
   133    57    56    1
   134    64    65    1
   135   122   125    1
   136    92    89    1
   137    65    67   ar
   138    22    24   ar
   139    28    29    1
   140    56    55    1
   141    29    30    1
   142    25    26   ar
   143    89    88    1
   144   125   126    1
   145    24    26   ar
   146    88    83   am
   147    26    27    1
   148    86    85    1
   149    31    30    2
   150   127   126   ar
   151   126   128   ar
   152    55    54    1
   153    83    82    1
   154    83    84    2
   155    54    51    1
   156    85    82    1
   157    85    87    1
   158    82    81    1
   159    39    38    2
   160    51    50    1
   161    51    52    1
   162    75    73    1
   163    36    37    1
   164    38    37    1
   165    38    46   am
   166    47    46    1
   167    47    48    1
   168    74    73    1
   169    40    37    1
   170    40    41    1
   171    42    41   ar
   172    42    44   ar
   173    52    53    2
   174    48    49    2
   175    73    72    1
   176    41    43   ar
   177    44    45   ar
   178    80    77    1
   179    72    69    1
   180    43    45   ar
   181    69    68    1
   182    69    70    1
   183    77    78    1
   184    77    76    1
   185    78    79    2
   186    70    71    2
