@<TRIPOS>MOLECULE
tmp/4mw4B00.pdb
 189 186 0 0 0
SMALL
GASTEIGER

@<TRIPOS>ATOM
      1  N        -33.3090   11.5700    5.1280 N.3    16  PRO16      -0.2102
      2  CA       -34.3540   12.1030    5.9690 C.3    16  PRO16       0.1504
      3  C        -34.1060   11.6110    7.3720 C.2    16  PRO16       0.2575
      4  O        -33.3400   10.6620    7.5660 O.2    16  PRO16      -0.2718
      5  CB       -35.6310   11.4720    5.4030 C.3    16  PRO16       0.0282
      6  CG       -35.2270   10.7490    4.1490 C.3    16  PRO16       0.0208
      7  CD       -33.7830   10.4240    4.3400 C.3    16  PRO16       0.0893
      8  N        -34.7280   12.2570    8.3470 N.am   17  ILE17      -0.1980
      9  CA       -34.7110   11.7410    9.7060 C.3    17  ILE17       0.1595
     10  C        -35.9600   10.8980    9.8500 C.2    17  ILE17       0.2287
     11  O        -37.0020   11.2180    9.2820 O.2    17  ILE17      -0.2864
     12  CB       -34.6130   12.8470   10.7640 C.3    17  ILE17       0.0276
     13  CG1      -35.7440   13.8630   10.6190 C.3    17  ILE17       0.0022
     14  CG2      -33.2640   13.5560   10.6500 C.3    17  ILE17       0.0022
     15  CD1      -35.8310   14.8110   11.7870 C.3    17  ILE17       0.0001
     16  N        -38.9770    8.3240   11.6140 N.3    19  TYR19      -0.1241
     17  CA       -39.9480    8.4430   12.6970 C.3    19  TYR19       0.1605
     18  C        -39.8790    7.2690   13.6610 C.2    19  TYR19       0.2264
     19  O        -40.0430    6.1090   13.2630 O.2    19  TYR19      -0.2867
     20  CB       -41.3730    8.5930   12.1540 C.3    19  TYR19       0.0534
     21  CG       -42.2980    9.3160   13.1130 C.ar   19  TYR19      -0.0201
     22  CD1      -41.8860   10.4790   13.7610 C.ar   19  TYR19      -0.0009
     23  CD2      -43.5800    8.8560   13.3650 C.ar   19  TYR19      -0.0009
     24  CE1      -42.7100   11.1520   14.6400 C.ar   19  TYR19       0.0417
     25  CE2      -44.4230    9.5340   14.2370 C.ar   19  TYR19       0.0417
     26  CZ       -43.9790   10.6820   14.8720 C.ar   19  TYR19       0.1957
     27  OH       -44.7960   11.3720   15.7410 O.3    19  TYR19      -0.2866
     28  N        -36.6880   11.5660   13.9450 N.3    56  ASP56      -0.1239
     29  CA       -37.7790   12.5240   14.1900 C.3    56  ASP56       0.1674
     30  C        -38.5060   11.9580   15.4070 C.2    56  ASP56       0.2266
     31  O        -39.1280   10.9030   15.3180 O.2    56  ASP56      -0.2867
     32  CB       -38.6750   12.5400   12.9270 C.3    56  ASP56       0.1410
     33  CG       -39.9750   13.3640   13.0690 C.2    56  ASP56       0.3668
     34  OD1      -40.2280   14.0220   14.1010 O.co2  56  ASP56      -0.2456
     35  OD2      -40.7680   13.3490   12.0980 O.co2  56  ASP56      -0.2456
     36  N        -40.5970   13.7670   17.9930 N.3    58  HIS58      -0.1226
     37  CA       -41.7320   14.4410   18.6360 C.3    58  HIS58       0.1752
     38  C        -43.0690   14.0100   18.0450 C.2    58  HIS58       0.2596
     39  O        -43.1060   13.2820   17.0640 O.2    58  HIS58      -0.2718
     40  CB       -41.5860   15.9500   18.5190 C.3    58  HIS58       0.0759
     41  CG       -40.4060   16.4980   19.2520 C.ar   58  HIS58       0.0818
     42  ND1      -39.4980   17.3500   18.6650 N.ar   58  HIS58      -0.2268
     43  CD2      -39.9820   16.3180   20.5220 C.ar   58  HIS58       0.1154
     44  CE1      -38.5630   17.6690   19.5390 C.ar   58  HIS58       0.1986
     45  NE2      -38.8330   17.0570   20.6740 N.ar   58  HIS58      -0.2212
     46  N        -44.1650   14.4520   18.6560 N.am   59  GLY59      -0.1957
     47  CA       -45.5060   14.2350   18.1000 C.3    59  GLY59       0.1869
     48  C        -46.4200   13.3380   18.9110 C.2    59  GLY59       0.2309
     49  O        -45.9740   12.5820   19.7680 O.2    59  GLY59      -0.2863
     50  N        -54.3250   14.3270   12.0360 N.3   137  GLU137     -0.1245
     51  CA       -53.5150   15.4910   12.4070 C.3   137  GLU137      0.1567
     52  C        -53.6090   16.5940   11.3450 C.2   137  GLU137      0.2260
     53  O        -52.6140   17.2450   11.0330 O.2   137  GLU137     -0.2867
     54  CB       -52.0450   15.0920   12.6360 C.3   137  GLU137      0.0388
     55  CG       -51.8300   13.7940   13.4080 C.3   137  GLU137      0.1160
     56  CD       -50.3560   13.4600   13.6340 C.2   137  GLU137      0.3649
     57  OE1      -49.4750   14.2000   13.1480 O.co2 137  GLU137     -0.2457
     58  OE2      -50.0740   12.4410   14.3030 O.co2 137  GLU137     -0.2457
     59  N        -50.6300   17.3490   20.9290 N.3   222  LEU222     -0.1245
     60  CA       -49.3700   16.6260   20.7950 C.3   222  LEU222      0.1561
     61  C        -48.9270   15.9340   22.0920 C.2   222  LEU222      0.2260
     62  O        -47.7910   15.4410   22.1870 O.2   222  LEU222     -0.2867
     63  CB       -48.2780   17.5850   20.3200 C.3   222  LEU222      0.0270
     64  CG       -48.5700   18.3430   19.0210 C.3   222  LEU222      0.0019
     65  CD1      -47.3720   19.1750   18.5820 C.3   222  LEU222      0.0001
     66  CD2      -48.9660   17.3760   17.9150 C.3   222  LEU222      0.0001
     67  N        -43.3170   17.8830   22.0890 N.3   226  ALA226     -0.1245
     68  CA       -42.9500   18.6740   20.9240 C.3   226  ALA226      0.1562
     69  C        -42.0980   19.8640   21.3820 C.2   226  ALA226      0.2260
     70  O        -41.7360   19.9360   22.5470 O.2   226  ALA226     -0.2867
     71  CB       -44.2120   19.1450   20.2060 C.3   226  ALA226      0.0290
     72  N        -44.5280   23.5660   17.9940 N.3   236  VAL236     -0.1231
     73  CA       -44.1400   23.5240   16.6010 C.3   236  VAL236      0.1692
     74  C        -44.4410   22.1390   16.0510 C.2   236  VAL236      0.2592
     75  O        -44.0570   21.1170   16.6270 O.2   236  VAL236     -0.2718
     76  CB       -42.6490   23.8380   16.4400 C.3   236  VAL236      0.0266
     77  CG1      -42.2650   23.8120   14.9710 C.3   236  VAL236      0.0020
     78  CG2      -42.3450   25.1850   17.0640 C.3   236  VAL236      0.0020
     79  N        -45.1400   22.1120   14.9280 N.am  237  TYR237     -0.1962
     80  CA       -45.5700   20.8560   14.3360 C.3   237  TYR237      0.1771
     81  C        -44.4430   20.3620   13.4180 C.2   237  TYR237      0.2619
     82  O        -43.3590   20.9580   13.3820 O.2   237  TYR237     -0.2715
     83  CB       -46.9210   21.0580   13.6410 C.3   237  TYR237      0.0574
     84  CG       -47.5880   19.8080   13.1300 C.ar  237  TYR237     -0.0198
     85  CD1      -47.7590   18.6870   13.9400 C.ar  237  TYR237     -0.0009
     86  CD2      -48.0660   19.7520   11.8280 C.ar  237  TYR237     -0.0009
     87  CE1      -48.3650   17.5360   13.4530 C.ar  237  TYR237      0.0417
     88  CE2      -48.6770   18.6120   11.3280 C.ar  237  TYR237      0.0417
     89  CZ       -48.8250   17.5090   12.1380 C.ar  237  TYR237      0.1957
     90  OH       -49.4390   16.3940   11.6090 O.3   237  TYR237     -0.2866
     91  N        -44.6780   19.2600   12.7100 N.am  238  VAL238     -0.1963
     92  CA       -43.6040   18.5100   12.0420 C.3   238  VAL238      0.1727
     93  C        -42.7470   19.3420   11.0680 C.2   238  VAL238      0.2616
     94  O        -41.5280   19.1610   10.9910 O.2   238  VAL238     -0.2715
     95  CB       -44.1800   17.2510   11.3420 C.3   238  VAL238      0.0290
     96  CG1      -45.1200   17.6220   10.2040 C.3   238  VAL238      0.0023
     97  CG2      -43.0740   16.3410   10.8420 C.3   238  VAL238      0.0023
     98  N        -43.3720   20.2760   10.3670 N.am  239  TRP239     -0.1974
     99  CA       -42.7280   20.9250    9.2330 C.3   239  TRP239      0.1640
    100  C        -41.4490   21.6500    9.6640 C.2   239  TRP239      0.2290
    101  O        -40.3770   21.3600    9.1700 O.2   239  TRP239     -0.2864
    102  CB       -43.6880   21.8730    8.5080 C.3   239  TRP239      0.0576
    103  CG       -45.1100   21.3340    8.3190 C.ar  239  TRP239      0.0006
    104  CD1      -46.2560   21.8780    8.8210 C.ar  239  TRP239      0.0946
    105  CD2      -45.5150   20.1680    7.5780 C.ar  239  TRP239      0.0152
    106  NE1      -47.3500   21.1350    8.4350 N.ar  239  TRP239     -0.2442
    107  CE2      -46.9250   20.0750    7.6790 C.ar  239  TRP239      0.0810
    108  CE3      -44.8270   19.2000    6.8320 C.ar  239  TRP239      0.0012
    109  CZ2      -47.6610   19.0410    7.0730 C.ar  239  TRP239      0.0191
    110  CZ3      -45.5550   18.1690    6.2250 C.ar  239  TRP239      0.0001
    111  CH2      -46.9600   18.1000    6.3520 C.ar  239  TRP239      0.0015
    112  N        -40.0750   21.4970   12.6350 N.3   241  ASP241     -0.1225
    113  CA       -39.2970   20.6430   13.5230 C.3   241  ASP241      0.1805
    114  C        -38.3510   19.7570   12.7060 C.2   241  ASP241      0.2598
    115  O        -37.1410   19.8610   12.8330 O.2   241  ASP241     -0.2718
    116  CB       -40.2380   19.7960   14.4020 C.3   241  ASP241      0.1424
    117  CG       -39.4980   19.0010   15.4770 C.2   241  ASP241      0.3668
    118  OD1      -38.2490   18.9440   15.4520 O.co2 241  ASP241     -0.2456
    119  OD2      -40.1800   18.4280   16.3530 O.co2 241  ASP241     -0.2456
    120  N        -38.9050   18.8950   11.8640 N.am  242  ALA242     -0.1966
    121  CA       -38.1020   17.8910   11.1540 C.3   242  ALA242      0.1728
    122  C        -37.1920   18.4960   10.0900 C.2   242  ALA242      0.2616
    123  O        -35.9800   18.2660   10.1000 O.2   242  ALA242     -0.2715
    124  CB       -39.0010   16.8350   10.5230 C.3   242  ALA242      0.0334
    125  N        -37.7690   19.2670    9.1750 N.am  243  LEU243     -0.1977
    126  CA       -36.9920   19.7980    8.0640 C.3   243  LEU243      0.1596
    127  C        -35.7680   20.5500    8.5810 C.2   243  LEU243      0.2287
    128  O        -34.6670   20.4210    8.0420 O.2   243  LEU243     -0.2864
    129  CB       -37.8480   20.6750    7.1540 C.3   243  LEU243      0.0297
    130  CG       -39.0000   19.9360    6.4460 C.3   243  LEU243      0.0022
    131  CD1      -39.9100   20.9220    5.7560 C.3   243  LEU243      0.0001
    132  CD2      -38.5240   18.9190    5.4220 C.3   243  LEU243      0.0001
    133  N        -33.8270   19.9600   10.8670 N.3   245  ASN245     -0.1225
    134  CA       -32.6840   19.1160   11.2390 C.3   245  ASN245      0.1785
    135  C        -31.4730   19.3640   10.3490 C.2   245  ASN245      0.2597
    136  O        -30.3380   19.2930   10.8200 O.2   245  ASN245     -0.2718
    137  CB       -33.0380   17.6180   11.2520 C.3   245  ASN245      0.1169
    138  CG       -32.8110   16.9300    9.9090 C.2   245  ASN245      0.2627
    139  OD1      -31.7150   16.4490    9.6180 O.2   245  ASN245     -0.2716
    140  ND2      -33.8610   16.8440    9.1010 N.am  245  ASN245     -0.0877
    141  N        -31.7160   19.6550    9.0710 N.am  246  TYR246     -0.1976
    142  CA       -30.6330   19.8540    8.1230 C.3   246  TYR246      0.1639
    143  C        -29.8250   21.0960    8.4660 C.2   246  TYR246      0.2290
    144  O        -28.6000   21.1110    8.3530 O.2   246  TYR246     -0.2864
    145  CB       -31.1810   20.0040    6.7130 C.3   246  TYR246      0.0560
    146  CG       -31.9950   18.8340    6.2150 C.ar  246  TYR246     -0.0198
    147  CD1      -31.5450   17.5210    6.3710 C.ar  246  TYR246     -0.0009
    148  CD2      -33.1850   19.0450    5.5540 C.ar  246  TYR246     -0.0009
    149  CE1      -32.2820   16.4520    5.8960 C.ar  246  TYR246      0.0417
    150  CE2      -33.9300   17.9880    5.0750 C.ar  246  TYR246      0.0417
    151  CZ       -33.4840   16.6930    5.2490 C.ar  246  TYR246      0.1957
    152  OH       -34.2430   15.6630    4.7720 O.3   246  TYR246     -0.2866
    153  N        -42.4540    9.9550   -1.1870 N.3   283  ASP283     -0.1225
    154  CA       -43.5820   10.3240   -0.3250 C.3   283  ASP283      0.1805
    155  C        -43.4310   11.6520    0.4300 C.2   283  ASP283      0.2597
    156  O        -44.4410   12.2310    0.8590 O.2   283  ASP283     -0.2718
    157  CB       -43.8970    9.1770    0.6660 C.3   283  ASP283      0.1424
    158  CG       -42.7330    8.8710    1.6520 C.2   283  ASP283      0.3668
    159  OD1      -41.5490    8.6980    1.2380 O.co2 283  ASP283     -0.2456
    160  OD2      -43.0370    8.7660    2.8670 O.co2 283  ASP283     -0.2456
    161  N        -42.1980   12.1360    0.5940 N.am  284  ILE284     -0.1980
    162  CA       -41.9690   13.4340    1.2400 C.3   284  ILE284      0.1595
    163  C        -41.3740   14.4840    0.2910 C.2   284  ILE284      0.2287
    164  O        -40.7450   15.4610    0.7400 O.2   284  ILE284     -0.2864
    165  CB       -41.1090   13.2910    2.5160 C.3   284  ILE284      0.0276
    166  CG1      -39.6640   12.8800    2.1860 C.3   284  ILE284      0.0022
    167  CG2      -41.7530   12.2810    3.4490 C.3   284  ILE284      0.0022
    168  CD1      -38.8230   12.4980    3.3880 C.3   284  ILE284      0.0001
    169  N        -42.7060   18.1130    0.6040 N.3   287  PHE287     -0.1227
    170  CA       -42.2420   18.8090    1.8080 C.3   287  PHE287      0.1736
    171  C        -40.8330   19.3970    1.5930 C.2   287  PHE287      0.2595
    172  O        -40.5270   20.5060    2.0540 O.2   287  PHE287     -0.2718
    173  CB       -42.2660   17.8890    3.0410 C.3   287  PHE287      0.0547
    174  CG       -43.5480   17.1080    3.2120 C.ar  287  PHE287     -0.0202
    175  CD1      -44.7780   17.6440    2.8460 C.ar  287  PHE287     -0.0042
    176  CD2      -43.5230   15.8420    3.7670 C.ar  287  PHE287     -0.0042
    177  CE1      -45.9460   16.9230    3.0090 C.ar  287  PHE287     -0.0003
    178  CE2      -44.6920   15.1170    3.9420 C.ar  287  PHE287     -0.0003
    179  CZ       -45.9070   15.6610    3.5660 C.ar  287  PHE287     -0.0000
    180  N        -39.9940   18.6550    0.8740 N.am  288  HIS288     -0.1975
    181  CA       -38.6260   19.0940    0.5830 C.3   288  HIS288      0.1656
    182  C        -38.5210   20.0780   -0.5890 C.2   288  HIS288      0.2291
    183  O        -37.6550   20.9450   -0.5900 O.2   288  HIS288     -0.2864
    184  CB       -37.7170   17.8720    0.3460 C.3   288  HIS288      0.0771
    185  CG       -37.3860   17.1290    1.6010 C.ar  288  HIS288      0.0820
    186  ND1      -38.2940   16.3160    2.2440 N.ar  288  HIS288     -0.2267
    187  CD2      -36.2560   17.0980    2.3500 C.ar  288  HIS288      0.1154
    188  CE1      -37.7400   15.8180    3.3360 C.ar  288  HIS288      0.1986
    189  NE2      -36.5030   16.2750    3.4220 N.ar  288  HIS288     -0.2212
@<TRIPOS>BOND
     1   153   154    1
     2   183   182    2
     3   182   181    1
     4   154   155    1
     5   154   157    1
     6   163   164    2
     7   163   162    1
     8   184   181    1
     9   184   185    1
    10   155   161   am
    11   155   156    2
    12   181   180    1
    13   161   162    1
    14   169   170    1
    15   157   158    1
    16   180   171   am
    17   159   158   ar
    18   162   165    1
    19   171   170    1
    20   171   172    2
    21   185   186   ar
    22   185   187   ar
    23   158   160   ar
    24   170   173    1
    25   166   165    1
    26   166   168    1
    27   186   188   ar
    28   187   189   ar
    29   165   167    1
    30   175   177   ar
    31   175   174   ar
    32   177   179   ar
    33   173   174    1
    34   174   176   ar
    35   188   189   ar
    36   179   178   ar
    37   176   178   ar
    38     6     7    1
    39     6     5    1
    40     7     1    1
    41   152   151    1
    42   150   151   ar
    43   150   148   ar
    44     1     2    1
    45   151   149   ar
    46     5     2    1
    47   132   130    1
    48   148   146   ar
    49   131   130    1
    50   149   147   ar
    51     2     3    1
    52   146   147   ar
    53   146   145    1
    54   110   111   ar
    55   110   108   ar
    56   111   109   ar
    57   130   129    1
    58   145   142    1
    59   108   105   ar
    60   109   107   ar
    61   129   126    1
    62     3     4    2
    63     3     8   am
    64   105   107   ar
    65   105   103   ar
    66   107   106   ar
    67   128   127    2
    68   126   127    1
    69   126   125    1
    70   142   143    1
    71   142   141    1
    72   103   102    1
    73   103   104   ar
    74     8     9    1
    75   144   143    2
    76   106   104   ar
    77   102    99    1
    78   141   135   am
    79   140   138   am
    80   101   100    2
    81   125   122   am
    82    99   100    1
    83    99    98    1
    84    11    10    2
    85   139   138    2
    86     9    10    1
    87     9    12    1
    88   138   137    1
    89   122   123    2
    90   122   121    1
    91    96    95    1
    92   135   136    2
    93   135   134    1
    94    98    93   am
    95   124   121    1
    96    13    12    1
    97    13    15    1
    98    14    12    1
    99    97    95    1
   100   133   134    1
   101    94    93    2
   102    53    52    2
   103    93    92    1
   104   121   120    1
   105   134   137    1
   106    88    86   ar
   107    88    89   ar
   108    95    92    1
   109    52    51    1
   110    90    89    1
   111    16    17    1
   112    86    84   ar
   113   120   114   am
   114    50    51    1
   115    92    91    1
   116    35    33   ar
   117    89    87   ar
   118    20    17    1
   119    20    21    1
   120    51    54    1
   121   112   113    1
   122    54    55    1
   123    17    18    1
   124   114   115    2
   125   114   113    1
   126    91    81   am
   127    32    33    1
   128    32    29    1
   129    33    34   ar
   130    21    23   ar
   131    21    22   ar
   132    84    83    1
   133    84    85   ar
   134    57    56   ar
   135    19    18    2
   136    23    25   ar
   137    82    81    2
   138    55    56    1
   139    81    80    1
   140    87    85   ar
   141   113   116    1
   142    56    58   ar
   143    83    80    1
   144    22    24   ar
   145    28    29    1
   146    29    30    1
   147    25    26   ar
   148    80    79    1
   149   116   117    1
   150    24    26   ar
   151    26    27    1
   152    79    74   am
   153    77    76    1
   154    31    30    2
   155   118   117   ar
   156   117   119   ar
   157    74    73    1
   158    74    75    2
   159    76    73    1
   160    76    78    1
   161    73    72    1
   162    39    38    2
   163    66    64    1
   164    36    37    1
   165    38    37    1
   166    38    46   am
   167    47    46    1
   168    47    48    1
   169    40    37    1
   170    40    41    1
   171    65    64    1
   172    42    41   ar
   173    42    44   ar
   174    48    49    2
   175    64    63    1
   176    41    43   ar
   177    44    45   ar
   178    71    68    1
   179    63    60    1
   180    43    45   ar
   181    60    59    1
   182    60    61    1
   183    68    69    1
   184    68    67    1
   185    69    70    2
   186    61    62    2
