@<TRIPOS>MOLECULE
tmp/4mw5B00.pdb
 207 204 0 0 0
SMALL
GASTEIGER

@<TRIPOS>ATOM
      1  N        -33.6840  -11.5150   -5.0460 N.3    16  PRO16      -0.2102
      2  CA       -34.7450  -12.0260   -5.8930 C.3    16  PRO16       0.1504
      3  C        -34.4310  -11.6280   -7.3170 C.2    16  PRO16       0.2575
      4  O        -33.5490  -10.7960   -7.5300 O.2    16  PRO16      -0.2718
      5  CB       -35.9950  -11.2730   -5.4090 C.3    16  PRO16       0.0282
      6  CG       -35.6040  -10.6450   -4.1050 C.3    16  PRO16       0.0208
      7  CD       -34.1350  -10.3880   -4.2200 C.3    16  PRO16       0.0893
      8  N        -35.1310  -12.2190   -8.2780 N.am   17  ILE17      -0.1980
      9  CA       -35.0780  -11.7160   -9.6340 C.3    17  ILE17       0.1595
     10  C        -36.2840  -10.8110   -9.7750 C.2    17  ILE17       0.2287
     11  O        -37.3160  -11.0640   -9.1750 O.2    17  ILE17      -0.2864
     12  CB       -35.0190  -12.8210  -10.7030 C.3    17  ILE17       0.0276
     13  CG1      -36.1390  -13.8570  -10.5350 C.3    17  ILE17       0.0022
     14  CG2      -33.6670  -13.5030  -10.6530 C.3    17  ILE17       0.0022
     15  CD1      -36.3440  -14.7330  -11.7660 C.3    17  ILE17       0.0001
     16  N        -39.2630   -8.3480  -11.5740 N.3    19  TYR19      -0.1241
     17  CA       -40.2130   -8.4590  -12.6780 C.3    19  TYR19       0.1605
     18  C        -40.1400   -7.2790  -13.6410 C.2    19  TYR19       0.2264
     19  O        -40.2520   -6.1250  -13.2320 O.2    19  TYR19      -0.2867
     20  CB       -41.6400   -8.6290  -12.1510 C.3    19  TYR19       0.0534
     21  CG       -42.5390   -9.3980  -13.0990 C.ar   19  TYR19      -0.0201
     22  CD1      -42.0640  -10.5250  -13.7850 C.ar   19  TYR19      -0.0009
     23  CD2      -43.8540   -9.0180  -13.3000 C.ar   19  TYR19      -0.0009
     24  CE1      -42.8670  -11.2380  -14.6520 C.ar   19  TYR19       0.0417
     25  CE2      -44.6730   -9.7360  -14.1610 C.ar   19  TYR19       0.0417
     26  CZ       -44.1740  -10.8420  -14.8320 C.ar   19  TYR19       0.1957
     27  OH       -44.9830  -11.5550  -15.6920 O.3    19  TYR19      -0.2866
     28  N        -36.9030  -11.5470  -13.9710 N.3    56  ASP56      -0.1239
     29  CA       -37.9960  -12.4870  -14.1820 C.3    56  ASP56       0.1674
     30  C        -38.7550  -11.9320  -15.3860 C.2    56  ASP56       0.2266
     31  O        -39.3310  -10.8500  -15.3120 O.2    56  ASP56      -0.2867
     32  CB       -38.8420  -12.4400  -12.9040 C.3    56  ASP56       0.1410
     33  CG       -40.0710  -13.3010  -12.9410 C.2    56  ASP56       0.3668
     34  OD1      -40.3630  -13.9960  -13.9370 O.co2  56  ASP56      -0.2456
     35  OD2      -40.7800  -13.2670  -11.9230 O.co2  56  ASP56      -0.2456
     36  N        -40.9330  -13.7230  -17.9550 N.3    58  HIS58      -0.1226
     37  CA       -42.0630  -14.4150  -18.6050 C.3    58  HIS58       0.1752
     38  C        -43.4030  -14.0030  -18.0310 C.2    58  HIS58       0.2597
     39  O        -43.4730  -13.3160  -17.0260 O.2    58  HIS58      -0.2718
     40  CB       -41.9070  -15.9250  -18.4440 C.3    58  HIS58       0.0759
     41  CG       -40.7350  -16.4850  -19.1800 C.ar   58  HIS58       0.0818
     42  ND1      -39.8370  -17.3520  -18.6000 N.ar   58  HIS58      -0.2268
     43  CD2      -40.3190  -16.3120  -20.4560 C.ar   58  HIS58       0.1154
     44  CE1      -38.9010  -17.6670  -19.4760 C.ar   58  HIS58       0.1986
     45  NE2      -39.1770  -17.0580  -20.6140 N.ar   58  HIS58      -0.2212
     46  N        -44.4750  -14.4300  -18.6780 N.am   59  GLY59      -0.1942
     47  CA       -45.7990  -14.2310  -18.1390 C.3    59  GLY59       0.2014
     48  C        -46.6430  -13.2660  -18.9370 C.2    59  GLY59       0.2639
     49  O        -46.1400  -12.4650  -19.7350 O.2    59  GLY59      -0.2714
     50  N        -47.9450  -13.3460  -18.7060 N.am   60  GLN60      -0.1963
     51  CA       -48.9040  -12.5560  -19.4570 C.3    60  GLN60       0.1733
     52  C        -48.6590  -11.0470  -19.3390 C.2    60  GLN60       0.2616
     53  O        -48.8070  -10.3190  -20.3160 O.2    60  GLN60      -0.2715
     54  CB       -50.3410  -12.9260  -19.0340 C.3    60  GLN60       0.0408
     55  CG       -50.7030  -12.5150  -17.6130 C.3    60  GLN60       0.0908
     56  CD       -51.8330  -13.3430  -17.0080 C.2    60  GLN60       0.2608
     57  OE1      -51.7120  -14.5710  -16.8380 O.2    60  GLN60      -0.2717
     58  NE2      -52.9280  -12.6700  -16.6420 N.am   60  GLN60      -0.0878
     59  N        -48.2740  -10.5810  -18.1560 N.am   61  LYS61      -0.1977
     60  CA       -48.1470   -9.1400  -17.9220 C.3    61  LYS61       0.1596
     61  C        -46.9860   -8.5050  -18.7000 C.2    61  LYS61       0.2287
     62  O        -47.0750   -7.3580  -19.1500 O.2    61  LYS61      -0.2864
     63  CB       -48.0270   -8.8420  -16.4320 C.3    61  LYS61       0.0298
     64  CG       -49.3640   -8.8880  -15.7060 C.3    61  LYS61       0.0038
     65  CD       -49.1720   -8.9680  -14.1950 C.3    61  LYS61       0.0206
     66  CE       -50.4760   -8.7630  -13.4360 C.3    61  LYS61       0.1093
     67  NZ       -51.5930   -9.5890  -13.9950 N.3    61  LYS61      -0.1314
     68  N        -54.2670  -14.1330  -11.8500 N.3   137  GLU137     -0.1245
     69  CA       -53.5320  -15.3340  -12.2540 C.3   137  GLU137      0.1567
     70  C        -53.6760  -16.4550  -11.2120 C.2   137  GLU137      0.2260
     71  O        -52.7340  -17.2270  -11.0000 O.2   137  GLU137     -0.2867
     72  CB       -52.0470  -14.9960  -12.5050 C.3   137  GLU137      0.0388
     73  CG       -51.8220  -13.7380  -13.3450 C.3   137  GLU137      0.1160
     74  CD       -50.3500  -13.4390  -13.6640 C.2   137  GLU137      0.3649
     75  OE1      -49.4460  -14.1580  -13.1850 O.co2 137  GLU137     -0.2457
     76  OE2      -50.0980  -12.4560  -14.4020 O.co2 137  GLU137     -0.2457
     77  N        -50.9320  -17.3830  -20.9490 N.3   219  LEU219     -0.1245
     78  CA       -49.6810  -16.6370  -20.8240 C.3   219  LEU219      0.1561
     79  C        -49.2380  -15.9460  -22.1150 C.2   219  LEU219      0.2260
     80  O        -48.1200  -15.4410  -22.2010 O.2   219  LEU219     -0.2867
     81  CB       -48.5650  -17.5780  -20.3590 C.3   219  LEU219      0.0270
     82  CG       -48.8330  -18.3800  -19.0850 C.3   219  LEU219      0.0019
     83  CD1      -47.5540  -19.0350  -18.5710 C.3   219  LEU219      0.0001
     84  CD2      -49.4360  -17.4980  -18.0060 C.3   219  LEU219      0.0001
     85  N        -43.6540  -17.8770  -22.1090 N.3   223  ALA223     -0.1245
     86  CA       -43.2220  -18.6980  -20.9820 C.3   223  ALA223      0.1562
     87  C        -42.5480  -19.9870  -21.4720 C.2   223  ALA223      0.2260
     88  O        -42.5460  -20.2760  -22.6660 O.2   223  ALA223     -0.2867
     89  CB       -44.4020  -19.0400  -20.0940 C.3   223  ALA223      0.0290
     90  N        -44.7360  -23.5450  -17.9850 N.3   233  VAL233     -0.1231
     91  CA       -44.2830  -23.5590  -16.6080 C.3   233  VAL233      0.1692
     92  C        -44.6430  -22.1980  -16.0370 C.2   233  VAL233      0.2592
     93  O        -44.2720  -21.1750  -16.6090 O.2   233  VAL233     -0.2718
     94  CB       -42.7620  -23.7530  -16.5450 C.3   233  VAL233      0.0266
     95  CG1      -42.2600  -23.6850  -15.1110 C.3   233  VAL233      0.0020
     96  CG2      -42.3880  -25.0760  -17.1780 C.3   233  VAL233      0.0020
     97  N        -45.3950  -22.1850  -14.9350 N.am  234  TYR234     -0.1962
     98  CA       -45.7860  -20.9330  -14.2990 C.3   234  TYR234      0.1771
     99  C        -44.6190  -20.4200  -13.4280 C.2   234  TYR234      0.2619
    100  O        -43.5210  -21.0260  -13.4090 O.2   234  TYR234     -0.2715
    101  CB       -47.0960  -21.1310  -13.5230 C.3   234  TYR234      0.0574
    102  CG       -47.7170  -19.8610  -12.9760 C.ar  234  TYR234     -0.0198
    103  CD1      -47.9860  -18.7790  -13.8000 C.ar  234  TYR234     -0.0009
    104  CD2      -48.0280  -19.7450  -11.6250 C.ar  234  TYR234     -0.0009
    105  CE1      -48.5350  -17.6160  -13.2970 C.ar  234  TYR234      0.0417
    106  CE2      -48.5890  -18.5820  -11.1090 C.ar  234  TYR234      0.0417
    107  CZ       -48.8380  -17.5250  -11.9510 C.ar  234  TYR234      0.1957
    108  OH       -49.3790  -16.3710  -11.4400 O.3   234  TYR234     -0.2866
    109  N        -44.8310  -19.2980  -12.7430 N.am  235  VAL235     -0.1963
    110  CA       -43.7310  -18.5670  -12.0920 C.3   235  VAL235      0.1727
    111  C        -42.8900  -19.3780  -11.0960 C.2   235  VAL235      0.2616
    112  O        -41.6840  -19.1470  -10.9810 O.2   235  VAL235     -0.2715
    113  CB       -44.2290  -17.2530  -11.4100 C.3   235  VAL235      0.0290
    114  CG1      -45.1960  -17.5310  -10.2660 C.3   235  VAL235      0.0023
    115  CG2      -43.0500  -16.4230  -10.9220 C.3   235  VAL235      0.0023
    116  N        -43.5070  -20.3200  -10.3900 N.am  236  TRP236     -0.1974
    117  CA       -42.8570  -20.9360   -9.2250 C.3   236  TRP236      0.1640
    118  C        -41.6060  -21.7190   -9.6340 C.2   236  TRP236      0.2290
    119  O        -40.5310  -21.4890   -9.0940 O.2   236  TRP236     -0.2864
    120  CB       -43.8320  -21.8120   -8.4180 C.3   236  TRP236      0.0576
    121  CG       -45.1850  -21.1640   -8.2060 C.ar  236  TRP236      0.0006
    122  CD1      -46.3870  -21.6210   -8.6620 C.ar  236  TRP236      0.0946
    123  CD2      -45.4590  -19.9360   -7.5170 C.ar  236  TRP236      0.0152
    124  NE1      -47.3920  -20.7600   -8.2890 N.ar  236  TRP236     -0.2442
    125  CE2      -46.8490  -19.7160   -7.5890 C.ar  236  TRP236      0.0810
    126  CE3      -44.6650  -19.0060   -6.8400 C.ar  236  TRP236      0.0012
    127  CZ2      -47.4620  -18.5880   -7.0180 C.ar  236  TRP236      0.0191
    128  CZ3      -45.2650  -17.8980   -6.2630 C.ar  236  TRP236      0.0001
    129  CH2      -46.6500  -17.6940   -6.3610 C.ar  236  TRP236      0.0015
    130  N        -40.2520  -21.5260  -12.6170 N.3   238  ASP238     -0.1225
    131  CA       -39.4620  -20.6820  -13.5020 C.3   238  ASP238      0.1805
    132  C        -38.5160  -19.7980  -12.6830 C.2   238  ASP238      0.2598
    133  O        -37.3010  -19.8990  -12.8000 O.2   238  ASP238     -0.2718
    134  CB       -40.3850  -19.8220  -14.3740 C.3   238  ASP238      0.1424
    135  CG       -39.6420  -19.0610  -15.4570 C.2   238  ASP238      0.3668
    136  OD1      -38.3950  -19.0840  -15.4630 O.co2 238  ASP238     -0.2456
    137  OD2      -40.3130  -18.4270  -16.3100 O.co2 238  ASP238     -0.2456
    138  N        -39.0990  -18.9330  -11.8680 N.am  239  ALA239     -0.1966
    139  CA       -38.3730  -17.8950  -11.1820 C.3   239  ALA239      0.1728
    140  C        -37.4780  -18.4420  -10.0690 C.2   239  ALA239      0.2616
    141  O        -36.3010  -18.1200  -10.0190 O.2   239  ALA239     -0.2715
    142  CB       -39.3420  -16.8580  -10.6320 C.3   239  ALA239      0.0334
    143  N        -38.0170  -19.2660   -9.1770 N.am  240  LEU240     -0.1977
    144  CA       -37.2260  -19.7390   -8.0460 C.3   240  LEU240      0.1596
    145  C        -36.0070  -20.5100   -8.5080 C.2   240  LEU240      0.2287
    146  O        -34.9410  -20.4600   -7.8750 O.2   240  LEU240     -0.2864
    147  CB       -38.0520  -20.5910   -7.0990 C.3   240  LEU240      0.0297
    148  CG       -39.0300  -19.7460   -6.3040 C.3   240  LEU240      0.0022
    149  CD1      -40.1970  -20.5760   -5.8000 C.3   240  LEU240      0.0001
    150  CD2      -38.3410  -19.0240   -5.1560 C.3   240  LEU240      0.0001
    151  N        -34.0140  -19.9150  -10.8190 N.3   242  ASN242     -0.1225
    152  CA       -32.8870  -19.0990  -11.2510 C.3   242  ASN242      0.1785
    153  C        -31.6870  -19.3380  -10.3550 C.2   242  ASN242      0.2597
    154  O        -30.5530  -19.3270  -10.8290 O.2   242  ASN242     -0.2718
    155  CB       -33.2220  -17.6050  -11.2670 C.3   242  ASN242      0.1169
    156  CG       -32.9480  -16.9270   -9.9440 C.2   242  ASN242      0.2627
    157  OD1      -31.8660  -16.3770   -9.7230 O.2   242  ASN242     -0.2716
    158  ND2      -33.9160  -16.9800   -9.0460 N.am  242  ASN242     -0.0877
    159  N        -31.9500  -19.5460   -9.0640 N.am  243  TYR243     -0.1976
    160  CA       -30.8960  -19.7940   -8.0880 C.3   243  TYR243      0.1639
    161  C        -30.1260  -21.0700   -8.4150 C.2   243  TYR243      0.2290
    162  O        -28.9050  -21.1350   -8.2590 O.2   243  TYR243     -0.2864
    163  CB       -31.4920  -19.9180   -6.6850 C.3   243  TYR243      0.0560
    164  CG       -32.2880  -18.7310   -6.2000 C.ar  243  TYR243     -0.0198
    165  CD1      -31.7890  -17.4410   -6.2980 C.ar  243  TYR243     -0.0009
    166  CD2      -33.5380  -18.9010   -5.6100 C.ar  243  TYR243     -0.0009
    167  CE1      -32.5120  -16.3500   -5.8360 C.ar  243  TYR243      0.0417
    168  CE2      -34.2660  -17.8210   -5.1560 C.ar  243  TYR243      0.0417
    169  CZ       -33.7480  -16.5550   -5.2640 C.ar  243  TYR243      0.1957
    170  OH       -34.4640  -15.5030   -4.7930 O.3   243  TYR243     -0.2866
    171  N        -42.5210   -9.8300    1.2580 N.3   280  ASP280     -0.1225
    172  CA       -43.6150  -10.1760    0.3460 C.3   280  ASP280      0.1805
    173  C        -43.4880  -11.5310   -0.3500 C.2   280  ASP280      0.2597
    174  O        -44.5030  -12.1040   -0.7680 O.2   280  ASP280     -0.2718
    175  CB       -43.8090   -9.0630   -0.7260 C.3   280  ASP280      0.1424
    176  CG       -42.4900   -8.7010   -1.5220 C.2   280  ASP280      0.3668
    177  OD1      -41.4070   -8.3850   -0.9240 O.co2 280  ASP280     -0.2456
    178  OD2      -42.5750   -8.6830   -2.7800 O.co2 280  ASP280     -0.2456
    179  N        -42.2660  -12.0370   -0.4810 N.am  281  ILE281     -0.1980
    180  CA       -42.0290  -13.3060   -1.1510 C.3   281  ILE281      0.1595
    181  C        -41.4590  -14.3940   -0.2240 C.2   281  ILE281      0.2287
    182  O        -40.9420  -15.4270   -0.6950 O.2   281  ILE281     -0.2864
    183  CB       -41.1510  -13.1110   -2.4040 C.3   281  ILE281      0.0276
    184  CG1      -39.7290  -12.6600   -2.0550 C.3   281  ILE281      0.0022
    185  CG2      -41.7780  -12.0880   -3.3380 C.3   281  ILE281      0.0022
    186  CD1      -38.8760  -12.3740   -3.2900 C.3   281  ILE281      0.0001
    187  N        -42.7710  -17.9710   -0.6360 N.3   284  PHE284     -0.1227
    188  CA       -42.3550  -18.6870   -1.8290 C.3   284  PHE284      0.1736
    189  C        -40.9910  -19.2740   -1.6080 C.2   284  PHE284      0.2595
    190  O        -40.6970  -20.3690   -2.0930 O.2   284  PHE284     -0.2718
    191  CB       -42.3310  -17.7870   -3.0670 C.3   284  PHE284      0.0547
    192  CG       -43.5550  -16.9440   -3.2420 C.ar  284  PHE284     -0.0202
    193  CD1      -44.7970  -17.3850   -2.8220 C.ar  284  PHE284     -0.0042
    194  CD2      -43.4570  -15.6970   -3.8460 C.ar  284  PHE284     -0.0042
    195  CE1      -45.9210  -16.5940   -2.9790 C.ar  284  PHE284     -0.0003
    196  CE2      -44.5770  -14.9010   -4.0060 C.ar  284  PHE284     -0.0003
    197  CZ       -45.8160  -15.3520   -3.5750 C.ar  284  PHE284     -0.0000
    198  N        -40.1680  -18.5410   -0.8690 N.am  285  HIS285     -0.1975
    199  CA       -38.7960  -18.9420   -0.5890 C.3   285  HIS285      0.1656
    200  C        -38.6330  -19.9080    0.5790 C.2   285  HIS285      0.2291
    201  O        -37.7000  -20.7080    0.5960 O.2   285  HIS285     -0.2864
    202  CB       -37.9480  -17.6850   -0.3420 C.3   285  HIS285      0.0771
    203  CG       -37.5750  -16.9880   -1.6020 C.ar  285  HIS285      0.0820
    204  ND1      -38.4530  -16.1850   -2.2830 N.ar  285  HIS285     -0.2267
    205  CD2      -36.4290  -16.9970   -2.3220 C.ar  285  HIS285      0.1154
    206  CE1      -37.8690  -15.7260   -3.3750 C.ar  285  HIS285      0.1986
    207  NE2      -36.6370  -16.2000   -3.4180 N.ar  285  HIS285     -0.2212
@<TRIPOS>BOND
     1    88    87    2
     2    80    79    2
     3    79    78    1
     4    85    86    1
     5    87    86    1
     6    86    89    1
     7    77    78    1
     8    78    81    1
     9    45    43   ar
    10    45    44   ar
    11    43    41   ar
    12    81    82    1
    13    53    52    2
    14    49    48    2
    15    44    42   ar
    16    51    52    1
    17    51    54    1
    18    51    50    1
    19    52    59   am
    20    41    42   ar
    21    41    40    1
    22    62    61    2
    23    82    83    1
    24    82    84    1
    25    54    55    1
    26    48    50   am
    27    48    47    1
    28    61    60    1
    29    46    47    1
    30    46    38   am
    31    37    40    1
    32    37    38    1
    33    37    36    1
    34    59    60    1
    35    38    39    2
    36    90    91    1
    37    60    63    1
    38    55    56    1
    39    96    94    1
    40    56    57    2
    41    56    58   am
    42    93    92    2
    43    91    94    1
    44    91    92    1
    45    94    95    1
    46    63    64    1
    47   137   135   ar
    48    92    97   am
    49    64    65    1
    50    27    26    1
    51   136   135   ar
    52   135   134    1
    53    30    31    2
    54    30    29    1
    55    97    98    1
    56    26    24   ar
    57    26    25   ar
    58    24    22   ar
    59    76    74   ar
    60   134   131    1
    61    98   101    1
    62    98    99    1
    63    65    66    1
    64    29    28    1
    65    29    32    1
    66    25    23   ar
    67    67    66    1
    68    34    33   ar
    69   103   105   ar
    70   103   102   ar
    71    22    21   ar
    72    74    73    1
    73    74    75   ar
    74    18    19    2
    75    18    17    1
    76   101   102    1
    77   131   132    1
    78   131   130    1
    79    99   100    2
    80    99   109   am
    81    73    72    1
    82    23    21   ar
    83   105   107   ar
    84    21    20    1
    85   102   104   ar
    86    33    32    1
    87    33    35   ar
    88   133   132    2
    89   109   110    1
    90   132   138   am
    91    17    20    1
    92    17    16    1
    93    72    69    1
    94    69    68    1
    95    69    70    1
    96   110   113    1
    97   110   111    1
    98   107   108    1
    99   107   106   ar
   100   138   139    1
   101    15    13    1
   102   104   106   ar
   103   113   115    1
   104   113   114    1
   105   155   152    1
   106   155   156    1
   107   152   151    1
   108   152   153    1
   109    70    71    2
   110   139   142    1
   111   139   140    1
   112   111   112    2
   113   111   116   am
   114   154   153    2
   115    12    14    1
   116    12    13    1
   117    12     9    1
   118   116   117    1
   119   153   159   am
   120   140   141    2
   121   140   143   am
   122   156   157    2
   123   156   158   am
   124    10     9    1
   125    10    11    2
   126   118   117    1
   127   118   119    2
   128     9     8    1
   129   117   120    1
   130   143   144    1
   131   159   160    1
   132   122   124   ar
   133   122   121   ar
   134   145   144    1
   135   145   146    2
   136   120   121    1
   137   161   162    2
   138   161   160    1
   139   124   125   ar
   140     8     3   am
   141   121   123   ar
   142   160   163    1
   143   144   147    1
   144   125   123   ar
   145   125   127   ar
   146     4     3    2
   147   123   126   ar
   148     3     2    1
   149   147   148    1
   150   127   129   ar
   151   126   128   ar
   152   163   164    1
   153   129   128   ar
   154   148   149    1
   155   148   150    1
   156   165   164   ar
   157   165   167   ar
   158   164   166   ar
   159     2     5    1
   160     2     1    1
   161   167   169   ar
   162   166   168   ar
   163     5     6    1
   164   169   168   ar
   165   169   170    1
   166     1     7    1
   167     7     6    1
   168   196   194   ar
   169   196   197   ar
   170   194   192   ar
   171   197   195   ar
   172   207   206   ar
   173   207   205   ar
   174   206   204   ar
   175   185   183    1
   176   186   184    1
   177   192   191    1
   178   192   193   ar
   179   191   188    1
   180   195   193   ar
   181   178   176   ar
   182   183   184    1
   183   183   180    1
   184   205   203   ar
   185   204   203   ar
   186   190   189    2
   187   188   189    1
   188   188   187    1
   189   189   198   am
   190   203   202    1
   191   176   177   ar
   192   176   175    1
   193   180   179    1
   194   180   181    1
   195   198   199    1
   196   174   173    2
   197   175   172    1
   198   182   181    2
   199   199   202    1
   200   199   200    1
   201   179   173   am
   202   173   172    1
   203   172   171    1
   204   200   201    2
