@<TRIPOS>MOLECULE
tmp/4mw6B00.pdb
 222 220 0 0 0
SMALL
GASTEIGER

@<TRIPOS>ATOM
      1  N        -33.4610  -11.5580   -5.1690 N.3    16  PRO16      -0.2102
      2  CA       -34.5390  -12.0580   -6.0010 C.3    16  PRO16       0.1504
      3  C        -34.2360  -11.6440   -7.4220 C.2    16  PRO16       0.2576
      4  O        -33.4160  -10.7530   -7.6230 O.2    16  PRO16      -0.2718
      5  CB       -35.7810  -11.3270   -5.4700 C.3    16  PRO16       0.0282
      6  CG       -35.3700  -10.6960   -4.1710 C.3    16  PRO16       0.0208
      7  CD       -33.8950  -10.4530   -4.3040 C.3    16  PRO16       0.0893
      8  N        -34.8540  -12.2970   -8.3950 N.am   17  ILE17      -0.1966
      9  CA       -34.8100  -11.8030   -9.7530 C.3    17  ILE17       0.1727
     10  C        -36.0480  -10.9480   -9.9280 C.2    17  ILE17       0.2616
     11  O        -37.1400  -11.3160   -9.4800 O.2    17  ILE17      -0.2715
     12  CB       -34.6980  -12.9210  -10.8140 C.3    17  ILE17       0.0290
     13  CG1      -35.7810  -13.9900  -10.6410 C.3    17  ILE17       0.0022
     14  CG2      -33.3090  -13.5560  -10.7520 C.3    17  ILE17       0.0023
     15  CD1      -35.8670  -14.9430  -11.8050 C.3    17  ILE17       0.0001
     16  N        -35.8760   -9.8010  -10.5680 N.am   18  TYR18      -0.1960
     17  CA       -36.9010   -8.7670  -10.5720 C.3    18  TYR18       0.1771
     18  C        -37.7340   -8.8150  -11.8350 C.2    18  TYR18       0.2619
     19  O        -37.2200   -9.1370  -12.9020 O.2    18  TYR18      -0.2715
     20  CB       -36.2440   -7.4070  -10.3980 C.3    18  TYR18       0.0574
     21  CG       -35.2920   -7.4160   -9.2250 C.ar   18  TYR18      -0.0198
     22  CD1      -35.7730   -7.6110   -7.9340 C.ar   18  TYR18      -0.0009
     23  CD2      -33.9120   -7.2840   -9.4110 C.ar   18  TYR18      -0.0009
     24  CE1      -34.9120   -7.6450   -6.8500 C.ar   18  TYR18       0.0417
     25  CE2      -33.0450   -7.3110   -8.3350 C.ar   18  TYR18       0.0417
     26  CZ       -33.5480   -7.4990   -7.0560 C.ar   18  TYR18       0.1957
     27  OH       -32.7120   -7.5330   -5.9660 O.3    18  TYR18      -0.2866
     28  N        -39.0200   -8.5110  -11.7050 N.am   19  TYR19      -0.1974
     29  CA       -39.9430   -8.6080  -12.8290 C.3    19  TYR19       0.1639
     30  C        -39.7240   -7.4150  -13.7440 C.2    19  TYR19       0.2290
     31  O        -39.4620   -6.3080  -13.2820 O.2    19  TYR19      -0.2864
     32  CB       -41.4100   -8.6970  -12.3430 C.3    19  TYR19       0.0560
     33  CG       -42.3600   -9.4640  -13.2740 C.ar   19  TYR19      -0.0198
     34  CD1      -41.9450  -10.6200  -13.9460 C.ar   19  TYR19      -0.0009
     35  CD2      -43.6880   -9.0400  -13.4640 C.ar   19  TYR19      -0.0009
     36  CE1      -42.8040  -11.3150  -14.7880 C.ar   19  TYR19       0.0417
     37  CE2      -44.5620   -9.7300  -14.3060 C.ar   19  TYR19       0.0417
     38  CZ       -44.1220  -10.8730  -14.9690 C.ar   19  TYR19       0.1957
     39  OH       -44.9820  -11.5770  -15.8150 O.3    19  TYR19      -0.2866
     40  N        -36.6510  -11.6190  -13.9840 N.3    56  ASP56      -0.1239
     41  CA       -37.7380  -12.5770  -14.2130 C.3    56  ASP56       0.1674
     42  C        -38.5050  -12.0830  -15.4400 C.2    56  ASP56       0.2266
     43  O        -39.2030  -11.0760  -15.3870 O.2    56  ASP56      -0.2867
     44  CB       -38.6350  -12.5880  -12.9610 C.3    56  ASP56       0.1410
     45  CG       -39.8350  -13.5370  -13.0560 C.2    56  ASP56       0.3668
     46  OD1      -40.0190  -14.2500  -14.0610 O.co2  56  ASP56      -0.2456
     47  OD2      -40.6110  -13.5640  -12.0780 O.co2  56  ASP56      -0.2456
     48  N        -40.6160  -13.8920  -17.9480 N.3    58  HIS58      -0.1226
     49  CA       -41.7510  -14.5710  -18.6090 C.3    58  HIS58       0.1752
     50  C        -43.1160  -14.1400  -18.0650 C.2    58  HIS58       0.2596
     51  O        -43.1940  -13.3350  -17.1380 O.2    58  HIS58      -0.2718
     52  CB       -41.5850  -16.0850  -18.5290 C.3    58  HIS58       0.0759
     53  CG       -40.4130  -16.6000  -19.3090 C.ar   58  HIS58       0.0818
     54  ND1      -39.3580  -17.2680  -18.7220 N.ar   58  HIS58      -0.2268
     55  CD2      -40.1260  -16.5420  -20.6300 C.ar   58  HIS58       0.1154
     56  CE1      -38.4790  -17.6070  -19.6470 C.ar   58  HIS58       0.1986
     57  NE2      -38.9140  -17.1700  -20.8120 N.ar   58  HIS58      -0.2212
     58  N        -44.1900  -14.6410  -18.6800 N.am   59  GLY59      -0.1957
     59  CA       -45.5450  -14.4260  -18.1720 C.3    59  GLY59       0.1869
     60  C        -46.4120  -13.5000  -19.0020 C.2    59  GLY59       0.2309
     61  O        -45.9300  -12.8210  -19.9080 O.2    59  GLY59      -0.2863
     62  N        -48.1800  -10.7060  -18.2100 N.3    61  LYS61      -0.1245
     63  CA       -48.0430   -9.2570  -18.0150 C.3    61  LYS61       0.1561
     64  C        -46.9200   -8.6530  -18.8550 C.2    61  LYS61       0.2260
     65  O        -47.0780   -7.5740  -19.4250 O.2    61  LYS61      -0.2867
     66  CB       -47.8030   -8.9170  -16.5500 C.3    61  LYS61       0.0271
     67  CG       -49.0560   -8.9530  -15.7080 C.3    61  LYS61       0.0035
     68  CD       -48.7400   -8.6270  -14.2560 C.3    61  LYS61       0.0206
     69  CE       -50.0150   -8.4450  -13.4510 C.3    61  LYS61       0.1093
     70  NZ       -50.9610   -9.5780  -13.6840 N.3    61  LYS61      -0.1314
     71  N        -54.8870  -14.6290  -12.4170 N.3   136  GLU136     -0.1245
     72  CA       -54.0700  -15.8170  -12.7080 C.3   136  GLU136      0.1567
     73  C        -54.2170  -16.8760  -11.6060 C.2   136  GLU136      0.2260
     74  O        -53.2460  -17.5510  -11.2520 O.2   136  GLU136     -0.2867
     75  CB       -52.5860  -15.4450  -12.8990 C.3   136  GLU136      0.0388
     76  CG       -52.3230  -14.2100  -13.7600 C.3   136  GLU136      0.1160
     77  CD       -50.8390  -13.9000  -13.9260 C.2   136  GLU136      0.3649
     78  OE1      -50.0000  -14.6590  -13.4030 O.co2 136  GLU136     -0.2457
     79  OE2      -50.5040  -12.8910  -14.5820 O.co2 136  GLU136     -0.2457
     80  N        -50.6760  -17.6130  -20.9590 N.3   215  LEU215     -0.1245
     81  CA       -49.4190  -16.9030  -20.8290 C.3   215  LEU215      0.1561
     82  C        -48.9970  -16.1560  -22.0990 C.2   215  LEU215      0.2260
     83  O        -47.8890  -15.6160  -22.1550 O.2   215  LEU215     -0.2867
     84  CB       -48.3190  -17.8900  -20.4220 C.3   215  LEU215      0.0270
     85  CG       -48.4880  -18.5780  -19.0630 C.3   215  LEU215      0.0019
     86  CD1      -47.2460  -19.3720  -18.6960 C.3   215  LEU215      0.0001
     87  CD2      -48.7960  -17.5680  -17.9670 C.3   215  LEU215      0.0001
     88  N        -43.3640  -18.0350  -22.1830 N.3   219  ALA219     -0.1245
     89  CA       -42.9450  -18.8450  -21.0420 C.3   219  ALA219      0.1562
     90  C        -42.1650  -20.0770  -21.5230 C.2   219  ALA219      0.2260
     91  O        -41.9640  -20.2720  -22.7290 O.2   219  ALA219     -0.2867
     92  CB       -44.1610  -19.2710  -20.2220 C.3   219  ALA219      0.0290
     93  N        -44.3780  -23.8710  -18.0760 N.3   229  VAL229     -0.1231
     94  CA       -43.9550  -23.8300  -16.6880 C.3   229  VAL229      0.1692
     95  C        -44.3220  -22.4630  -16.1190 C.2   229  VAL229      0.2592
     96  O        -43.9910  -21.4340  -16.7100 O.2   229  VAL229     -0.2718
     97  CB       -42.4380  -24.0290  -16.5320 C.3   229  VAL229      0.0266
     98  CG1      -42.0670  -24.0130  -15.0530 C.3   229  VAL229      0.0020
     99  CG2      -41.9810  -25.3250  -17.1960 C.3   229  VAL229      0.0020
    100  N        -45.0020  -22.4510  -14.9750 N.am  230  TYR230     -0.1962
    101  CA       -45.4000  -21.1920  -14.3480 C.3   230  TYR230      0.1771
    102  C        -44.2470  -20.5630  -13.5280 C.2   230  TYR230      0.2619
    103  O        -43.1420  -21.1140  -13.4600 O.2   230  TYR230     -0.2715
    104  CB       -46.6650  -21.4170  -13.5160 C.3   230  TYR230      0.0574
    105  CG       -47.4170  -20.1560  -13.1160 C.ar  230  TYR230     -0.0198
    106  CD1      -47.7050  -19.1500  -14.0450 C.ar  230  TYR230     -0.0009
    107  CD2      -47.8400  -19.9700  -11.7970 C.ar  230  TYR230     -0.0009
    108  CE1      -48.3780  -17.9980  -13.6690 C.ar  230  TYR230      0.0417
    109  CE2      -48.5200  -18.8270  -11.4160 C.ar  230  TYR230      0.0417
    110  CZ       -48.7880  -17.8460  -12.3530 C.ar  230  TYR230      0.1957
    111  OH       -49.4740  -16.7180  -11.9570 O.3   230  TYR230     -0.2866
    112  N        -44.5090  -19.3920  -12.9490 N.am  231  VAL231     -0.1963
    113  CA       -43.5030  -18.5750  -12.2410 C.3   231  VAL231      0.1727
    114  C        -42.6830  -19.2910  -11.1580 C.2   231  VAL231      0.2616
    115  O        -41.4890  -19.0230  -11.0050 O.2   231  VAL231     -0.2715
    116  CB       -44.1690  -17.3320  -11.5940 C.3   231  VAL231      0.0290
    117  CG1      -45.1800  -17.7310  -10.5150 C.3   231  VAL231      0.0023
    118  CG2      -43.1190  -16.3700  -11.0400 C.3   231  VAL231      0.0023
    119  N        -43.3190  -20.1900  -10.4140 N.am  232  TRP232     -0.1974
    120  CA       -42.6740  -20.8120   -9.2650 C.3   232  TRP232      0.1640
    121  C        -41.3900  -21.5030   -9.7180 C.2   232  TRP232      0.2290
    122  O        -40.3010  -21.0680   -9.3740 O.2   232  TRP232     -0.2864
    123  CB       -43.6200  -21.7830   -8.5190 C.3   232  TRP232      0.0576
    124  CG       -45.0380  -21.2560   -8.3380 C.ar  232  TRP232      0.0006
    125  CD1      -46.1780  -21.7590   -8.9100 C.ar  232  TRP232      0.0946
    126  CD2      -45.4490  -20.1130   -7.5690 C.ar  232  TRP232      0.0152
    127  NE1      -47.2710  -21.0160   -8.5290 N.ar  232  TRP232     -0.2442
    128  CE2      -46.8570  -19.9960   -7.7140 C.ar  232  TRP232      0.0810
    129  CE3      -44.7670  -19.1740   -6.7710 C.ar  232  TRP232      0.0012
    130  CZ2      -47.6000  -18.9760   -7.0880 C.ar  232  TRP232      0.0191
    131  CZ3      -45.5080  -18.1510   -6.1410 C.ar  232  TRP232      0.0001
    132  CH2      -46.9090  -18.0640   -6.3090 C.ar  232  TRP232      0.0015
    133  N        -40.0270  -21.6310  -12.7240 N.3   234  ASP234     -0.1225
    134  CA       -39.2430  -20.7840  -13.6230 C.3   234  ASP234      0.1805
    135  C        -38.3000  -19.8510  -12.8440 C.2   234  ASP234      0.2598
    136  O        -37.0840  -19.9300  -12.9830 O.2   234  ASP234     -0.2718
    137  CB       -40.1820  -19.9800  -14.5320 C.3   234  ASP234      0.1424
    138  CG       -39.4450  -19.1980  -15.6040 C.2   234  ASP234      0.3668
    139  OD1      -38.2050  -19.0570  -15.5320 O.co2 234  ASP234     -0.2456
    140  OD2      -40.1250  -18.7020  -16.5210 O.co2 234  ASP234     -0.2456
    141  N        -38.8750  -18.9930  -12.0160 N.am  235  ALA235     -0.1966
    142  CA       -38.1160  -17.9660  -11.3200 C.3   235  ALA235      0.1728
    143  C        -37.1750  -18.5270  -10.2440 C.2   235  ALA235      0.2616
    144  O        -35.9930  -18.1820  -10.2140 O.2   235  ALA235     -0.2715
    145  CB       -39.0640  -16.9410  -10.7080 C.3   235  ALA235      0.0334
    146  N        -37.6910  -19.3810   -9.3610 N.am  236  LEU236     -0.1977
    147  CA       -36.8710  -19.8850   -8.2650 C.3   236  LEU236      0.1596
    148  C        -35.6540  -20.6260   -8.7760 C.2   236  LEU236      0.2287
    149  O        -34.5860  -20.5410   -8.1820 O.2   236  LEU236     -0.2864
    150  CB       -37.6670  -20.7760   -7.3220 C.3   236  LEU236      0.0297
    151  CG       -38.6290  -19.9990   -6.4250 C.3   236  LEU236      0.0022
    152  CD1      -39.6480  -20.9190   -5.7800 C.3   236  LEU236      0.0001
    153  CD2      -37.8890  -19.2300   -5.3400 C.3   236  LEU236      0.0001
    154  N        -33.6890  -19.9890  -11.0420 N.3   238  ASN238     -0.1225
    155  CA       -32.5680  -19.1120  -11.3810 C.3   238  ASN238      0.1785
    156  C        -31.3590  -19.3300  -10.4750 C.2   238  ASN238      0.2597
    157  O        -30.2250  -19.2510  -10.9340 O.2   238  ASN238     -0.2718
    158  CB       -32.9640  -17.6290  -11.3530 C.3   238  ASN238      0.1169
    159  CG       -32.7250  -16.9780   -9.9970 C.2   238  ASN238      0.2627
    160  OD1      -31.5990  -16.6070   -9.6580 O.2   238  ASN238     -0.2716
    161  ND2      -33.7860  -16.8460   -9.2090 N.am  238  ASN238     -0.0877
    162  N        -31.6010  -19.5930   -9.1950 N.am  239  TYR239     -0.1976
    163  CA       -30.5130  -19.8020   -8.2420 C.3   239  TYR239      0.1639
    164  C        -29.7300  -21.0540   -8.5980 C.2   239  TYR239      0.2290
    165  O        -28.4950  -21.0710   -8.5360 O.2   239  TYR239     -0.2864
    166  CB       -31.0370  -19.9480   -6.8200 C.3   239  TYR239      0.0560
    167  CG       -31.8990  -18.8130   -6.3490 C.ar  239  TYR239     -0.0198
    168  CD1      -31.4800  -17.4940   -6.4680 C.ar  239  TYR239     -0.0009
    169  CD2      -33.1380  -19.0600   -5.7660 C.ar  239  TYR239     -0.0009
    170  CE1      -32.2750  -16.4470   -6.0280 C.ar  239  TYR239      0.0417
    171  CE2      -33.9340  -18.0230   -5.3120 C.ar  239  TYR239      0.0417
    172  CZ       -33.5000  -16.7200   -5.4470 C.ar  239  TYR239      0.1957
    173  OH       -34.2860  -15.7040   -4.9870 O.3   239  TYR239     -0.2866
    174  N        -42.3700   -9.6160    1.1400 N.3   276  ASP276     -0.1225
    175  CA       -43.4680   -9.8850    0.1860 C.3   276  ASP276      0.1805
    176  C        -43.4790  -11.2970   -0.4180 C.2   276  ASP276      0.2597
    177  O        -44.5490  -11.8140   -0.7370 O.2   276  ASP276     -0.2718
    178  CB       -43.4610   -8.8380   -0.9580 C.3   276  ASP276      0.1424
    179  CG       -42.0620   -8.6550   -1.6180 C.2   276  ASP276      0.3668
    180  OD1      -41.1340   -8.0820   -0.9850 O.co2 276  ASP276     -0.2456
    181  OD2      -41.8960   -9.0520   -2.7890 O.co2 276  ASP276     -0.2456
    182  N        -42.3040  -11.9080   -0.5820 N.am  277  ILE277     -0.1980
    183  CA       -42.2000  -13.2450   -1.1800 C.3   277  ILE277      0.1595
    184  C        -41.6880  -14.3010   -0.1860 C.2   277  ILE277      0.2287
    185  O        -41.1890  -15.3700   -0.5790 O.2   277  ILE277     -0.2864
    186  CB       -41.3200  -13.2110   -2.4490 C.3   277  ILE277      0.0276
    187  CG1      -39.8450  -12.9350   -2.1130 C.3   277  ILE277      0.0022
    188  CG2      -41.8440  -12.1490   -3.3960 C.3   277  ILE277      0.0022
    189  CD1      -38.9530  -12.7710   -3.3220 C.3   277  ILE277      0.0001
    190  N        -43.3290  -17.8600   -0.1910 N.3   280  PHE280     -0.1227
    191  CA       -42.9980  -18.5840   -1.4010 C.3   280  PHE280      0.1736
    192  C        -41.5260  -19.0580   -1.4480 C.2   280  PHE280      0.2595
    193  O        -41.2430  -20.0800   -2.0570 O.2   280  PHE280     -0.2718
    194  CB       -43.3620  -17.7470   -2.6330 C.3   280  PHE280      0.0547
    195  CG       -44.7740  -17.1820   -2.6220 C.ar  280  PHE280     -0.0202
    196  CD1      -45.8370  -17.8640   -2.0010 C.ar  280  PHE280     -0.0042
    197  CD2      -45.0480  -15.9780   -3.2660 C.ar  280  PHE280     -0.0042
    198  CE1      -47.1310  -17.3420   -2.0130 C.ar  280  PHE280     -0.0003
    199  CE2      -46.3370  -15.4540   -3.2760 C.ar  280  PHE280     -0.0003
    200  CZ       -47.3800  -16.1360   -2.6510 C.ar  280  PHE280     -0.0000
    201  N        -40.5950  -18.3450   -0.8140 N.am  281  HIS281     -0.1975
    202  CA       -39.1850  -18.8170   -0.7370 C.3   281  HIS281      0.1656
    203  C        -38.9140  -19.7930    0.3850 C.2   281  HIS281      0.2291
    204  O        -37.9920  -20.6030    0.2940 O.2   281  HIS281     -0.2864
    205  CB       -38.2200  -17.6750   -0.4660 C.3   281  HIS281      0.0771
    206  CG       -37.5640  -17.1410   -1.6780 C.ar  281  HIS281      0.0820
    207  ND1      -38.1910  -16.2400   -2.5040 N.ar  281  HIS281     -0.2267
    208  CD2      -36.3290  -17.3410   -2.1920 C.ar  281  HIS281      0.1154
    209  CE1      -37.3770  -15.9210   -3.4940 C.ar  281  HIS281      0.1986
    210  NE2      -36.2400  -16.5740   -3.3270 N.ar  281  HIS281     -0.2212
    211  N        -42.2070  -23.1370   -0.7480 N.3   284  TYR284     -0.1241
    212  CA       -42.1020  -23.7810   -2.0670 C.3   284  TYR284      0.1605
    213  C        -40.6760  -24.2130   -2.4460 C.2   284  TYR284      0.2264
    214  O        -40.4280  -25.3780   -2.7640 O.2   284  TYR284     -0.2867
    215  CB       -42.6210  -22.8630   -3.1750 C.3   284  TYR284      0.0534
    216  CG       -44.0280  -22.3330   -3.0180 C.ar  284  TYR284     -0.0201
    217  CD1      -44.9060  -22.8490   -2.0680 C.ar  284  TYR284     -0.0009
    218  CD2      -44.4920  -21.3250   -3.8590 C.ar  284  TYR284     -0.0009
    219  CE1      -46.1910  -22.3540   -1.9420 C.ar  284  TYR284      0.0417
    220  CE2      -45.7750  -20.8290   -3.7510 C.ar  284  TYR284      0.0417
    221  CZ       -46.6250  -21.3410   -2.7930 C.ar  284  TYR284      0.1957
    222  OH       -47.9050  -20.8410   -2.6850 O.3   284  TYR284     -0.2866
@<TRIPOS>BOND
     1    91    90    2
     2    88    89    1
     3    83    82    2
     4    82    81    1
     5    90    89    1
     6    89    92    1
     7    80    81    1
     8    81    84    1
     9    57    55   ar
    10    57    56   ar
    11    55    53   ar
    12    84    85    1
    13    61    60    2
    14    56    54   ar
    15    65    64    2
    16    53    54   ar
    17    53    52    1
    18    85    86    1
    19    85    87    1
    20    60    59    1
    21    64    63    1
    22    58    59    1
    23    58    50   am
    24    49    52    1
    25    49    50    1
    26    49    48    1
    27    62    63    1
    28    93    94    1
    29    50    51    2
    30    63    66    1
    31    99    97    1
    32    96    95    2
    33    94    97    1
    34    94    95    1
    35    66    67    1
    36    97    98    1
    37   140   138   ar
    38    95   100   am
    39    39    38    1
    40    67    68    1
    41   138   139   ar
    42   138   137    1
    43    42    43    2
    44    42    41    1
    45   100   101    1
    46    38    36   ar
    47    38    37   ar
    48    36    34   ar
    49    79    77   ar
    50   137   134    1
    51   101   102    1
    52   101   104    1
    53    37    35   ar
    54    68    69    1
    55    41    40    1
    56    41    44    1
    57    46    45   ar
    58   106   108   ar
    59   106   105   ar
    60    34    33   ar
    61    77    76    1
    62    77    78   ar
    63    76    75    1
    64    30    31    2
    65    30    29    1
    66    70    69    1
    67   108   110   ar
    68   134   135    1
    69   134   133    1
    70   102   103    2
    71   102   112   am
    72   104   105    1
    73    35    33   ar
    74    33    32    1
    75   105   107   ar
    76    45    44    1
    77    45    47   ar
    78   136   135    2
    79   112   113    1
    80    19    18    2
    81    75    72    1
    82   135   141   am
    83    29    32    1
    84    29    28    1
    85    72    71    1
    86    72    73    1
    87   110   111    1
    88   110   109   ar
    89   113   116    1
    90   113   114    1
    91   141   142    1
    92    18    28   am
    93    18    17    1
    94    15    13    1
    95   107   109   ar
    96    73    74    2
    97   116   118    1
    98   116   117    1
    99   155   158    1
   100   155   154    1
   101   155   156    1
   102   158   159    1
   103   142   145    1
   104   142   143    1
   105   114   115    2
   106   114   119   am
   107   157   156    2
   108    12    14    1
   109    12    13    1
   110    12     9    1
   111    17    16    1
   112    17    20    1
   113    16    10   am
   114   156   162   am
   115   119   120    1
   116    20    21    1
   117   143   144    2
   118   143   146   am
   119   159   160    2
   120   159   161   am
   121    10     9    1
   122    10    11    2
   123     9     8    1
   124   121   122    2
   125   121   120    1
   126    23    21   ar
   127    23    25   ar
   128   146   147    1
   129   120   123    1
   130    21    22   ar
   131   162   163    1
   132   125   127   ar
   133   125   124   ar
   134   148   147    1
   135   148   149    2
   136   164   165    2
   137   164   163    1
   138   127   128   ar
   139   123   124    1
   140     8     3   am
   141   124   126   ar
   142    25    26   ar
   143   147   150    1
   144   163   166    1
   145    22    24   ar
   146   128   126   ar
   147   128   130   ar
   148     4     3    2
   149   126   129   ar
   150     3     2    1
   151   150   151    1
   152   130   132   ar
   153    26    24   ar
   154    26    27    1
   155   166   167    1
   156   129   131   ar
   157   168   167   ar
   158   168   170   ar
   159   151   152    1
   160   151   153    1
   161   167   169   ar
   162   132   131   ar
   163   170   172   ar
   164     2     5    1
   165     2     1    1
   166   169   171   ar
   167     5     6    1
   168   172   171   ar
   169   172   173    1
   170     1     7    1
   171     7     6    1
   172   218   220   ar
   173   218   216   ar
   174   220   221   ar
   175   209   210   ar
   176   209   207   ar
   177   188   186    1
   178   210   208   ar
   179   189   187    1
   180   199   197   ar
   181   199   200   ar
   182   197   195   ar
   183   215   216    1
   184   215   212    1
   185   216   217   ar
   186   221   222    1
   187   221   219   ar
   188   181   179   ar
   189   214   213    2
   190   200   198   ar
   191   194   195    1
   192   194   191    1
   193   195   196   ar
   194   207   206   ar
   195   186   187    1
   196   186   183    1
   197   213   212    1
   198   208   206   ar
   199   217   219   ar
   200   212   211    1
   201   193   192    2
   202   198   196   ar
   203   206   205    1
   204   179   180   ar
   205   179   178    1
   206   192   191    1
   207   192   201   am
   208   191   190    1
   209   183   182    1
   210   183   184    1
   211   178   175    1
   212   201   202    1
   213   202   205    1
   214   202   203    1
   215   177   176    2
   216   182   176   am
   217   185   184    2
   218   176   175    1
   219   175   174    1
   220   204   203    2
