@<TRIPOS>MOLECULE
tmp/4mw7B00.pdb
 210 208 0 0 0
SMALL
GASTEIGER

@<TRIPOS>ATOM
      1  N         33.2800   11.3600   -5.0660 N.3    16  PRO16      -0.2102
      2  CA        34.3310   11.9120   -5.8900 C.3    16  PRO16       0.1504
      3  C         34.0720   11.4340   -7.2900 C.2    16  PRO16       0.2576
      4  O         33.3710   10.4420   -7.4570 O.2    16  PRO16      -0.2718
      5  CB        35.6050   11.2650   -5.3310 C.3    16  PRO16       0.0282
      6  CG        35.2020   10.5560   -4.0750 C.3    16  PRO16       0.0208
      7  CD        33.7580   10.2250   -4.2620 C.3    16  PRO16       0.0893
      8  N         34.5850   12.1460   -8.2860 N.am   17  ILE17      -0.1966
      9  CA        34.5990   11.6260   -9.6460 C.3    17  ILE17       0.1727
     10  C         35.8670   10.8010   -9.8140 C.2    17  ILE17       0.2616
     11  O         36.9190   11.1440   -9.2700 O.2    17  ILE17      -0.2715
     12  CB        34.5180   12.7330  -10.7010 C.3    17  ILE17       0.0290
     13  CG1       35.5780   13.8130  -10.4530 C.3    17  ILE17       0.0022
     14  CG2       33.1220   13.3460  -10.7020 C.3    17  ILE17       0.0023
     15  CD1       35.7970   14.7080  -11.6440 C.3    17  ILE17       0.0001
     16  N         35.7610    9.6990  -10.5390 N.am   18  TYR18      -0.1960
     17  CA        36.7980    8.6640  -10.5200 C.3    18  TYR18       0.1771
     18  C         37.6130    8.6490  -11.7920 C.2    18  TYR18       0.2619
     19  O         37.0870    8.9000  -12.8680 O.2    18  TYR18      -0.2715
     20  CB        36.1510    7.2980  -10.2960 C.3    18  TYR18       0.0574
     21  CG        35.1840    7.3020   -9.1280 C.ar   18  TYR18      -0.0198
     22  CD1       35.6490    7.4450   -7.8280 C.ar   18  TYR18      -0.0009
     23  CD2       33.8240    7.1920   -9.3300 C.ar   18  TYR18      -0.0009
     24  CE1       34.7900    7.4600   -6.7580 C.ar   18  TYR18       0.0417
     25  CE2       32.9490    7.2040   -8.2670 C.ar   18  TYR18       0.0417
     26  CZ        33.4340    7.3400   -6.9790 C.ar   18  TYR18       0.1957
     27  OH        32.5700    7.3570   -5.9060 O.3    18  TYR18      -0.2866
     28  N         38.9000    8.3520  -11.6650 N.am   19  TYR19      -0.1974
     29  CA        39.8200    8.4000  -12.7950 C.3    19  TYR19       0.1639
     30  C         39.6750    7.1770  -13.6890 C.2    19  TYR19       0.2290
     31  O         39.6540    6.0400  -13.2190 O.2    19  TYR19      -0.2864
     32  CB        41.2620    8.5260  -12.2950 C.3    19  TYR19       0.0560
     33  CG        42.2000    9.2440  -13.2390 C.ar   19  TYR19      -0.0198
     34  CD1       41.8390   10.4520  -13.8160 C.ar   19  TYR19      -0.0009
     35  CD2       43.4680    8.7320  -13.5230 C.ar   19  TYR19      -0.0009
     36  CE1       42.6920   11.1220  -14.6650 C.ar   19  TYR19       0.0417
     37  CE2       44.3390    9.4020  -14.3690 C.ar   19  TYR19       0.0417
     38  CZ        43.9450   10.6040  -14.9390 C.ar   19  TYR19       0.1957
     39  OH        44.7850   11.3020  -15.7930 O.3    19  TYR19      -0.2866
     40  N         36.6140   11.4300  -13.9130 N.3    56  ASP56      -0.1239
     41  CA        37.6810   12.3880  -14.1390 C.3    56  ASP56       0.1674
     42  C         38.4080   11.8400  -15.3570 C.2    56  ASP56       0.2266
     43  O         38.9960   10.7710  -15.2810 O.2    56  ASP56      -0.2867
     44  CB        38.5750   12.3950  -12.8910 C.3    56  ASP56       0.1410
     45  CG        39.7450   13.3500  -12.9810 C.2    56  ASP56       0.3668
     46  OD1       39.8740   14.1170  -13.9610 O.co2  56  ASP56      -0.2456
     47  OD2       40.5540   13.3280  -12.0350 O.co2  56  ASP56      -0.2456
     48  N         40.5780   13.5860  -17.8790 N.3    58  HIS58      -0.1226
     49  CA        41.6920   14.3020  -18.5080 C.3    58  HIS58       0.1752
     50  C         43.0620   13.9050  -17.9590 C.2    58  HIS58       0.2596
     51  O         43.1750   13.2240  -16.9470 O.2    58  HIS58      -0.2718
     52  CB        41.5050   15.8250  -18.3670 C.3    58  HIS58       0.0759
     53  CG        40.3290   16.3650  -19.1280 C.ar   58  HIS58       0.0818
     54  ND1       39.5110   17.3560  -18.6320 N.ar   58  HIS58      -0.2268
     55  CD2       39.8250   16.0420  -20.3400 C.ar   58  HIS58       0.1154
     56  CE1       38.5570   17.6190  -19.5010 C.ar   58  HIS58       0.1986
     57  NE2       38.7250   16.8360  -20.5470 N.ar   58  HIS58      -0.2212
     58  N         44.1090   14.3450  -18.6500 N.am   59  GLY59      -0.1957
     59  CA        45.4710   14.1710  -18.1750 C.3    59  GLY59       0.1869
     60  C         46.2800   13.2130  -19.0130 C.2    59  GLY59       0.2309
     61  O         45.7430   12.4700  -19.8250 O.2    59  GLY59      -0.2863
     62  N         48.0340   10.4820  -18.1810 N.3    61  LYS61      -0.1245
     63  CA        47.8100    9.0640  -17.8840 C.3    61  LYS61       0.1561
     64  C         46.6480    8.4380  -18.6770 C.2    61  LYS61       0.2260
     65  O         46.7350    7.2820  -19.1100 O.2    61  LYS61      -0.2867
     66  CB        47.5430    8.8770  -16.3920 C.3    61  LYS61       0.0271
     67  CG        48.7850    8.9050  -15.5270 C.3    61  LYS61       0.0035
     68  CD        48.4100    8.8800  -14.0520 C.3    61  LYS61       0.0206
     69  CE        49.5460    8.3470  -13.2010 C.3    61  LYS61       0.1093
     70  NZ        50.8270    9.0190  -13.5570 N.3    61  LYS61      -0.1314
     71  N         54.5430   14.6010  -12.6080 N.3   137  GLU137     -0.1245
     72  CA        53.7430   15.8240  -12.8050 C.3   137  GLU137      0.1567
     73  C         53.9080   16.8020  -11.6290 C.2   137  GLU137      0.2260
     74  O         52.9170   17.3100  -11.0960 O.2   137  GLU137     -0.2867
     75  CB        52.2540   15.4920  -13.0130 C.3   137  GLU137      0.0388
     76  CG        51.9360   14.7030  -14.2720 C.3   137  GLU137      0.1160
     77  CD        50.4890   14.2230  -14.3260 C.2   137  GLU137      0.3649
     78  OE1       50.0950   13.4270  -13.4490 O.co2 137  GLU137     -0.2457
     79  OE2       49.7440   14.6330  -15.2500 O.co2 137  GLU137     -0.2457
     80  N         50.4290   17.4140  -21.0170 N.3   214  LEU214     -0.1245
     81  CA        49.1790   16.6530  -20.8360 C.3   214  LEU214      0.1561
     82  C         48.7190   15.9540  -22.1130 C.2   214  LEU214      0.2260
     83  O         47.5890   15.4480  -22.1690 O.2   214  LEU214     -0.2867
     84  CB        48.0530   17.5590  -20.3320 C.3   214  LEU214      0.0270
     85  CG        48.3290   18.4150  -19.0970 C.3   214  LEU214      0.0019
     86  CD1       47.0400   19.0510  -18.5990 C.3   214  LEU214      0.0001
     87  CD2       48.9680   17.5900  -17.9910 C.3   214  LEU214      0.0001
     88  N         43.1630   17.8750  -22.1290 N.3   218  ALA218     -0.1245
     89  CA        42.7420   18.7010  -21.0060 C.3   218  ALA218      0.1562
     90  C         41.9710   19.9290  -21.4960 C.2   218  ALA218      0.2260
     91  O         41.7490   20.1060  -22.6910 O.2   218  ALA218     -0.2867
     92  CB        43.9540   19.1340  -20.2060 C.3   218  ALA218      0.0290
     93  N         44.2990   23.6320  -18.0890 N.3   228  VAL228     -0.1231
     94  CA        43.8760   23.6220  -16.6920 C.3   228  VAL228      0.1692
     95  C         44.2180   22.2550  -16.0910 C.2   228  VAL228      0.2592
     96  O         43.7400   21.2240  -16.5720 O.2   228  VAL228     -0.2718
     97  CB        42.3590   23.8710  -16.5870 C.3   228  VAL228      0.0266
     98  CG1       41.8740   23.7230  -15.1510 C.3   228  VAL228      0.0020
     99  CG2       42.0160   25.2450  -17.1380 C.3   228  VAL228      0.0020
    100  N         45.0480   22.2400  -15.0520 N.am  229  TYR229     -0.1962
    101  CA        45.4760   20.9830  -14.4380 C.3   229  TYR229      0.1771
    102  C         44.3480   20.4260  -13.5540 C.2   229  TYR229      0.2619
    103  O         43.2230   20.9390  -13.5850 O.2   229  TYR229     -0.2715
    104  CB        46.8010   21.1990  -13.6850 C.3   229  TYR229      0.0574
    105  CG        47.5190   19.9390  -13.2430 C.ar  229  TYR229     -0.0198
    106  CD1       47.6730   18.8470  -14.0980 C.ar  229  TYR229     -0.0009
    107  CD2       48.0430   19.8400  -11.9620 C.ar  229  TYR229     -0.0009
    108  CE1       48.3190   17.6950  -13.6810 C.ar  229  TYR229      0.0417
    109  CE2       48.6870   18.6900  -11.5340 C.ar  229  TYR229      0.0417
    110  CZ        48.8260   17.6220  -12.3950 C.ar  229  TYR229      0.1957
    111  OH        49.4730   16.4860  -11.9470 O.3   229  TYR229     -0.2866
    112  N         44.6290   19.3730  -12.7890 N.am  230  VAL230     -0.1963
    113  CA        43.5790   18.5860  -12.1120 C.3   230  VAL230      0.1727
    114  C         42.7220   19.3280  -11.0720 C.2   230  VAL230      0.2616
    115  O         41.5410   19.0220  -10.8980 O.2   230  VAL230     -0.2715
    116  CB        44.1890   17.3280  -11.4330 C.3   230  VAL230      0.0290
    117  CG1       45.0600   17.7100  -10.2360 C.3   230  VAL230      0.0023
    118  CG2       43.0930   16.3520  -11.0080 C.3   230  VAL230      0.0023
    119  N         43.3200   20.2900  -10.3830 N.am  231  TRP231     -0.1974
    120  CA        42.6810   20.9120   -9.2360 C.3   231  TRP231      0.1640
    121  C         41.3920   21.6490   -9.6240 C.2   231  TRP231      0.2290
    122  O         40.3540   21.4130   -9.0330 O.2   231  TRP231     -0.2864
    123  CB        43.6560   21.8470   -8.4960 C.3   231  TRP231      0.0576
    124  CG        45.0630   21.2950   -8.3450 C.ar  231  TRP231      0.0006
    125  CD1       46.1980   21.7900   -8.9200 C.ar  231  TRP231      0.0946
    126  CD2       45.4740   20.1450   -7.5810 C.ar  231  TRP231      0.0152
    127  NE1       47.2890   21.0310   -8.5560 N.ar  231  TRP231     -0.2442
    128  CE2       46.8740   20.0140   -7.7380 C.ar  231  TRP231      0.0810
    129  CE3       44.7970   19.2180   -6.7790 C.ar  231  TRP231      0.0012
    130  CZ2       47.6100   18.9860   -7.1250 C.ar  231  TRP231      0.0191
    131  CZ3       45.5300   18.1930   -6.1650 C.ar  231  TRP231      0.0001
    132  CH2       46.9230   18.0900   -6.3440 C.ar  231  TRP231      0.0015
    133  N         39.8880   21.4260  -12.5400 N.3   233  ASP233     -0.1225
    134  CA        39.1350   20.6230  -13.4800 C.3   233  ASP233      0.1805
    135  C         38.2580   19.6610  -12.6900 C.2   233  ASP233      0.2598
    136  O         37.0280   19.7020  -12.7890 O.2   233  ASP233     -0.2718
    137  CB        40.1000   19.8640  -14.4040 C.3   233  ASP233      0.1424
    138  CG        39.3890   18.9910  -15.4420 C.2   233  ASP233      0.3668
    139  OD1       38.1510   18.8690  -15.4350 O.co2 233  ASP233     -0.2456
    140  OD2       40.0920   18.3970  -16.2720 O.co2 233  ASP233     -0.2456
    141  N         38.8910   18.8040  -11.8970 N.am  234  ALA234     -0.1966
    142  CA        38.1680   17.7430  -11.2120 C.3   234  ALA234      0.1728
    143  C         37.2590   18.2860  -10.1030 C.2   234  ALA234      0.2616
    144  O         36.0960   17.9070  -10.0220 O.2   234  ALA234     -0.2715
    145  CB        39.1370   16.7040  -10.6530 C.3   234  ALA234      0.0334
    146  N         37.7830   19.1690   -9.2560 N.am  235  LEU235     -0.1977
    147  CA        37.0020   19.6680   -8.1220 C.3   235  LEU235      0.1596
    148  C         35.7470   20.4120   -8.5650 C.2   235  LEU235      0.2287
    149  O         34.6960   20.3240   -7.9280 O.2   235  LEU235     -0.2864
    150  CB        37.8550   20.5500   -7.2040 C.3   235  LEU235      0.0297
    151  CG        38.8200   19.7580   -6.3130 C.3   235  LEU235      0.0022
    152  CD1       39.8440   20.6690   -5.6510 C.3   235  LEU235      0.0001
    153  CD2       38.0780   18.9720   -5.2430 C.3   235  LEU235      0.0001
    154  N         33.7190   19.8000  -10.7420 N.3   237  ASN237     -0.1225
    155  CA        32.6250   18.9510  -11.1820 C.3   237  ASN237      0.1785
    156  C         31.3940   19.1570  -10.2940 C.2   237  ASN237      0.2597
    157  O         30.2460   19.0620  -10.7710 O.2   237  ASN237     -0.2718
    158  CB        33.0310   17.4710  -11.1870 C.3   237  ASN237      0.1169
    159  CG        32.7040   16.7690   -9.8800 C.2   237  ASN237      0.2627
    160  OD1       31.5820   16.3120   -9.6670 O.2   237  ASN237     -0.2716
    161  ND2       33.6790   16.6850   -8.9980 N.am  237  ASN237     -0.0877
    162  N         31.6380   19.4310   -9.0090 N.am  238  TYR238     -0.1976
    163  CA        30.5500   19.6320   -8.0550 C.3   238  TYR238      0.1639
    164  C         29.7730   20.8900   -8.3980 C.2   238  TYR238      0.2290
    165  O         28.5520   20.9180   -8.3040 O.2   238  TYR238     -0.2864
    166  CB        31.0910   19.7360   -6.6330 C.3   238  TYR238      0.0560
    167  CG        31.9530   18.5720   -6.2010 C.ar  238  TYR238     -0.0198
    168  CD1       31.5260   17.2650   -6.3610 C.ar  238  TYR238     -0.0009
    169  CD2       33.1830   18.7830   -5.6080 C.ar  238  TYR238     -0.0009
    170  CE1       32.3090   16.2020   -5.9580 C.ar  238  TYR238      0.0417
    171  CE2       33.9710   17.7220   -5.1960 C.ar  238  TYR238      0.0417
    172  CZ        33.5240   16.4400   -5.3700 C.ar  238  TYR238      0.1957
    173  OH        34.3040   15.3990   -4.9620 O.3   238  TYR238     -0.2866
    174  N         42.3100    9.7770    1.3110 N.3   275  ASP275     -0.1225
    175  CA        43.3910   10.0960    0.3760 C.3   275  ASP275      0.1805
    176  C         43.2670   11.4960   -0.2470 C.2   275  ASP275      0.2597
    177  O         44.2800   12.1560   -0.4880 O.2   275  ASP275     -0.2718
    178  CB        43.5500    8.9910   -0.7000 C.3   275  ASP275      0.1424
    179  CG        42.2390    8.6790   -1.4860 C.2   275  ASP275      0.3668
    180  OD1       41.1480    8.4870   -0.8890 O.co2 275  ASP275     -0.2456
    181  OD2       42.3240    8.5840   -2.7330 O.co2 275  ASP275     -0.2456
    182  N         42.0400   11.9730   -0.4510 N.am  276  ILE276     -0.1980
    183  CA        41.8160   13.2850   -1.0940 C.3   276  ILE276      0.1595
    184  C         41.1720   14.3700   -0.2020 C.2   276  ILE276      0.2287
    185  O         40.6000   15.3430   -0.7050 O.2   276  ILE276     -0.2864
    186  CB        41.0160   13.1060   -2.3980 C.3   276  ILE276      0.0276
    187  CG1       39.5810   12.6550   -2.1050 C.3   276  ILE276      0.0022
    188  CG2       41.7460   12.1180   -3.2990 C.3   276  ILE276      0.0022
    189  CD1       38.7970   12.3020   -3.3450 C.3   276  ILE276      0.0001
    190  N         42.6370   18.0290   -0.5500 N.3   279  PHE279     -0.1227
    191  CA        42.1890   18.7360   -1.7500 C.3   279  PHE279      0.1736
    192  C         40.7660   19.2600   -1.6070 C.2   279  PHE279      0.2595
    193  O         40.4320   20.2900   -2.1920 O.2   279  PHE279     -0.2718
    194  CB        42.2820   17.8250   -2.9800 C.3   279  PHE279      0.0547
    195  CG        43.5430   17.0230   -3.0420 C.ar  279  PHE279     -0.0202
    196  CD1       44.7750   17.6430   -2.9490 C.ar  279  PHE279     -0.0042
    197  CD2       43.5000   15.6520   -3.1760 C.ar  279  PHE279     -0.0042
    198  CE1       45.9550   16.9130   -3.0020 C.ar  279  PHE279     -0.0003
    199  CE2       44.6710   14.9110   -3.2290 C.ar  279  PHE279     -0.0003
    200  CZ        45.9030   15.5450   -3.1490 C.ar  279  PHE279     -0.0000
    201  N         39.9400   18.5440   -0.8390 N.am  280  HIS280     -0.1975
    202  CA        38.5470   18.9370   -0.5840 C.3   280  HIS280      0.1656
    203  C         38.3680   19.9370    0.5840 C.2   280  HIS280      0.2291
    204  O         37.4490   20.7470    0.5590 O.2   280  HIS280     -0.2864
    205  CB        37.6770   17.6860   -0.3720 C.3   280  HIS280      0.0771
    206  CG        37.3370   16.9680   -1.6420 C.ar  280  HIS280      0.0820
    207  ND1       38.2050   16.0960   -2.2580 N.ar  280  HIS280     -0.2267
    208  CD2       36.2310   17.0100   -2.4230 C.ar  280  HIS280      0.1154
    209  CE1       37.6480   15.6250   -3.3590 C.ar  280  HIS280      0.1986
    210  NE2       36.4510   16.1670   -3.4840 N.ar  280  HIS280     -0.2212
@<TRIPOS>BOND
     1    91    90    2
     2    83    82    2
     3    88    89    1
     4    82    81    1
     5    90    89    1
     6    80    81    1
     7    89    92    1
     8    81    84    1
     9    57    55   ar
    10    57    56   ar
    11    55    53   ar
    12    84    85    1
    13    61    60    2
    14    56    54   ar
    15    53    54   ar
    16    53    52    1
    17    65    64    2
    18    85    86    1
    19    85    87    1
    20    60    59    1
    21    64    63    1
    22    58    59    1
    23    58    50   am
    24    49    52    1
    25    49    50    1
    26    49    48    1
    27    62    63    1
    28    93    94    1
    29    50    51    2
    30    63    66    1
    31    99    97    1
    32    94    97    1
    33    94    95    1
    34    97    98    1
    35    96    95    2
    36    66    67    1
    37   140   138   ar
    38    95   100   am
    39    39    38    1
    40    67    68    1
    41   138   139   ar
    42   138   137    1
    43    42    43    2
    44    42    41    1
    45    79    77   ar
    46   100   101    1
    47    38    36   ar
    48    38    37   ar
    49    36    34   ar
    50   101   104    1
    51   101   102    1
    52   137   134    1
    53    37    35   ar
    54    77    76    1
    55    77    78   ar
    56    76    75    1
    57    41    40    1
    58    41    44    1
    59   106   108   ar
    60   106   105   ar
    61    68    69    1
    62    46    45   ar
    63    34    33   ar
    64    30    31    2
    65    30    29    1
    66   104   105    1
    67   108   110   ar
    68   103   102    2
    69    70    69    1
    70   102   112   am
    71    35    33   ar
    72   134   135    1
    73   134   133    1
    74   105   107   ar
    75    33    32    1
    76    75    72    1
    77    45    44    1
    78    45    47   ar
    79    19    18    2
    80    72    71    1
    81    72    73    1
    82    29    32    1
    83    29    28    1
    84   112   113    1
    85   136   135    2
    86   135   141   am
    87   110   111    1
    88   110   109   ar
    89   113   116    1
    90   113   114    1
    91   107   109   ar
    92   141   142    1
    93    18    28   am
    94    18    17    1
    95    15    13    1
    96    73    74    2
    97   116   118    1
    98   116   117    1
    99   142   145    1
   100   142   143    1
   101   158   155    1
   102   158   159    1
   103   155   154    1
   104   155   156    1
   105   114   115    2
   106   114   119   am
   107   157   156    2
   108    14    12    1
   109    12    13    1
   110    12     9    1
   111    16    17    1
   112    16    10   am
   113    17    20    1
   114   119   120    1
   115    20    21    1
   116   156   162   am
   117   143   144    2
   118   143   146   am
   119   159   160    2
   120   159   161   am
   121    10     9    1
   122    10    11    2
   123     9     8    1
   124   121   120    1
   125   121   122    2
   126    23    21   ar
   127    23    25   ar
   128   146   147    1
   129   120   123    1
   130    21    22   ar
   131   162   163    1
   132   125   127   ar
   133   125   124   ar
   134   148   147    1
   135   148   149    2
   136   127   128   ar
   137   123   124    1
   138   164   165    2
   139   164   163    1
   140   124   126   ar
   141     8     3   am
   142    25    26   ar
   143   147   150    1
   144   163   166    1
   145    22    24   ar
   146   128   126   ar
   147   128   130   ar
   148   126   129   ar
   149     4     3    2
   150     3     2    1
   151   150   151    1
   152   130   132   ar
   153    26    24   ar
   154    26    27    1
   155   129   131   ar
   156   166   167    1
   157   168   167   ar
   158   168   170   ar
   159   132   131   ar
   160   151   152    1
   161   151   153    1
   162   167   169   ar
   163   170   172   ar
   164     2     5    1
   165     2     1    1
   166   169   171   ar
   167   172   171   ar
   168   172   173    1
   169     5     6    1
   170     1     7    1
   171     7     6    1
   172   210   209   ar
   173   210   208   ar
   174   209   207   ar
   175   189   187    1
   176   188   186    1
   177   199   197   ar
   178   199   200   ar
   179   197   195   ar
   180   200   198   ar
   181   195   194    1
   182   195   196   ar
   183   198   196   ar
   184   194   191    1
   185   181   179   ar
   186   208   206   ar
   187   186   187    1
   188   186   183    1
   189   207   206   ar
   190   193   192    2
   191   191   192    1
   192   191   190    1
   193   206   205    1
   194   192   201   am
   195   179   180   ar
   196   179   178    1
   197   183   182    1
   198   183   184    1
   199   201   202    1
   200   185   184    2
   201   178   175    1
   202   202   205    1
   203   202   203    1
   204   177   176    2
   205   182   176   am
   206   176   175    1
   207   175   174    1
   208   204   203    2
