@<TRIPOS>MOLECULE
tmp/4mwbB00.pdb
 198 194 0 0 0
SMALL
GASTEIGER

@<TRIPOS>ATOM
      1  N         33.5080   11.6460   -5.0230 N.3    16  PRO16      -0.2102
      2  CA        34.5910   12.1380   -5.8650 C.3    16  PRO16       0.1504
      3  C         34.2920   11.7700   -7.3030 C.2    16  PRO16       0.2575
      4  O         33.4030   10.9380   -7.5540 O.2    16  PRO16      -0.2718
      5  CB        35.8150   11.3560   -5.3730 C.3    16  PRO16       0.0282
      6  CG        35.4020   10.7220   -4.0730 C.3    16  PRO16       0.0208
      7  CD        33.9330   10.4850   -4.2300 C.3    16  PRO16       0.0893
      8  N         34.9900   12.3970   -8.2440 N.am   17  ILE17      -0.1980
      9  CA        34.9710   11.9040   -9.6060 C.3    17  ILE17       0.1595
     10  C         36.2010   11.0280   -9.7850 C.2    17  ILE17       0.2287
     11  O         37.2480   11.3210   -9.2460 O.2    17  ILE17      -0.2864
     12  CB        34.8320   13.0010  -10.6750 C.3    17  ILE17       0.0276
     13  CG1       35.9050   14.0840  -10.5450 C.3    17  ILE17       0.0022
     14  CG2       33.4440   13.6140  -10.5950 C.3    17  ILE17       0.0022
     15  CD1       35.9670   14.9760  -11.7710 C.3    17  ILE17       0.0001
     16  N         39.2000    8.5900  -11.5780 N.3    19  TYR19      -0.1241
     17  CA        40.1670    8.6930  -12.6670 C.3    19  TYR19       0.1605
     18  C         40.0770    7.4920  -13.5960 C.2    19  TYR19       0.2264
     19  O         40.1670    6.3590  -13.1560 O.2    19  TYR19      -0.2867
     20  CB        41.6040    8.8490  -12.1270 C.3    19  TYR19       0.0534
     21  CG        42.5360    9.5880  -13.0790 C.ar   19  TYR19      -0.0201
     22  CD1       42.1060   10.7300  -13.7500 C.ar   19  TYR19      -0.0009
     23  CD2       43.8470    9.1650  -13.2900 C.ar   19  TYR19      -0.0009
     24  CE1       42.9300   11.4190  -14.6120 C.ar   19  TYR19       0.0417
     25  CE2       44.6920    9.8580  -14.1550 C.ar   19  TYR19       0.0417
     26  CZ        44.2230   10.9880  -14.8130 C.ar   19  TYR19       0.1957
     27  OH        45.0230   11.6980  -15.6860 O.3    19  TYR19      -0.2866
     28  N         36.9080   11.6340  -13.9690 N.3    56  ASP56      -0.1239
     29  CA        38.0000   12.5960  -14.1790 C.3    56  ASP56       0.1674
     30  C         38.7510   12.0320  -15.3790 C.2    56  ASP56       0.2266
     31  O         39.3230   10.9370  -15.3000 O.2    56  ASP56      -0.2867
     32  CB        38.8670   12.5930  -12.9160 C.3    56  ASP56       0.1410
     33  CG        40.0680   13.5350  -12.9730 C.2    56  ASP56       0.3668
     34  OD1       40.2930   14.2460  -13.9800 O.co2  56  ASP56      -0.2456
     35  OD2       40.8000   13.5490  -11.9590 O.co2  56  ASP56      -0.2456
     36  N         40.8450   13.8400  -17.9930 N.3    58  HIS58      -0.1226
     37  CA        41.9860   14.5140  -18.6230 C.3    58  HIS58       0.1752
     38  C         43.3400   14.1380  -18.0110 C.2    58  HIS58       0.2596
     39  O         43.4100   13.4300  -17.0100 O.2    58  HIS58      -0.2718
     40  CB        41.8140   16.0310  -18.5290 C.3    58  HIS58       0.0759
     41  CG        40.6550   16.5610  -19.3150 C.ar   58  HIS58       0.0818
     42  ND1       39.7230   17.4180  -18.7740 N.ar   58  HIS58      -0.2268
     43  CD2       40.2840   16.3660  -20.6020 C.ar   58  HIS58       0.1154
     44  CE1       38.8200   17.7220  -19.6910 C.ar   58  HIS58       0.1986
     45  NE2       39.1340   17.0910  -20.8070 N.ar   58  HIS58      -0.2212
     46  N         44.4160   14.6180  -18.6300 N.am   59  GLY59      -0.1957
     47  CA        45.7610   14.4600  -18.0830 C.3    59  GLY59       0.1869
     48  C         46.6200   13.4390  -18.7960 C.2    59  GLY59       0.2309
     49  O         46.1290   12.6210  -19.5880 O.2    59  GLY59      -0.2863
     50  N         48.2450   10.7170  -17.9790 N.3    61  LYS61      -0.1245
     51  CA        48.1470    9.2780  -17.7570 C.3    61  LYS61       0.1561
     52  C         46.9900    8.6300  -18.5350 C.2    61  LYS61       0.2260
     53  O         47.0860    7.4760  -18.9780 O.2    61  LYS61      -0.2867
     54  CB        48.0420    8.9700  -16.2670 C.3    61  LYS61       0.0271
     55  CG        49.3840    8.9690  -15.5510 C.3    61  LYS61       0.0035
     56  CD        49.2050    8.9370  -14.0420 C.3    61  LYS61       0.0206
     57  CE        50.5220    8.6860  -13.3280 C.3    61  LYS61       0.1093
     58  NZ        51.5780    9.6710  -13.7200 N.3    61  LYS61      -0.1314
     59  N         54.4130   14.1830  -11.6780 N.3   136  GLU136     -0.1245
     60  CA        53.6720   15.3740  -12.1080 C.3   136  GLU136      0.1567
     61  C         53.8020   16.5120  -11.0920 C.2   136  GLU136      0.2260
     62  O         52.8720   17.2940  -10.9120 O.2   136  GLU136     -0.2867
     63  CB        52.1920   15.0410  -12.3710 C.3   136  GLU136      0.0388
     64  CG        51.9700   13.7260  -13.1200 C.3   136  GLU136      0.1160
     65  CD        50.5200   13.4610  -13.5070 C.2   136  GLU136      0.3649
     66  OE1       49.6430   14.3060  -13.2340 O.co2 136  GLU136     -0.2457
     67  OE2       50.2610   12.3880  -14.0950 O.co2 136  GLU136     -0.2457
     68  N         50.9330   17.3140  -20.8630 N.3   221  LEU221     -0.1245
     69  CA        49.6560   16.6180  -20.7730 C.3   221  LEU221      0.1561
     70  C         49.2330   15.9580  -22.0810 C.2   221  LEU221      0.2260
     71  O         48.0890   15.5180  -22.2110 O.2   221  LEU221     -0.2867
     72  CB        48.5760   17.6040  -20.3290 C.3   221  LEU221      0.0270
     73  CG        48.8910   18.3500  -19.0340 C.3   221  LEU221      0.0019
     74  CD1       47.6970   19.1630  -18.5610 C.3   221  LEU221      0.0001
     75  CD2       49.3330   17.3660  -17.9570 C.3   221  LEU221      0.0001
     76  N         43.6100   18.0140  -22.2040 N.3   225  ALA225     -0.1245
     77  CA        43.1950   18.8230  -21.0720 C.3   225  ALA225      0.1562
     78  C         42.4670   20.0630  -21.5710 C.2   225  ALA225      0.2260
     79  O         42.4090   20.3180  -22.7840 O.2   225  ALA225     -0.2867
     80  CB        44.3990   19.2240  -20.2320 C.3   225  ALA225      0.0290
     81  N         44.7960   23.7070  -18.0220 N.3   235  VAL235     -0.1231
     82  CA        44.3250   23.6390  -16.6420 C.3   235  VAL235      0.1692
     83  C         44.6750   22.2570  -16.0750 C.2   235  VAL235      0.2592
     84  O         44.3260   21.2340  -16.6660 O.2   235  VAL235     -0.2718
     85  CB        42.8020   23.8700  -16.5800 C.3   235  VAL235      0.0266
     86  CG1       42.2800   23.7230  -15.1570 C.3   235  VAL235      0.0020
     87  CG2       42.4610   25.2410  -17.1500 C.3   235  VAL235      0.0020
     88  N         45.3840   22.2320  -14.9510 N.am  236  TYR236     -0.1962
     89  CA        45.7890   20.9730  -14.3200 C.3   236  TYR236      0.1771
     90  C         44.6340   20.4120  -13.4660 C.2   236  TYR236      0.2619
     91  O         43.5270   20.9750  -13.4680 O.2   236  TYR236     -0.2715
     92  CB        47.0810   21.1750  -13.5170 C.3   236  TYR236      0.0574
     93  CG        47.7210   19.9000  -13.0120 C.ar  236  TYR236     -0.0198
     94  CD1       47.9630   18.8260  -13.8640 C.ar  236  TYR236     -0.0009
     95  CD2       48.0740   19.7630  -11.6730 C.ar  236  TYR236     -0.0009
     96  CE1       48.5320   17.6540  -13.3920 C.ar  236  TYR236      0.0417
     97  CE2       48.6510   18.5970  -11.1940 C.ar  236  TYR236      0.0417
     98  CZ        48.8780   17.5470  -12.0560 C.ar  236  TYR236      0.1957
     99  OH        49.4540   16.3940  -11.5700 O.3   236  TYR236     -0.2866
    100  N         44.8730   19.3040  -12.7630 N.am  237  VAL237     -0.1963
    101  CA        43.8010   18.5690  -12.0920 C.3   237  VAL237      0.1727
    102  C         42.9620   19.4250  -11.1430 C.2   237  VAL237      0.2616
    103  O         41.7650   19.2650  -11.0800 O.2   237  VAL237     -0.2715
    104  CB        44.3400   17.3210  -11.3320 C.3   237  VAL237      0.0290
    105  CG1       45.1990   17.7140  -10.1290 C.3   237  VAL237      0.0023
    106  CG2       43.1830   16.4340  -10.8850 C.3   237  VAL237      0.0023
    107  N         43.5870   20.3540  -10.4310 N.am  238  TRP238     -0.1974
    108  CA        42.9210   21.0110   -9.2960 C.3   238  TRP238      0.1640
    109  C         41.6770   21.7950   -9.7320 C.2   238  TRP238      0.2290
    110  O         40.5820   21.5130   -9.2550 O.2   238  TRP238     -0.2864
    111  CB        43.9040   21.8780   -8.4900 C.3   238  TRP238      0.0576
    112  CG        45.2410   21.2020   -8.2310 C.ar  238  TRP238      0.0006
    113  CD1       46.4620   21.5980   -8.7030 C.ar  238  TRP238      0.0946
    114  CD2       45.4750   20.0030   -7.4850 C.ar  238  TRP238      0.0152
    115  NE1       47.4410   20.7290   -8.2840 N.ar  238  TRP238     -0.2442
    116  CE2       46.8600   19.7400   -7.5360 C.ar  238  TRP238      0.0810
    117  CE3       44.6490   19.1270   -6.7760 C.ar  238  TRP238      0.0012
    118  CZ2       47.4350   18.6320   -6.9120 C.ar  238  TRP238      0.0191
    119  CZ3       45.2090   18.0400   -6.1500 C.ar  238  TRP238      0.0001
    120  CH2       46.5950   17.7950   -6.2160 C.ar  238  TRP238      0.0015
    121  N         40.3040   21.7220  -12.7100 N.3   240  ASP240     -0.1225
    122  CA        39.4880   20.8870  -13.5890 C.3   240  ASP240      0.1805
    123  C         38.5840   19.9710  -12.7430 C.2   240  ASP240      0.2598
    124  O         37.3520   20.0930  -12.7790 O.2   240  ASP240     -0.2718
    125  CB        40.3810   20.0600  -14.5270 C.3   240  ASP240      0.1424
    126  CG        39.5830   19.2040  -15.5180 C.2   240  ASP240      0.3668
    127  OD1       38.3410   19.1630  -15.4290 O.co2 240  ASP240     -0.2456
    128  OD2       40.2070   18.5680  -16.3910 O.co2 240  ASP240     -0.2456
    129  N         39.1940   19.0660  -11.9780 N.am  241  ALA241     -0.1966
    130  CA        38.4210   18.0240  -11.2840 C.3   241  ALA241      0.1728
    131  C         37.5090   18.5560  -10.1640 C.2   241  ALA241      0.2616
    132  O         36.3560   18.1610  -10.0830 O.2   241  ALA241     -0.2715
    133  CB        39.3440   16.9340  -10.7510 C.3   241  ALA241      0.0334
    134  N         38.0160   19.4460   -9.3160 N.am  242  LEU242     -0.1977
    135  CA        37.2490   19.9090   -8.1570 C.3   242  LEU242      0.1596
    136  C         36.0610   20.7380   -8.5930 C.2   242  LEU242      0.2287
    137  O         35.0060   20.7080   -7.9650 O.2   242  LEU242     -0.2864
    138  CB        38.1280   20.6950   -7.1780 C.3   242  LEU242      0.0297
    139  CG        39.1850   19.8030   -6.5110 C.3   242  LEU242      0.0022
    140  CD1       40.2520   20.6200   -5.8110 C.3   242  LEU242      0.0001
    141  CD2       38.5360   18.8370   -5.5320 C.3   242  LEU242      0.0001
    142  N         34.0360   20.1190  -10.8070 N.3   244  ASN244     -0.1225
    143  CA        32.8960   19.3060  -11.2540 C.3   244  ASN244      0.1785
    144  C         31.6650   19.5110  -10.3680 C.2   244  ASN244      0.2597
    145  O         30.5290   19.4200  -10.8390 O.2   244  ASN244     -0.2718
    146  CB        33.2680   17.8230  -11.2960 C.3   244  ASN244      0.1169
    147  CG        33.0280   17.1170   -9.9730 C.2   244  ASN244      0.2627
    148  OD1       31.9350   16.6330   -9.7150 O.2   244  ASN244     -0.2716
    149  ND2       34.0560   17.0440   -9.1350 N.am  244  ASN244     -0.0877
    150  N         31.9030   19.7790   -9.0860 N.am  245  TYR245     -0.1976
    151  CA        30.8350   20.0020   -8.1210 C.3   245  TYR245      0.1639
    152  C         30.0640   21.2780   -8.4660 C.2   245  TYR245      0.2290
    153  O         28.8480   21.3370   -8.3360 O.2   245  TYR245     -0.2864
    154  CB        31.4000   20.1010   -6.6980 C.3   245  TYR245      0.0560
    155  CG        32.2420   18.9180   -6.2320 C.ar  245  TYR245     -0.0198
    156  CD1       31.7510   17.6170   -6.2820 C.ar  245  TYR245     -0.0009
    157  CD2       33.5150   19.1090   -5.7310 C.ar  245  TYR245     -0.0009
    158  CE1       32.5150   16.5400   -5.8560 C.ar  245  TYR245      0.0417
    159  CE2       34.2920   18.0420   -5.2960 C.ar  245  TYR245      0.0417
    160  CZ        33.7870   16.7580   -5.3530 C.ar  245  TYR245      0.1957
    161  OH        34.5580   15.7120   -4.9140 O.3   245  TYR245     -0.2866
    162  N         42.4990    9.9040    1.2450 N.3   282  ASP282     -0.1225
    163  CA        43.6310   10.2600    0.3770 C.3   282  ASP282      0.1805
    164  C         43.5350   11.6280   -0.3180 C.2   282  ASP282      0.2597
    165  O         44.5540   12.1960   -0.6920 O.2   282  ASP282     -0.2718
    166  CB        43.8460    9.1570   -0.6800 C.3   282  ASP282      0.1424
    167  CG        42.5680    8.8500   -1.5200 C.2   282  ASP282      0.3668
    168  OD1       41.4800    8.5050   -0.9750 O.co2 282  ASP282     -0.2456
    169  OD2       42.6720    8.9240   -2.7600 O.co2 282  ASP282     -0.2456
    170  N         42.3210   12.1560   -0.4770 N.am  283  ILE283     -0.1980
    171  CA        42.1090   13.4340   -1.1460 C.3   283  ILE283      0.1595
    172  C         41.4720   14.4960   -0.2220 C.2   283  ILE283      0.2287
    173  O         40.9300   15.5030   -0.6950 O.2   283  ILE283     -0.2864
    174  CB        41.2790   13.2400   -2.4280 C.3   283  ILE283      0.0276
    175  CG1       39.8600   12.7550   -2.1120 C.3   283  ILE283      0.0022
    176  CG2       41.9910   12.2530   -3.3460 C.3   283  ILE283      0.0022
    177  CD1       39.0630   12.3110   -3.3190 C.3   283  ILE283      0.0001
    178  N         42.9080   18.0430   -0.5760 N.3   286  PHE286     -0.1227
    179  CA        42.5150   18.7060   -1.8140 C.3   286  PHE286      0.1736
    180  C         41.1220   19.3160   -1.6590 C.2   286  PHE286      0.2595
    181  O         40.8610   20.4340   -2.1300 O.2   286  PHE286     -0.2718
    182  CB        42.5690   17.7510   -3.0040 C.3   286  PHE286      0.0547
    183  CG        43.8450   16.9630   -3.1060 C.ar  286  PHE286     -0.0202
    184  CD1       45.0600   17.4910   -2.6930 C.ar  286  PHE286     -0.0042
    185  CD2       43.8330   15.6850   -3.6410 C.ar  286  PHE286     -0.0042
    186  CE1       46.2270   16.7550   -2.7960 C.ar  286  PHE286     -0.0003
    187  CE2       45.0040   14.9430   -3.7430 C.ar  286  PHE286     -0.0003
    188  CZ        46.2020   15.4860   -3.3310 C.ar  286  PHE286     -0.0000
    189  N         40.2480   18.6030   -0.9570 N.am  287  HIS287     -0.1975
    190  CA        38.8690   19.0570   -0.7650 C.3   287  HIS287      0.1656
    191  C         38.6680   20.0270    0.3950 C.2   287  HIS287      0.2291
    192  O         37.7380   20.8330    0.3600 O.2   287  HIS287     -0.2864
    193  CB        37.9530   17.8520   -0.5870 C.3   287  HIS287      0.0771
    194  CG        37.6990   17.1140   -1.8590 C.ar  287  HIS287      0.0820
    195  ND1       38.6640   16.3590   -2.4780 N.ar  287  HIS287     -0.2267
    196  CD2       36.5930   17.0270   -2.6330 C.ar  287  HIS287      0.1154
    197  CE1       38.1660   15.8380   -3.5840 C.ar  287  HIS287      0.1986
    198  NE2       36.9100   16.2310   -3.7010 N.ar  287  HIS287     -0.2212
@<TRIPOS>BOND
     1    79    78    2
     2    71    70    2
     3    76    77    1
     4    70    69    1
     5    78    77    1
     6    77    80    1
     7    68    69    1
     8    45    43   ar
     9    45    44   ar
    10    69    72    1
    11    43    41   ar
    12    72    73    1
    13    44    42   ar
    14    49    48    2
    15    41    42   ar
    16    41    40    1
    17    73    74    1
    18    73    75    1
    19    53    52    2
    20    48    47    1
    21    46    47    1
    22    46    38   am
    23    37    40    1
    24    37    38    1
    25    37    36    1
    26    52    51    1
    27    81    82    1
    28    38    39    2
    29    50    51    1
    30    51    54    1
    31    87    85    1
    32    84    83    2
    33    82    85    1
    34    82    83    1
    35    85    86    1
    36   128   126   ar
    37    54    55    1
    38    83    88   am
    39    27    26    1
    40    55    56    1
    41   126   127   ar
    42   126   125    1
    43    30    31    2
    44    30    29    1
    45    88    89    1
    46    26    24   ar
    47    26    25   ar
    48    24    22   ar
    49   125   122    1
    50    89    92    1
    51    89    90    1
    52    29    28    1
    53    29    32    1
    54    25    23   ar
    55    67    65   ar
    56    56    57    1
    57    34    33   ar
    58    94    96   ar
    59    94    93   ar
    60    22    21   ar
    61    58    57    1
    62    18    19    2
    63    18    17    1
    64   122   123    1
    65   122   121    1
    66    92    93    1
    67    65    66   ar
    68    65    64    1
    69    91    90    2
    70    90   100   am
    71    96    98   ar
    72    23    21   ar
    73    64    63    1
    74    21    20    1
    75    93    95   ar
    76    33    32    1
    77    33    35   ar
    78   124   123    2
    79   100   101    1
    80   123   129   am
    81    17    20    1
    82    17    16    1
    83    63    60    1
    84    60    59    1
    85    60    61    1
    86   101   104    1
    87   101   102    1
    88    98    99    1
    89    98    97   ar
    90   129   130    1
    91    15    13    1
    92    95    97   ar
    93   104   106    1
    94   104   105    1
    95   146   143    1
    96   146   147    1
    97   130   133    1
    98   130   131    1
    99   143   142    1
   100   143   144    1
   101   102   103    2
   102   102   107   am
   103    61    62    2
   104   145   144    2
   105    12    14    1
   106    12    13    1
   107    12     9    1
   108   107   108    1
   109   144   150   am
   110   131   132    2
   111   131   134   am
   112   147   148    2
   113   147   149   am
   114    10     9    1
   115    10    11    2
   116   109   108    1
   117   109   110    2
   118     9     8    1
   119   134   135    1
   120   108   111    1
   121   150   151    1
   122   113   115   ar
   123   113   112   ar
   124   136   135    1
   125   136   137    2
   126   111   112    1
   127   152   153    2
   128   152   151    1
   129   115   116   ar
   130     8     3   am
   131   112   114   ar
   132   135   138    1
   133   151   154    1
   134     4     3    2
   135   116   114   ar
   136   116   118   ar
   137   114   117   ar
   138     3     2    1
   139   138   139    1
   140   118   120   ar
   141   117   119   ar
   142   154   155    1
   143   139   140    1
   144   139   141    1
   145   156   155   ar
   146   156   158   ar
   147   155   157   ar
   148   120   119   ar
   149     2     5    1
   150     2     1    1
   151   158   160   ar
   152   157   159   ar
   153     5     6    1
   154   160   159   ar
   155   160   161    1
   156     1     7    1
   157     7     6    1
   158   187   185   ar
   159   187   188   ar
   160   198   197   ar
   161   198   196   ar
   162   185   183   ar
   163   197   195   ar
   164   176   174    1
   165   188   186   ar
   166   177   175    1
   167   183   182    1
   168   183   184   ar
   169   182   179    1
   170   186   184   ar
   171   169   167   ar
   172   196   194   ar
   173   195   194   ar
   174   174   175    1
   175   174   171    1
   176   181   180    2
   177   194   193    1
   178   179   180    1
   179   179   178    1
   180   180   189   am
   181   167   168   ar
   182   167   166    1
   183   171   170    1
   184   171   172    1
   185   189   190    1
   186   190   193    1
   187   190   191    1
   188   173   172    2
   189   165   164    2
   190   166   163    1
   191   170   164   am
   192   164   163    1
   193   192   191    2
   194   163   162    1
