@<TRIPOS>MOLECULE
tmp/4mwcB00.pdb
 190 186 0 0 0
SMALL
GASTEIGER

@<TRIPOS>ATOM
      1  N        -33.5510   11.3330    5.0850 N.3    16  PRO16      -0.2102
      2  CA       -34.6290   11.8510    5.9270 C.3    16  PRO16       0.1504
      3  C        -34.3180   11.4810    7.3650 C.2    16  PRO16       0.2575
      4  O        -33.4960   10.5890    7.5930 O.2    16  PRO16      -0.2718
      5  CB       -35.8710   11.0910    5.4340 C.3    16  PRO16       0.0282
      6  CG       -35.4730   10.4300    4.1390 C.3    16  PRO16       0.0208
      7  CD       -33.9900   10.2100    4.2370 C.3    16  PRO16       0.0893
      8  N        -34.9400   12.1610    8.3220 N.am   17  ILE17      -0.1980
      9  CA       -35.0050   11.6500    9.6900 C.3    17  ILE17       0.1595
     10  C        -36.2740   10.8050    9.8260 C.2    17  ILE17       0.2287
     11  O        -37.3100   11.1220    9.2600 O.2    17  ILE17      -0.2864
     12  CB       -34.9480   12.7680   10.7370 C.3    17  ILE17       0.0276
     13  CG1      -36.1080   13.7600   10.5540 C.3    17  ILE17       0.0022
     14  CG2      -33.6060   13.4860   10.6390 C.3    17  ILE17       0.0022
     15  CD1      -36.2480   14.7760   11.6710 C.3    17  ILE17       0.0001
     16  N        -39.3600    8.3860   11.5510 N.3    19  TYR19      -0.1241
     17  CA       -40.3020    8.4200   12.6660 C.3    19  TYR19       0.1605
     18  C        -40.1600    7.2130   13.5960 C.2    19  TYR19       0.2264
     19  O        -40.0870    6.0710   13.1430 O.2    19  TYR19      -0.2867
     20  CB       -41.7500    8.5270   12.1580 C.3    19  TYR19       0.0534
     21  CG       -42.6680    9.2460   13.1230 C.ar   19  TYR19      -0.0201
     22  CD1      -42.2540   10.4210   13.7510 C.ar   19  TYR19      -0.0009
     23  CD2      -43.9440    8.7710   13.4030 C.ar   19  TYR19      -0.0009
     24  CE1      -43.0740   11.0890   14.6360 C.ar   19  TYR19       0.0417
     25  CE2      -44.7760    9.4480   14.2920 C.ar   19  TYR19       0.0417
     26  CZ       -44.3320   10.6100   14.8980 C.ar   19  TYR19       0.1957
     27  OH       -45.1120   11.3220   15.7870 O.3    19  TYR19      -0.2866
     28  N        -37.0410   11.5050   13.8120 N.3    56  ASP56      -0.1239
     29  CA       -38.1230   12.4540   14.0610 C.3    56  ASP56       0.1674
     30  C        -38.8610   11.8940   15.2720 C.2    56  ASP56       0.2266
     31  O        -39.4640   10.8280   15.1830 O.2    56  ASP56      -0.2867
     32  CB       -39.0280   12.5030   12.8200 C.3    56  ASP56       0.1410
     33  CG       -40.2580   13.4030   12.9820 C.2    56  ASP56       0.3668
     34  OD1      -40.4890   14.0120   14.0470 O.co2  56  ASP56      -0.2456
     35  OD2      -41.0240   13.5060   12.0120 O.co2  56  ASP56      -0.2456
     36  N        -40.9390   13.7110   17.9410 N.3    58  HIS58      -0.1226
     37  CA       -42.0820   14.3700   18.5780 C.3    58  HIS58       0.1752
     38  C        -43.4220   13.9360   17.9950 C.2    58  HIS58       0.2596
     39  O        -43.4750   13.2100   17.0090 O.2    58  HIS58      -0.2718
     40  CB       -41.9530   15.8880   18.4450 C.3    58  HIS58       0.0759
     41  CG       -40.7960   16.4680   19.1950 C.ar   58  HIS58       0.0818
     42  ND1      -39.8590   17.2810   18.5970 N.ar   58  HIS58      -0.2268
     43  CD2      -40.4180   16.3520   20.4890 C.ar   58  HIS58       0.1154
     44  CE1      -38.9600   17.6460   19.4900 C.ar   58  HIS58       0.1986
     45  NE2      -39.2720   17.0950   20.6450 N.ar   58  HIS58      -0.2212
     46  N        -44.5090   14.3860   18.6230 N.am   59  GLY59      -0.1957
     47  CA       -45.8510   14.2150   18.0640 C.3    59  GLY59       0.1869
     48  C        -46.7510   13.2530   18.8050 C.2    59  GLY59       0.2309
     49  O        -46.3010   12.4530   19.6350 O.2    59  GLY59      -0.2863
     50  N        -48.4740   10.5420   18.0320 N.3    61  LYS61      -0.1245
     51  CA       -48.3480    9.0890   17.8600 C.3    61  LYS61       0.1561
     52  C        -47.1960    8.4640   18.6590 C.2    61  LYS61       0.2260
     53  O        -47.3200    7.3270   19.1520 O.2    61  LYS61      -0.2867
     54  CB       -48.1980    8.7280   16.3840 C.3    61  LYS61       0.0271
     55  CG       -49.5010    8.7590   15.6110 C.3    61  LYS61       0.0035
     56  CD       -49.2430    8.7750   14.1110 C.3    61  LYS61       0.0206
     57  CE       -50.5440    8.6950   13.3260 C.3    61  LYS61       0.1093
     58  NZ       -51.5660    9.6900   13.7860 N.3    61  LYS61      -0.1314
     59  N        -54.4040   14.1420   11.7940 N.3   137  GLU137     -0.1245
     60  CA       -53.6430   15.3510   12.1430 C.3   137  GLU137      0.1567
     61  C        -53.7630   16.4380   11.0720 C.2   137  GLU137      0.2260
     62  O        -52.7980   17.1490   10.7910 O.2   137  GLU137     -0.2867
     63  CB       -52.1730   15.0070   12.4080 C.3   137  GLU137      0.0388
     64  CG       -51.9830   13.8140   13.3330 C.3   137  GLU137      0.1160
     65  CD       -50.5340   13.4030   13.5250 C.2   137  GLU137      0.3649
     66  OE1      -49.6150   14.1350   13.1120 O.co2 137  GLU137     -0.2457
     67  OE2      -50.3210   12.3200   14.0960 O.co2 137  GLU137     -0.2457
     68  N        -51.0220   17.2840   20.8500 N.3   222  LEU222     -0.1245
     69  CA       -49.7500   16.5760   20.7370 C.3   222  LEU222      0.1561
     70  C        -49.3480   15.9030   22.0410 C.2   222  LEU222      0.2260
     71  O        -48.2160   15.4280   22.1810 O.2   222  LEU222     -0.2867
     72  CB       -48.6420   17.5550   20.3110 C.3   222  LEU222      0.0270
     73  CG       -48.8840   18.3660   19.0260 C.3   222  LEU222      0.0019
     74  CD1      -47.6150   19.0750   18.5860 C.3   222  LEU222      0.0001
     75  CD2      -49.3950   17.4710   17.9000 C.3   222  LEU222      0.0001
     76  N        -43.7430   17.8380   22.1250 N.3   226  ALA226     -0.1245
     77  CA       -43.3950   18.6870   20.9880 C.3   226  ALA226      0.1562
     78  C        -42.6700   19.9410   21.4610 C.2   226  ALA226      0.2260
     79  O        -42.5280   20.1650   22.6570 O.2   226  ALA226     -0.2867
     80  CB       -44.6520   19.0700   20.2340 C.3   226  ALA226      0.0290
     81  N        -44.9550   23.5550   17.9640 N.3   236  VAL236     -0.1231
     82  CA       -44.4860   23.5690   16.5940 C.3   236  VAL236      0.1692
     83  C        -44.7850   22.1970   16.0270 C.2   236  VAL236      0.2592
     84  O        -44.3150   21.1720   16.5670 O.2   236  VAL236     -0.2718
     85  CB       -42.9780   23.8290   16.5420 C.3   236  VAL236      0.0266
     86  CG1      -42.4630   23.7380   15.1150 C.3   236  VAL236      0.0020
     87  CG2      -42.6590   25.1800   17.1620 C.3   236  VAL236      0.0020
     88  N        -45.5740   22.1650   14.9550 N.am  237  TYR237     -0.1962
     89  CA       -45.9830   20.8970   14.3430 C.3   237  TYR237      0.1771
     90  C        -44.8340   20.3580   13.4640 C.2   237  TYR237      0.2619
     91  O        -43.7410   20.9350   13.4610 O.2   237  TYR237     -0.2715
     92  CB       -47.3190   21.0760   13.6000 C.3   237  TYR237      0.0574
     93  CG       -47.9350   19.8010   13.0650 C.ar  237  TYR237     -0.0198
     94  CD1      -48.1260   18.6930   13.8790 C.ar  237  TYR237     -0.0009
     95  CD2      -48.3230   19.7060   11.7260 C.ar  237  TYR237     -0.0009
     96  CE1      -48.6780   17.5320   13.3820 C.ar  237  TYR237      0.0417
     97  CE2      -48.8860   18.5500   11.2200 C.ar  237  TYR237      0.0417
     98  CZ       -49.0610   17.4680   12.0490 C.ar  237  TYR237      0.1957
     99  OH       -49.6100   16.3200   11.5260 O.3   237  TYR237     -0.2866
    100  N        -45.0580   19.2590   12.7470 N.am  238  VAL238     -0.1963
    101  CA       -43.9620   18.5140   12.1050 C.3   238  VAL238      0.1727
    102  C        -43.1110   19.2830   11.0830 C.2   238  VAL238      0.2616
    103  O        -41.9160   19.0190   10.9540 O.2   238  VAL238     -0.2715
    104  CB       -44.4760   17.2220   11.4180 C.3   238  VAL238      0.0290
    105  CG1      -45.3060   17.5560   10.1740 C.3   238  VAL238      0.0023
    106  CG2      -43.3050   16.3030   11.0760 C.3   238  VAL238      0.0023
    107  N        -43.7220   20.2120   10.3570 N.am  239  TRP239     -0.1974
    108  CA       -43.0460   20.8480    9.2260 C.3   239  TRP239      0.1640
    109  C        -41.7830   21.5820    9.6960 C.2   239  TRP239      0.2290
    110  O        -40.6870   21.2250    9.2850 O.2   239  TRP239     -0.2864
    111  CB       -44.0030   21.7620    8.4220 C.3   239  TRP239      0.0576
    112  CG       -45.3570   21.1170    8.1670 C.ar  239  TRP239      0.0006
    113  CD1      -46.5710   21.5400    8.6310 C.ar  239  TRP239      0.0946
    114  CD2      -45.6140   19.9070    7.4310 C.ar  239  TRP239      0.0152
    115  NE1      -47.5650   20.6870    8.2100 N.ar  239  TRP239     -0.2442
    116  CE2      -47.0050   19.6770    7.4770 C.ar  239  TRP239      0.0810
    117  CE3      -44.8060   19.0110    6.7180 C.ar  239  TRP239      0.0012
    118  CZ2      -47.6010   18.5820    6.8520 C.ar  239  TRP239      0.0191
    119  CZ3      -45.4030   17.9310    6.0890 C.ar  239  TRP239      0.0001
    120  CH2      -46.7860   17.7220    6.1640 C.ar  239  TRP239      0.0015
    121  N        -40.3710   21.5470   12.6020 N.3   241  ASP241     -0.1225
    122  CA       -39.5790   20.7270   13.5000 C.3   241  ASP241      0.1805
    123  C        -38.6950   19.8070   12.6600 C.2   241  ASP241      0.2598
    124  O        -37.4660   19.9220   12.6820 O.2   241  ASP241     -0.2718
    125  CB       -40.5030   19.9170   14.4190 C.3   241  ASP241      0.1424
    126  CG       -39.7400   19.0330   15.3880 C.2   241  ASP241      0.3668
    127  OD1      -38.5160   18.8260   15.1910 O.co2 241  ASP241     -0.2456
    128  OD2      -40.3750   18.5320   16.3450 O.co2 241  ASP241     -0.2456
    129  N        -39.3300   18.9120   11.9060 N.am  242  ALA242     -0.1966
    130  CA       -38.6070   17.8930   11.1600 C.3   242  ALA242      0.1728
    131  C        -37.7290   18.4330   10.0130 C.2   242  ALA242      0.2616
    132  O        -36.5770   18.0360    9.8920 O.2   242  ALA242     -0.2715
    133  CB       -39.5680   16.8390   10.6390 C.3   242  ALA242      0.0334
    134  N        -38.2590   19.3140    9.1690 N.am  243  LEU243     -0.1977
    135  CA       -37.4820   19.7720    8.0220 C.3   243  LEU243      0.1596
    136  C        -36.2360   20.4930    8.5170 C.2   243  LEU243      0.2287
    137  O        -35.1510   20.3660    7.9440 O.2   243  LEU243     -0.2864
    138  CB       -38.3020   20.6540    7.0780 C.3   243  LEU243      0.0297
    139  CG       -39.3810   19.8970    6.2940 C.3   243  LEU243      0.0022
    140  CD1      -40.4340   20.8310    5.7050 C.3   243  LEU243      0.0001
    141  CD2      -38.7880   19.0320    5.1900 C.3   243  LEU243      0.0001
    142  N        -32.1480   19.4770    9.0870 N.3   246  TYR246     -0.1241
    143  CA       -31.0780   19.6870    8.1190 C.3   246  TYR246      0.1605
    144  C        -30.2880   20.9650    8.3970 C.2   246  TYR246      0.2264
    145  O        -29.0730   20.9940    8.2430 O.2   246  TYR246     -0.2867
    146  CB       -31.6530   19.7460    6.7060 C.3   246  TYR246      0.0534
    147  CG       -32.5050   18.5580    6.2980 C.ar  246  TYR246     -0.0201
    148  CD1      -32.0760   17.2460    6.5160 C.ar  246  TYR246     -0.0009
    149  CD2      -33.7220   18.7470    5.6600 C.ar  246  TYR246     -0.0009
    150  CE1      -32.8470   16.1600    6.1240 C.ar  246  TYR246      0.0417
    151  CE2      -34.5030   17.6680    5.2650 C.ar  246  TYR246      0.0417
    152  CZ       -34.0630   16.3760    5.4960 C.ar  246  TYR246      0.1957
    153  OH       -34.8400   15.3130    5.0970 O.3   246  TYR246     -0.2866
    154  N        -42.5230    9.7870   -1.2570 N.3   283  ASP283     -0.1225
    155  CA       -43.6720   10.1250   -0.3960 C.3   283  ASP283      0.1805
    156  C        -43.5600   11.4470    0.3580 C.2   283  ASP283      0.2597
    157  O        -44.5680   11.9840    0.8110 O.2   283  ASP283     -0.2718
    158  CB       -43.9460    8.9860    0.6180 C.3   283  ASP283      0.1424
    159  CG       -42.7580    8.7370    1.6170 C.2   283  ASP283      0.3668
    160  OD1      -41.5680    8.6210    1.2070 O.co2 283  ASP283     -0.2456
    161  OD2      -43.0430    8.6120    2.8370 O.co2 283  ASP283     -0.2456
    162  N        -42.3440   11.9640    0.5130 N.am  284  ILE284     -0.1980
    163  CA       -42.1370   13.2510    1.1740 C.3   284  ILE284      0.1595
    164  C        -41.5170   14.2890    0.2390 C.2   284  ILE284      0.2287
    165  O        -40.9010   15.2590    0.6960 O.2   284  ILE284     -0.2864
    166  CB       -41.3030   13.0820    2.4580 C.3   284  ILE284      0.0276
    167  CG1      -39.8610   12.6330    2.1500 C.3   284  ILE284      0.0022
    168  CG2      -41.9990   12.0850    3.3690 C.3   284  ILE284      0.0022
    169  CD1      -39.0830   12.1850    3.3740 C.3   284  ILE284      0.0001
    170  N        -42.9160   18.0010    0.6590 N.3   287  PHE287     -0.1227
    171  CA       -42.5050   18.6260    1.9170 C.3   287  PHE287      0.1736
    172  C        -41.1280   19.2450    1.7560 C.2   287  PHE287      0.2595
    173  O        -40.8470   20.3070    2.3190 O.2   287  PHE287     -0.2718
    174  CB       -42.4810   17.5960    3.0550 C.3   287  PHE287      0.0547
    175  CG       -43.7460   16.7840    3.1820 C.ar  287  PHE287     -0.0202
    176  CD1      -44.9830   17.3050    2.8060 C.ar  287  PHE287     -0.0042
    177  CD2      -43.7020   15.4980    3.7030 C.ar  287  PHE287     -0.0042
    178  CE1      -46.1390   16.5570    2.9440 C.ar  287  PHE287     -0.0003
    179  CE2      -44.8630   14.7430    3.8360 C.ar  287  PHE287     -0.0003
    180  CZ       -46.0810   15.2740    3.4620 C.ar  287  PHE287     -0.0000
    181  N        -40.2950   18.5740    0.9600 N.am  288  HIS288     -0.1975
    182  CA       -38.9180   18.9850    0.6830 C.3   288  HIS288      0.1656
    183  C        -38.7610   19.9160   -0.5310 C.2   288  HIS288      0.2291
    184  O        -37.8380   20.7150   -0.5770 O.2   288  HIS288     -0.2864
    185  CB       -38.0690   17.7330    0.4650 C.3   288  HIS288      0.0771
    186  CG       -37.7790   16.9790    1.7220 C.ar  288  HIS288      0.0820
    187  ND1      -38.6770   16.1060    2.2820 N.ar  288  HIS288     -0.2267
    188  CD2      -36.6890   16.9690    2.5250 C.ar  288  HIS288      0.1154
    189  CE1      -38.1610   15.5950    3.3850 C.ar  288  HIS288      0.1986
    190  NE2      -36.9580   16.1110    3.5590 N.ar  288  HIS288     -0.2212
@<TRIPOS>BOND
     1   154   155    1
     2   184   183    2
     3   183   182    1
     4   155   156    1
     5   155   158    1
     6   164   165    2
     7   164   163    1
     8   156   162   am
     9   156   157    2
    10   185   182    1
    11   185   186    1
    12   162   163    1
    13   158   159    1
    14   170   171    1
    15   182   181    1
    16   181   172   am
    17   163   166    1
    18   160   159   ar
    19   159   161   ar
    20   186   187   ar
    21   186   188   ar
    22   172   171    1
    23   172   173    2
    24   171   174    1
    25   167   166    1
    26   167   169    1
    27   187   189   ar
    28   166   168    1
    29   188   190   ar
    30   176   178   ar
    31   176   175   ar
    32   178   180   ar
    33   174   175    1
    34   175   177   ar
    35   189   190   ar
    36   180   179   ar
    37   177   179   ar
    38     6     7    1
    39     6     5    1
    40     7     1    1
    41     1     2    1
    42   153   152    1
    43   141   139    1
    44   151   152   ar
    45   151   149   ar
    46     5     2    1
    47   152   150   ar
    48   149   147   ar
    49   140   139    1
    50     2     3    1
    51   119   120   ar
    52   119   117   ar
    53   150   148   ar
    54   120   118   ar
    55   139   138    1
    56   147   148   ar
    57   147   146    1
    58   146   143    1
    59   117   114   ar
    60   118   116   ar
    61   138   135    1
    62     3     4    2
    63     3     8   am
    64   114   116   ar
    65   114   112   ar
    66   116   115   ar
    67   137   136    2
    68   135   136    1
    69   135   134    1
    70   143   144    1
    71   143   142    1
    72   112   111    1
    73   112   113   ar
    74   115   113   ar
    75   145   144    2
    76     8     9    1
    77   111   108    1
    78   134   131   am
    79   108   109    1
    80   108   107    1
    81    11    10    2
    82   110   109    2
    83     9    10    1
    84     9    12    1
    85   132   131    2
    86   131   130    1
    87   105   104    1
    88   107   102   am
    89    13    12    1
    90    13    15    1
    91   133   130    1
    92    14    12    1
    93    62    61    2
    94   103   102    2
    95    61    60    1
    96   106   104    1
    97   102   101    1
    98   130   129    1
    99    97    95   ar
   100    97    98   ar
   101   104   101    1
   102    99    98    1
   103    16    17    1
   104    95    93   ar
   105    59    60    1
   106   129   123   am
   107    35    33   ar
   108    98    96   ar
   109   101   100    1
   110    60    63    1
   111    20    17    1
   112    20    21    1
   113    63    64    1
   114   121   122    1
   115   123   124    2
   116   123   122    1
   117    17    18    1
   118   100    90   am
   119    32    33    1
   120    32    29    1
   121    33    34   ar
   122    93    92    1
   123    93    94   ar
   124    66    65   ar
   125    21    23   ar
   126    21    22   ar
   127    19    18    2
   128    57    58    1
   129    57    56    1
   130    64    65    1
   131    96    94   ar
   132    23    25   ar
   133    91    90    2
   134    90    89    1
   135   122   125    1
   136    65    67   ar
   137    92    89    1
   138    22    24   ar
   139    28    29    1
   140    29    30    1
   141    56    55    1
   142    25    26   ar
   143    89    88    1
   144   125   126    1
   145    24    26   ar
   146    26    27    1
   147    88    83   am
   148    86    85    1
   149    31    30    2
   150   127   126   ar
   151   126   128   ar
   152    55    54    1
   153    83    84    2
   154    83    82    1
   155    54    51    1
   156    85    82    1
   157    85    87    1
   158    82    81    1
   159    39    38    2
   160    51    50    1
   161    51    52    1
   162    75    73    1
   163    36    37    1
   164    38    37    1
   165    38    46   am
   166    47    46    1
   167    47    48    1
   168    40    37    1
   169    40    41    1
   170    74    73    1
   171    42    41   ar
   172    42    44   ar
   173    52    53    2
   174    48    49    2
   175    73    72    1
   176    41    43   ar
   177    44    45   ar
   178    80    77    1
   179    72    69    1
   180    43    45   ar
   181    69    68    1
   182    69    70    1
   183    77    78    1
   184    77    76    1
   185    78    79    2
   186    70    71    2
