@<TRIPOS>MOLECULE
tmp/4mwdB01.pdb
 172 175 0 0 0
SMALL
GASTEIGER

@<TRIPOS>ATOM
      1  N        -33.5450   11.6360    5.0230 N.3    16  PRO16      -0.2102
      2  CA       -34.6230   12.1540    5.8560 C.3    16  PRO16       0.1504
      3  C        -34.3700   11.7300    7.2970 C.2    16  PRO16       0.2576
      4  O        -33.5850   10.8140    7.5380 O.2    16  PRO16      -0.2718
      5  CB       -35.8800   11.4430    5.3090 C.3    16  PRO16       0.0282
      6  CG       -35.4420   10.6660    4.1000 C.3    16  PRO16       0.0208
      7  CD       -33.9700   10.4440    4.2710 C.3    16  PRO16       0.0893
      8  N        -35.0020   12.3990    8.2510 N.am   17  ILE17      -0.1966
      9  CA       -35.0030   11.8810    9.6170 C.3    17  ILE17       0.1727
     10  C        -36.2230   10.9700    9.7580 C.2    17  ILE17       0.2616
     11  O        -37.2720   11.2440    9.1900 O.2    17  ILE17      -0.2715
     12  CB       -34.9680   12.9800   10.6810 C.3    17  ILE17       0.0290
     13  CG1      -36.1060   13.9920   10.4810 C.3    17  ILE17       0.0022
     14  CG2      -33.6070   13.6660   10.6630 C.3    17  ILE17       0.0023
     15  CD1      -36.3000   14.8920   11.6860 C.3    17  ILE17       0.0001
     16  N        -36.0650    9.8720   10.4830 N.am   18  TYR18      -0.1960
     17  CA       -37.0690    8.8190   10.4820 C.3    18  TYR18       0.1771
     18  C        -37.9050    8.8340   11.7520 C.2    18  TYR18       0.2619
     19  O        -37.4250    9.1930   12.8110 O.2    18  TYR18      -0.2715
     20  CB       -36.3920    7.4660   10.2760 C.3    18  TYR18       0.0574
     21  CG       -35.4720    7.4700    9.0840 C.ar   18  TYR18      -0.0198
     22  CD1      -35.9770    7.5790    7.7970 C.ar   18  TYR18      -0.0009
     23  CD2      -34.0950    7.3930    9.2460 C.ar   18  TYR18      -0.0009
     24  CE1      -35.1340    7.6060    6.7020 C.ar   18  TYR18       0.0417
     25  CE2      -33.2440    7.4120    8.1610 C.ar   18  TYR18       0.0417
     26  CZ       -33.7650    7.5150    6.8850 C.ar   18  TYR18       0.1957
     27  OH       -32.9110    7.5480    5.7920 O.3    18  TYR18      -0.2866
     28  N        -39.1620    8.4320   11.6270 N.am   19  TYR19      -0.1974
     29  CA       -40.1050    8.5240   12.7120 C.3    19  TYR19       0.1639
     30  C        -39.9790    7.3250   13.6310 C.2    19  TYR19       0.2290
     31  O        -40.0090    6.1840   13.1870 O.2    19  TYR19      -0.2864
     32  CB       -41.5350    8.6500   12.1740 C.3    19  TYR19       0.0560
     33  CG       -42.4750    9.4060   13.0970 C.ar   19  TYR19      -0.0198
     34  CD1      -42.0600   10.5720   13.7340 C.ar   19  TYR19      -0.0009
     35  CD2      -43.7840    8.9790   13.3030 C.ar   19  TYR19      -0.0009
     36  CE1      -42.8980   11.2750   14.5690 C.ar   19  TYR19       0.0417
     37  CE2      -44.6390    9.6860   14.1380 C.ar   19  TYR19       0.0417
     38  CZ       -44.1860   10.8370   14.7710 C.ar   19  TYR19       0.1957
     39  OH       -45.0050   11.5640   15.6120 O.3    19  TYR19      -0.2866
     40  N        -41.9390    5.9090   15.7670 N.3    21  ASN21      -0.1225
     41  CA       -43.1010    5.0990   16.1410 C.3    21  ASN21       0.1785
     42  C        -43.0820    3.7340   15.4630 C.2    21  ASN21       0.2597
     43  O        -44.0710    3.0140   15.5100 O.2    21  ASN21      -0.2718
     44  CB       -44.4050    5.8030   15.7680 C.3    21  ASN21       0.1169
     45  CG       -44.6190    5.8440   14.2750 C.2    21  ASN21       0.2627
     46  OD1      -43.6630    5.8420   13.5250 O.2    21  ASN21      -0.2716
     47  ND2      -45.8650    5.8730   13.8440 N.am   21  ASN21      -0.0877
     48  N        -41.9850    3.3990   14.7900 N.am   22  ALA22      -0.1979
     49  CA       -41.7680    2.0360   14.3020 C.3    22  ALA22       0.1597
     50  C        -40.2780    1.7490   14.2280 C.2    22  ALA22       0.2287
     51  O        -39.4420    2.6720   14.1900 O.2    22  ALA22      -0.2864
     52  CB       -42.4260    1.8200   12.9430 C.3    22  ALA22       0.0319
     53  N        -36.4760   -0.4780    9.2680 N.3    25  HIS25      -0.1226
     54  CA       -36.8310   -1.4470    8.2430 C.3    25  HIS25       0.1752
     55  C        -36.1160   -1.0820    6.9300 C.2    25  HIS25       0.2596
     56  O        -35.4350   -0.0650    6.8370 O.2    25  HIS25      -0.2718
     57  CB       -38.3640   -1.5450    8.0530 C.3    25  HIS25       0.0759
     58  CG       -39.0400   -0.2520    7.6960 C.ar   25  HIS25       0.0818
     59  ND1      -38.6730    0.5140    6.6120 N.ar   25  HIS25      -0.2268
     60  CD2      -40.0980    0.3830    8.2560 C.ar   25  HIS25       0.1154
     61  CE1      -39.4490    1.5800    6.5380 C.ar   25  HIS25       0.1986
     62  NE2      -40.3210    1.5270    7.5300 N.ar   25  HIS25      -0.2212
     63  N        -36.2990   -1.9190    5.9230 N.am   26  ILE26      -0.1966
     64  CA       -35.6030   -1.7940    4.6530 C.3    26  ILE26       0.1727
     65  C        -35.6580   -0.4060    4.0170 C.2    26  ILE26       0.2617
     66  O        -34.6940    0.0360    3.3910 O.2    26  ILE26      -0.2715
     67  CB       -36.1240   -2.8440    3.6450 C.3    26  ILE26       0.0290
     68  CG1      -35.2800   -2.8300    2.3710 C.3    26  ILE26       0.0022
     69  CG2      -37.5920   -2.6140    3.3120 C.3    26  ILE26       0.0023
     70  CD1      -33.8080   -3.0930    2.6340 C.3    26  ILE26       0.0001
     71  N        -36.7930    0.2640    4.1450 N.am   27  GLY27      -0.1940
     72  CA       -36.9580    1.6100    3.6220 C.3    27  GLY27       0.2014
     73  C        -35.9940    2.6360    4.1780 C.2    27  GLY27       0.2638
     74  O        -35.4360    3.4330    3.4330 O.2    27  GLY27      -0.2714
     75  N        -35.7990    2.6190    5.4930 N.am   28  HIS28      -0.1973
     76  CA       -34.8230    3.5160    6.1270 C.3    28  HIS28       0.1656
     77  C        -33.4160    3.1570    5.6690 C.2    28  HIS28       0.2291
     78  O        -32.5840    4.0370    5.4190 O.2    28  HIS28      -0.2864
     79  CB       -34.8540    3.4130    7.6510 C.3    28  HIS28       0.0771
     80  CG       -36.2190    3.5040    8.2460 C.ar   28  HIS28       0.0820
     81  ND1      -36.7520    2.4910    9.0010 N.ar   28  HIS28      -0.2267
     82  CD2      -37.1530    4.4820    8.2140 C.ar   28  HIS28       0.1154
     83  CE1      -37.9640    2.8240    9.4000 C.ar   28  HIS28       0.1986
     84  NE2      -38.2320    4.0320    8.9360 N.ar   28  HIS28      -0.2212
     85  N        -32.4970    1.7350    2.8660 N.3    30  TYR30      -0.1227
     86  CA       -32.3200    2.1480    1.4710 C.3    30  TYR30       0.1736
     87  C        -32.0240    3.6440    1.3480 C.2    30  TYR30       0.2596
     88  O        -31.0390    4.0320    0.7150 O.2    30  TYR30      -0.2718
     89  CB       -33.5420    1.7850    0.6410 C.3    30  TYR30       0.0548
     90  CG       -33.4390    2.1590   -0.8200 C.ar   30  TYR30      -0.0200
     91  CD1      -32.3820    1.7000   -1.6100 C.ar   30  TYR30      -0.0009
     92  CD2      -34.4180    2.9450   -1.4290 C.ar   30  TYR30      -0.0009
     93  CE1      -32.2930    2.0410   -2.9520 C.ar   30  TYR30       0.0417
     94  CE2      -34.3340    3.2820   -2.7700 C.ar   30  TYR30       0.0417
     95  CZ       -33.2760    2.8270   -3.5270 C.ar   30  TYR30       0.1957
     96  OH       -33.2150    3.1540   -4.8620 O.3    30  TYR30      -0.2866
     97  N        -32.8510    4.4830    1.9690 N.am   31  SER31      -0.1952
     98  CA       -32.6360    5.9310    1.8980 C.3    31  SER31       0.1924
     99  C        -31.2760    6.3100    2.4390 C.2    31  SER31       0.2314
    100  O        -30.5540    7.1130    1.8250 O.2    31  SER31      -0.2863
    101  CB       -33.7140    6.6780    2.6700 C.3    31  SER31       0.2116
    102  OG       -34.9860    6.4150    2.1150 O.3    31  SER31      -0.2180
    103  N        -37.4000    9.7490   -0.0490 N.3   280  GLY280     -0.1225
    104  CA       -38.3470    8.9310   -0.8130 C.3   280  GLY280      0.1811
    105  C        -39.4000    9.8230   -1.4590 C.2   280  GLY280      0.2280
    106  O        -39.6280   10.9520   -1.0220 O.2   280  GLY280     -0.2866
    107  N        -42.4940    9.9270   -1.3280 N.3   282  ASP282     -0.1225
    108  CA       -43.6470   10.2950   -0.5020 C.3   282  ASP282      0.1805
    109  C        -43.5330   11.6660    0.1650 C.2   282  ASP282      0.2597
    110  O        -44.5490   12.2720    0.4680 O.2   282  ASP282     -0.2718
    111  CB       -43.9590    9.2090    0.5430 C.3   282  ASP282      0.1424
    112  CG       -42.7850    8.9080    1.4940 C.2   282  ASP282      0.3668
    113  OD1      -41.5950    8.9830    1.0970 O.co2 282  ASP282     -0.2456
    114  OD2      -43.0790    8.5350    2.6520 O.co2 282  ASP282     -0.2456
    115  N        -42.3160   12.1700    0.3480 N.am  283  ILE283     -0.1980
    116  CA       -42.0980   13.4560    1.0170 C.3   283  ILE283      0.1595
    117  C        -41.5100   14.5470    0.1040 C.2   283  ILE283      0.2287
    118  O        -41.0640   15.6070    0.5870 O.2   283  ILE283     -0.2864
    119  CB       -41.2260   13.2750    2.2780 C.3   283  ILE283      0.0276
    120  CG1      -39.8380   12.7550    1.9230 C.3   283  ILE283      0.0022
    121  CG2      -41.9040   12.3060    3.2380 C.3   283  ILE283      0.0022
    122  CD1      -38.9850   12.4490    3.1370 C.3   283  ILE283      0.0001
    123  N        -36.3850    8.9370   -4.4170 N.3   309  HIS309     -0.1226
    124  CA       -36.3200    7.5700   -4.9430 C.3   309  HIS309      0.1752
    125  C        -37.6680    6.8550   -4.8210 C.2   309  HIS309      0.2597
    126  O        -38.6150    7.4020   -4.2510 O.2   309  HIS309     -0.2718
    127  CB       -35.2280    6.7770   -4.2200 C.3   309  HIS309      0.0759
    128  CG       -35.4600    6.6370   -2.7450 C.ar  309  HIS309      0.0818
    129  ND1      -36.4170    5.8000   -2.2180 N.ar  309  HIS309     -0.2268
    130  CD2      -34.8550    7.2280   -1.6900 C.ar  309  HIS309      0.1154
    131  CE1      -36.3960    5.8880   -0.9010 C.ar  309  HIS309      0.1986
    132  NE2      -35.4550    6.7470   -0.5560 N.ar  309  HIS309     -0.2212
    133  N        -37.7420    5.6360   -5.3510 N.am  310  GLY310     -0.1942
    134  CA       -38.9730    4.8450   -5.3200 C.3   310  GLY310      0.2014
    135  C        -39.0810    3.9450   -4.1010 C.2   310  GLY310      0.2639
    136  O        -38.2570    4.0290   -3.1890 O.2   310  GLY310     -0.2714
    137  N        -40.1040    3.0960   -4.0990 N.am  311  TRP311     -0.1959
    138  CA       -40.3810    2.1600   -3.0060 C.3   311  TRP311      0.1771
    139  C        -40.1890    0.7240   -3.4990 C.2   311  TRP311      0.2619
    140  O        -40.6500    0.3740   -4.5780 O.2   311  TRP311     -0.2715
    141  CB       -41.8130    2.3550   -2.4860 C.3   311  TRP311      0.0590
    142  CG       -41.9780    3.5130   -1.5150 C.ar  311  TRP311      0.0006
    143  CD1      -41.0840    4.5320   -1.2630 C.ar  311  TRP311      0.0946
    144  CD2      -43.1180    3.7760   -0.6840 C.ar  311  TRP311      0.0152
    145  NE1      -41.5950    5.3960   -0.3210 N.ar  311  TRP311     -0.2442
    146  CE2      -42.8400    4.9580    0.0520 C.ar  311  TRP311      0.0810
    147  CE3      -44.3420    3.1230   -0.4780 C.ar  311  TRP311      0.0012
    148  CZ2      -43.7480    5.5000    0.9720 C.ar  311  TRP311      0.0191
    149  CZ3      -45.2450    3.6630    0.4440 C.ar  311  TRP311      0.0001
    150  CH2      -44.9410    4.8400    1.1540 C.ar  311  TRP311      0.0015
    151  N        -39.4880   -0.0890   -2.7110 N.am  312  TRP312     -0.1974
    152  CA       -39.2210   -1.4960   -3.0370 C.3   312  TRP312      0.1640
    153  C        -40.3800   -2.3980   -2.7270 C.2   312  TRP312      0.2290
    154  O        -41.1250   -2.1610   -1.7850 O.2   312  TRP312     -0.2864
    155  CB       -38.0230   -2.0290   -2.2410 C.3   312  TRP312      0.0576
    156  CG       -36.7220   -1.5060   -2.7220 C.ar  312  TRP312      0.0006
    157  CD1      -36.0890   -0.3970   -2.2970 C.ar  312  TRP312      0.0946
    158  CD2      -35.9050   -2.0770   -3.7410 C.ar  312  TRP312      0.0152
    159  NE1      -34.9080   -0.2320   -2.9780 N.ar  312  TRP312     -0.2442
    160  CE2      -34.7760   -1.2530   -3.8780 C.ar  312  TRP312      0.0810
    161  CE3      -36.0150   -3.2160   -4.5470 C.ar  312  TRP312      0.0012
    162  CZ2      -33.7640   -1.5210   -4.7890 C.ar  312  TRP312      0.0191
    163  CZ3      -35.0070   -3.4840   -5.4560 C.ar  312  TRP312      0.0001
    164  CH2      -33.8930   -2.6400   -5.5700 C.ar  312  TRP312      0.0015
    165  N        -43.9870   -5.1450    0.6410 N.3   319  ILE319     -0.1245
    166  CA       -43.2210   -5.5730    1.8090 C.3   319  ILE319      0.1561
    167  C        -44.0530   -5.2380    3.0290 C.2   319  ILE319      0.2260
    168  O        -44.5150   -4.1100    3.1600 O.2   319  ILE319     -0.2867
    169  CB       -41.8390   -4.8950    1.8670 C.3   319  ILE319      0.0252
    170  CG1      -40.9670   -5.4380    0.7350 C.3   319  ILE319      0.0019
    171  CG2      -41.1620   -5.1280    3.2130 C.3   319  ILE319      0.0019
    172  CD1      -39.7930   -4.5550    0.3810 C.3   319  ILE319      0.0001
@<TRIPOS>BOND
     1   164   163   ar
     2   164   162   ar
     3   163   161   ar
     4   133   134    1
     5   133   125   am
     6   134   135    1
     7   124   125    1
     8   124   123    1
     9   124   127    1
    10    96    95    1
    11   125   126    2
    12   162   160   ar
    13   140   139    2
    14   161   158   ar
    15   127   128    1
    16   135   137   am
    17   135   136    2
    18   137   138    1
    19   160   158   ar
    20   160   159   ar
    21   158   156   ar
    22    95    93   ar
    23    95    94   ar
    24   139   138    1
    25   139   151   am
    26   152   153    1
    27   152   151    1
    28   152   155    1
    29   138   141    1
    30   159   157   ar
    31    93    91   ar
    32    94    92   ar
    33   128   129   ar
    34   128   130   ar
    35   153   154    2
    36   156   157   ar
    37   156   155    1
    38   141   142    1
    39   129   131   ar
    40   130   132   ar
    41    91    90   ar
    42   142   143   ar
    43   142   144   ar
    44   105   106    2
    45   105   104    1
    46    92    90   ar
    47   107   108    1
    48   143   145   ar
    49   131   132   ar
    50    90    89    1
    51   104   103    1
    52   144   147   ar
    53   144   146   ar
    54   108   109    1
    55   108   111    1
    56   147   149   ar
    57   145   146   ar
    58   146   148   ar
    59   117   118    2
    60   117   116    1
    61   109   115   am
    62   109   110    2
    63   115   116    1
    64   172   170    1
    65   149   150   ar
    66   111   112    1
    67   165   166    1
    68    89    86    1
    69    88    87    2
    70   170   169    1
    71   148   150   ar
    72   116   119    1
    73   113   112   ar
    74    87    86    1
    75    87    97   am
    76    86    85    1
    77   112   114   ar
    78   166   169    1
    79   166   167    1
    80   100    99    2
    81   169   171    1
    82    98    97    1
    83    98    99    1
    84    98   101    1
    85   120   119    1
    86   120   122    1
    87   102   101    1
    88   119   121    1
    89    68    70    1
    90    68    67    1
    91   167   168    2
    92    69    67    1
    93    66    65    2
    94    74    73    2
    95    72    71    1
    96    72    73    1
    97    67    64    1
    98    65    71   am
    99    65    64    1
   100     6     7    1
   101     6     5    1
   102    73    75   am
   103     7     1    1
   104    64    63    1
   105     1     2    1
   106     5     2    1
   107    78    77    2
   108    75    76    1
   109    77    76    1
   110    27    26    1
   111     2     3    1
   112    63    55   am
   113    76    79    1
   114    61    59   ar
   115    61    62   ar
   116    59    58   ar
   117    24    26   ar
   118    24    22   ar
   119    56    55    2
   120    26    25   ar
   121    55    54    1
   122     3     4    2
   123     3     8   am
   124    62    60   ar
   125    79    80    1
   126    58    57    1
   127    58    60   ar
   128    22    21   ar
   129    57    54    1
   130    25    23   ar
   131    82    80   ar
   132    82    84   ar
   133    54    53    1
   134    80    81   ar
   135     8     9    1
   136    84    83   ar
   137    81    83   ar
   138    21    23   ar
   139    21    20    1
   140    11    10    2
   141     9    10    1
   142     9    12    1
   143    10    16   am
   144    20    17    1
   145    13    12    1
   146    13    15    1
   147    17    16    1
   148    17    18    1
   149    14    12    1
   150    28    18   am
   151    28    29    1
   152    18    19    2
   153    32    29    1
   154    32    33    1
   155    29    30    1
   156    52    49    1
   157    33    35   ar
   158    33    34   ar
   159    31    30    2
   160    35    37   ar
   161    46    45    2
   162    34    36   ar
   163    47    45   am
   164    37    38   ar
   165    51    50    2
   166    50    49    1
   167    45    44    1
   168    49    48    1
   169    36    38   ar
   170    38    39    1
   171    48    42   am
   172    42    43    2
   173    42    41    1
   174    40    41    1
   175    44    41    1
