@<TRIPOS>MOLECULE
tmp/4mwdB00.pdb
 219 218 0 0 0
SMALL
GASTEIGER

@<TRIPOS>ATOM
      1  N        -33.5450   11.6360    5.0230 N.3    16  PRO16      -0.2102
      2  CA       -34.6230   12.1540    5.8560 C.3    16  PRO16       0.1504
      3  C        -34.3700   11.7300    7.2970 C.2    16  PRO16       0.2576
      4  O        -33.5850   10.8140    7.5380 O.2    16  PRO16      -0.2718
      5  CB       -35.8800   11.4430    5.3090 C.3    16  PRO16       0.0282
      6  CG       -35.4420   10.6660    4.1000 C.3    16  PRO16       0.0208
      7  CD       -33.9700   10.4440    4.2710 C.3    16  PRO16       0.0893
      8  N        -35.0020   12.3990    8.2510 N.am   17  ILE17      -0.1966
      9  CA       -35.0030   11.8810    9.6170 C.3    17  ILE17       0.1727
     10  C        -36.2230   10.9700    9.7580 C.2    17  ILE17       0.2616
     11  O        -37.2720   11.2440    9.1900 O.2    17  ILE17      -0.2715
     12  CB       -34.9680   12.9800   10.6810 C.3    17  ILE17       0.0290
     13  CG1      -36.1060   13.9920   10.4810 C.3    17  ILE17       0.0022
     14  CG2      -33.6070   13.6660   10.6630 C.3    17  ILE17       0.0023
     15  CD1      -36.3000   14.8920   11.6860 C.3    17  ILE17       0.0001
     16  N        -36.0650    9.8720   10.4830 N.am   18  TYR18      -0.1960
     17  CA       -37.0690    8.8190   10.4820 C.3    18  TYR18       0.1771
     18  C        -37.9050    8.8340   11.7520 C.2    18  TYR18       0.2619
     19  O        -37.4250    9.1930   12.8110 O.2    18  TYR18      -0.2715
     20  CB       -36.3920    7.4660   10.2760 C.3    18  TYR18       0.0574
     21  CG       -35.4720    7.4700    9.0840 C.ar   18  TYR18      -0.0198
     22  CD1      -35.9770    7.5790    7.7970 C.ar   18  TYR18      -0.0009
     23  CD2      -34.0950    7.3930    9.2460 C.ar   18  TYR18      -0.0009
     24  CE1      -35.1340    7.6060    6.7020 C.ar   18  TYR18       0.0417
     25  CE2      -33.2440    7.4120    8.1610 C.ar   18  TYR18       0.0417
     26  CZ       -33.7650    7.5150    6.8850 C.ar   18  TYR18       0.1957
     27  OH       -32.9110    7.5480    5.7920 O.3    18  TYR18      -0.2866
     28  N        -39.1620    8.4320   11.6270 N.am   19  TYR19      -0.1974
     29  CA       -40.1050    8.5240   12.7120 C.3    19  TYR19       0.1639
     30  C        -39.9790    7.3250   13.6310 C.2    19  TYR19       0.2290
     31  O        -40.0090    6.1840   13.1870 O.2    19  TYR19      -0.2864
     32  CB       -41.5350    8.6500   12.1740 C.3    19  TYR19       0.0560
     33  CG       -42.4750    9.4060   13.0970 C.ar   19  TYR19      -0.0198
     34  CD1      -42.0600   10.5720   13.7340 C.ar   19  TYR19      -0.0009
     35  CD2      -43.7840    8.9790   13.3030 C.ar   19  TYR19      -0.0009
     36  CE1      -42.8980   11.2750   14.5690 C.ar   19  TYR19       0.0417
     37  CE2      -44.6390    9.6860   14.1380 C.ar   19  TYR19       0.0417
     38  CZ       -44.1860   10.8370   14.7710 C.ar   19  TYR19       0.1957
     39  OH       -45.0050   11.5640   15.6120 O.3    19  TYR19      -0.2866
     40  N        -36.9180   11.6080   13.8930 N.3    56  ASP56      -0.1239
     41  CA       -38.0000   12.5710   14.1190 C.3    56  ASP56       0.1674
     42  C        -38.7530   11.9990   15.3080 C.2    56  ASP56       0.2266
     43  O        -39.3260   10.9200   15.1980 O.2    56  ASP56      -0.2867
     44  CB       -38.8580   12.5660   12.8550 C.3    56  ASP56       0.1410
     45  CG       -40.1180   13.4180   12.9430 C.2    56  ASP56       0.3668
     46  OD1      -40.3750   14.1010   13.9610 O.co2  56  ASP56      -0.2456
     47  OD2      -40.8760   13.3750   11.9510 O.co2  56  ASP56      -0.2456
     48  N        -40.8740   13.7550   17.9540 N.3    58  HIS58      -0.1226
     49  CA       -42.0370   14.4180   18.5530 C.3    58  HIS58       0.1752
     50  C        -43.3870   14.0510   17.9290 C.2    58  HIS58       0.2597
     51  O        -43.4580   13.3660   16.9060 O.2    58  HIS58      -0.2718
     52  CB       -41.8600   15.9320   18.4420 C.3    58  HIS58       0.0759
     53  CG       -40.7110   16.4650   19.2390 C.ar   58  HIS58       0.0818
     54  ND1      -39.7590   17.3000   18.7020 N.ar   58  HIS58      -0.2268
     55  CD2      -40.3640   16.2830   20.5360 C.ar   58  HIS58       0.1154
     56  CE1      -38.8750   17.6140   19.6320 C.ar   58  HIS58       0.1986
     57  NE2      -39.2230   17.0160   20.7570 N.ar   58  HIS58      -0.2212
     58  N        -44.4620   14.5220   18.5620 N.am   59  GLY59      -0.1942
     59  CA       -45.8000   14.4040   18.0140 C.3    59  GLY59       0.2014
     60  C        -46.6320   13.3170   18.6500 C.2    59  GLY59       0.2639
     61  O        -46.1130   12.4180   19.3230 O.2    59  GLY59      -0.2714
     62  N        -47.9360   13.3960   18.4140 N.am   60  GLN60      -0.1963
     63  CA       -48.9020   12.5930   19.1450 C.3    60  GLN60       0.1733
     64  C        -48.7060   11.0790   19.0190 C.2    60  GLN60       0.2616
     65  O        -49.0020   10.3460   19.9620 O.2    60  GLN60      -0.2715
     66  CB       -50.3340   12.9720   18.7380 C.3    60  GLN60       0.0408
     67  CG       -50.7530   12.4500   17.3720 C.3    60  GLN60       0.0908
     68  CD       -51.9480   13.1890   16.7970 C.2    60  GLN60       0.2608
     69  OE1      -51.8530   14.3690   16.4260 O.2    60  GLN60      -0.2717
     70  NE2      -53.0640   12.4920   16.6770 N.am   60  GLN60      -0.0878
     71  N        -48.2270   10.6090   17.8740 N.am   61  LYS61      -0.1977
     72  CA       -48.1350    9.1660   17.6450 C.3    61  LYS61       0.1596
     73  C        -46.9970    8.5340   18.4310 C.2    61  LYS61       0.2287
     74  O        -47.1110    7.3940   18.8970 O.2    61  LYS61      -0.2864
     75  CB       -47.9920    8.8480   16.1600 C.3    61  LYS61       0.0298
     76  CG       -49.2920    8.9600   15.3830 C.3    61  LYS61       0.0038
     77  CD       -49.0480    8.7760   13.8910 C.3    61  LYS61       0.0206
     78  CE       -50.3520    8.6110   13.1220 C.3    61  LYS61       0.1093
     79  NZ       -51.3590    9.6570   13.5010 N.3    61  LYS61      -0.1314
     80  N        -54.3670   14.0400   11.5660 N.3   136  GLU136     -0.1245
     81  CA       -53.6940   15.2720   11.9970 C.3   136  GLU136      0.1567
     82  C        -53.8620   16.3860   10.9600 C.2   136  GLU136      0.2260
     83  O        -52.9460   17.1600   10.7200 O.2   136  GLU136     -0.2867
     84  CB       -52.2150   15.0050   12.2750 C.3   136  GLU136      0.0388
     85  CG       -51.9720   13.7130   13.0390 C.3   136  GLU136      0.1160
     86  CD       -50.5110   13.4240   13.3040 C.2   136  GLU136      0.3649
     87  OE1      -49.6310   14.1830   12.8310 O.co2 136  GLU136     -0.2457
     88  OE2      -50.2560   12.4140   13.9940 O.co2 136  GLU136     -0.2457
     89  N        -51.0130   17.2320   20.7630 N.3   221  LEU221     -0.1245
     90  CA       -49.7560   16.5000   20.6690 C.3   221  LEU221      0.1561
     91  C        -49.3410   15.8630   21.9880 C.2   221  LEU221      0.2260
     92  O        -48.1720   15.5090   22.1530 O.2   221  LEU221     -0.2867
     93  CB       -48.6570   17.4390   20.2010 C.3   221  LEU221      0.0270
     94  CG       -48.9600   18.1660   18.8890 C.3   221  LEU221      0.0019
     95  CD1      -47.7590   19.0080   18.4810 C.3   221  LEU221      0.0001
     96  CD2      -49.3250   17.1700   17.7960 C.3   221  LEU221      0.0001
     97  N        -43.6540   17.8200   22.0740 N.3   225  ALA225     -0.1245
     98  CA       -43.2990   18.6500   20.9290 C.3   225  ALA225      0.1562
     99  C        -42.5510   19.8980   21.4080 C.2   225  ALA225      0.2260
    100  O        -42.3970   20.0990   22.6170 O.2   225  ALA225     -0.2867
    101  CB       -44.5460   19.0550   20.1660 C.3   225  ALA225      0.0290
    102  N        -44.8810   23.5650   17.9050 N.3   235  VAL235     -0.1231
    103  CA       -44.4060   23.5100   16.5440 C.3   235  VAL235      0.1692
    104  C        -44.7750   22.1360   15.9730 C.2   235  VAL235      0.2592
    105  O        -44.4230   21.1040   16.5360 O.2   235  VAL235     -0.2718
    106  CB       -42.8850   23.7430   16.5120 C.3   235  VAL235      0.0266
    107  CG1      -42.3460   23.6270   15.0940 C.3   235  VAL235      0.0020
    108  CG2      -42.5600   25.1040   17.1150 C.3   235  VAL235      0.0020
    109  N        -45.5220   22.1220   14.8760 N.am  236  TYR236     -0.1962
    110  CA       -45.9200   20.8520   14.2610 C.3   236  TYR236      0.1771
    111  C        -44.7600   20.3380   13.3890 C.2   236  TYR236      0.2619
    112  O        -43.6770   20.9470   13.3590 O.2   236  TYR236     -0.2715
    113  CB       -47.2490   21.0260   13.5110 C.3   236  TYR236      0.0574
    114  CG       -47.8420   19.7550   12.9470 C.ar  236  TYR236     -0.0198
    115  CD1      -48.0420   18.6350   13.7430 C.ar  236  TYR236     -0.0009
    116  CD2      -48.2020   19.6770   11.6040 C.ar  236  TYR236     -0.0009
    117  CE1      -48.5860   17.4670   13.2170 C.ar  236  TYR236      0.0417
    118  CE2      -48.7510   18.5200   11.0690 C.ar  236  TYR236      0.0417
    119  CZ       -48.9340   17.4160   11.8750 C.ar  236  TYR236      0.1957
    120  OH       -49.4620   16.2760   11.3240 O.3   236  TYR236     -0.2866
    121  N        -44.9560   19.2020   12.7260 N.am  237  VAL237     -0.1963
    122  CA       -43.8770   18.5230   12.0130 C.3   237  VAL237      0.1727
    123  C        -43.0520   19.3910   11.0440 C.2   237  VAL237      0.2616
    124  O        -41.8270   19.2590   10.9790 O.2   237  VAL237     -0.2715
    125  CB       -44.4120   17.2670   11.2720 C.3   237  VAL237      0.0290
    126  CG1      -45.2710   17.6480   10.0760 C.3   237  VAL237      0.0023
    127  CG2      -43.2660   16.3780   10.8410 C.3   237  VAL237      0.0023
    128  N        -43.6970   20.2830   10.3050 N.am  238  TRP238     -0.1974
    129  CA       -43.0120   20.9660    9.1860 C.3   238  TRP238      0.1640
    130  C        -41.7560   21.7340    9.6120 C.2   238  TRP238      0.2290
    131  O        -40.6770   21.4870    9.0920 O.2   238  TRP238     -0.2864
    132  CB       -43.9810   21.8590    8.4120 C.3   238  TRP238      0.0576
    133  CG       -45.3290   21.1990    8.1710 C.ar  238  TRP238      0.0006
    134  CD1      -46.5340   21.6200    8.6430 C.ar  238  TRP238      0.0946
    135  CD2      -45.5870   19.9960    7.4340 C.ar  238  TRP238      0.0152
    136  NE1      -47.5280   20.7670    8.2380 N.ar  238  TRP238     -0.2442
    137  CE2      -46.9740   19.7600    7.4940 C.ar  238  TRP238      0.0810
    138  CE3      -44.7830   19.1060    6.7240 C.ar  238  TRP238      0.0012
    139  CZ2      -47.5810   18.6600    6.8770 C.ar  238  TRP238      0.0191
    140  CZ3      -45.3820   18.0100    6.1040 C.ar  238  TRP238      0.0001
    141  CH2      -46.7740   17.7960    6.1890 C.ar  238  TRP238      0.0015
    142  N        -40.3770   21.6000   12.5740 N.3   240  ASP240     -0.1225
    143  CA       -39.5910   20.7910   13.4850 C.3   240  ASP240      0.1805
    144  C        -38.6780   19.8770   12.6570 C.2   240  ASP240      0.2598
    145  O        -37.4610   20.0080   12.7080 O.2   240  ASP240     -0.2718
    146  CB       -40.5030   19.9990   14.4420 C.3   240  ASP240      0.1424
    147  CG       -39.7260   19.1150   15.4170 C.2   240  ASP240      0.3668
    148  OD1      -38.4680   19.0370   15.3460 O.co2 240  ASP240     -0.2456
    149  OD2      -40.3850   18.4800   16.2680 O.co2 240  ASP240     -0.2456
    150  N        -39.2660   18.9670   11.8890 N.am  241  ALA241     -0.1966
    151  CA       -38.4790   17.9490   11.1720 C.3   241  ALA241      0.1728
    152  C        -37.5790   18.5100   10.0700 C.2   241  ALA241      0.2616
    153  O        -36.4240   18.1290    9.9880 O.2   241  ALA241     -0.2715
    154  CB       -39.3960   16.8900   10.5950 C.3   241  ALA241      0.0334
    155  N        -38.0990   19.3900    9.2150 N.am  242  LEU242     -0.1977
    156  CA       -37.3210   19.8410    8.0490 C.3   242  LEU242      0.1596
    157  C        -36.1280   20.6340    8.5160 C.2   242  LEU242      0.2287
    158  O        -35.0530   20.5680    7.9320 O.2   242  LEU242     -0.2864
    159  CB       -38.1640   20.6840    7.0810 C.3   242  LEU242      0.0297
    160  CG       -39.2420   19.8860    6.3560 C.3   242  LEU242      0.0022
    161  CD1      -40.2710   20.7890    5.7100 C.3   242  LEU242      0.0001
    162  CD2      -38.6260   18.9620    5.3200 C.3   242  LEU242      0.0001
    163  N        -34.1720   19.9930   10.7780 N.3   244  ASN244     -0.1225
    164  CA       -33.0100   19.1860   11.1940 C.3   244  ASN244      0.1785
    165  C        -31.7570   19.4380   10.3330 C.2   244  ASN244      0.2597
    166  O        -30.6440   19.3550   10.8280 O.2   244  ASN244     -0.2718
    167  CB       -33.3380   17.6900   11.2040 C.3   244  ASN244      0.1169
    168  CG       -33.0510   17.0220    9.8740 C.2   244  ASN244      0.2627
    169  OD1      -31.9860   16.4630    9.6720 O.2   244  ASN244     -0.2716
    170  ND2      -33.9920   17.0910    8.9660 N.am  244  ASN244     -0.0877
    171  N        -31.9520   19.7290    9.0470 N.am  245  TYR245     -0.1976
    172  CA       -30.8490   19.9430    8.1130 C.3   245  TYR245      0.1639
    173  C        -30.0660   21.1930    8.4460 C.2   245  TYR245      0.2290
    174  O        -28.8380   21.2070    8.4030 O.2   245  TYR245     -0.2864
    175  CB       -31.3780   20.0670    6.6780 C.3   245  TYR245      0.0560
    176  CG       -32.2240   18.9070    6.2200 C.ar  245  TYR245     -0.0198
    177  CD1      -31.7880   17.6000    6.3670 C.ar  245  TYR245     -0.0009
    178  CD2      -33.4510   19.1170    5.6250 C.ar  245  TYR245     -0.0009
    179  CE1      -32.5540   16.5320    5.9350 C.ar  245  TYR245      0.0417
    180  CE2      -34.2290   18.0580    5.1930 C.ar  245  TYR245      0.0417
    181  CZ       -33.7690   16.7660    5.3440 C.ar  245  TYR245      0.1957
    182  OH       -34.5360   15.7190    4.8950 O.3   245  TYR245     -0.2866
    183  N        -42.4940    9.9270   -1.3280 N.3   282  ASP282     -0.1225
    184  CA       -43.6470   10.2950   -0.5020 C.3   282  ASP282      0.1805
    185  C        -43.5330   11.6660    0.1650 C.2   282  ASP282      0.2597
    186  O        -44.5490   12.2720    0.4680 O.2   282  ASP282     -0.2718
    187  CB       -43.9590    9.2090    0.5430 C.3   282  ASP282      0.1424
    188  CG       -42.7850    8.9080    1.4940 C.2   282  ASP282      0.3668
    189  OD1      -41.5950    8.9830    1.0970 O.co2 282  ASP282     -0.2456
    190  OD2      -43.0790    8.5350    2.6520 O.co2 282  ASP282     -0.2456
    191  N        -42.3160   12.1700    0.3480 N.am  283  ILE283     -0.1980
    192  CA       -42.0980   13.4560    1.0170 C.3   283  ILE283      0.1595
    193  C        -41.5100   14.5470    0.1040 C.2   283  ILE283      0.2287
    194  O        -41.0640   15.6070    0.5870 O.2   283  ILE283     -0.2864
    195  CB       -41.2260   13.2750    2.2780 C.3   283  ILE283      0.0276
    196  CG1      -39.8380   12.7550    1.9230 C.3   283  ILE283      0.0022
    197  CG2      -41.9040   12.3060    3.2380 C.3   283  ILE283      0.0022
    198  CD1      -38.9850   12.4490    3.1370 C.3   283  ILE283      0.0001
    199  N        -42.9150   18.0240    0.4760 N.3   286  PHE286     -0.1227
    200  CA       -42.4810   18.6760    1.7080 C.3   286  PHE286      0.1736
    201  C        -41.0990   19.3030    1.5210 C.2   286  PHE286      0.2595
    202  O        -40.8670   20.4430    1.9440 O.2   286  PHE286     -0.2718
    203  CB       -42.4820   17.7180    2.9030 C.3   286  PHE286      0.0547
    204  CG       -43.7600   16.9240    3.0670 C.ar  286  PHE286     -0.0202
    205  CD1      -44.9930   17.4320    2.6670 C.ar  286  PHE286     -0.0042
    206  CD2      -43.7250   15.6680    3.6440 C.ar  286  PHE286     -0.0042
    207  CE1      -46.1570   16.6900    2.8190 C.ar  286  PHE286     -0.0003
    208  CE2      -44.8890   14.9190    3.8030 C.ar  286  PHE286     -0.0003
    209  CZ       -46.1090   15.4320    3.3990 C.ar  286  PHE286     -0.0000
    210  N        -40.1920   18.5640    0.8860 N.am  287  HIS287     -0.1975
    211  CA       -38.8240   19.0420    0.6890 C.3   287  HIS287      0.1656
    212  C        -38.6480   20.0300   -0.4610 C.2   287  HIS287      0.2291
    213  O        -37.7090   20.8390   -0.4450 O.2   287  HIS287     -0.2864
    214  CB       -37.8720   17.8610    0.5050 C.3   287  HIS287      0.0771
    215  CG       -37.5780   17.1330    1.7770 C.ar  287  HIS287      0.0820
    216  ND1      -38.5300   16.3960    2.4420 N.ar  287  HIS287     -0.2267
    217  CD2      -36.4450   17.0350    2.5070 C.ar  287  HIS287      0.1154
    218  CE1      -38.0010   15.8830    3.5380 C.ar  287  HIS287      0.1986
    219  NE2      -36.7380   16.2630    3.6060 N.ar  287  HIS287     -0.2212
@<TRIPOS>BOND
     1   183   184    1
     2   184   185    1
     3   184   187    1
     4   212   213    2
     5   212   211    1
     6   193   194    2
     7   193   192    1
     8   185   191   am
     9   185   186    2
    10   191   192    1
    11   199   200    1
    12   214   211    1
    13   214   215    1
    14   187   188    1
    15   211   210    1
    16   210   201   am
    17   192   195    1
    18   189   188   ar
    19   188   190   ar
    20   201   200    1
    21   201   202    2
    22   200   203    1
    23   215   216   ar
    24   215   217   ar
    25   196   195    1
    26   196   198    1
    27   195   197    1
    28   216   218   ar
    29   217   219   ar
    30   205   207   ar
    31   205   204   ar
    32   207   209   ar
    33   203   204    1
    34   204   206   ar
    35   209   208   ar
    36   218   219   ar
    37   206   208   ar
    38     6     7    1
    39     6     5    1
    40     7     1    1
    41   182   181    1
    42     1     2    1
    43   180   181   ar
    44   180   178   ar
    45     5     2    1
    46   162   160    1
    47   181   179   ar
    48   178   176   ar
    49   161   160    1
    50    27    26    1
    51     2     3    1
    52   179   177   ar
    53   140   141   ar
    54   140   138   ar
    55   141   139   ar
    56   176   177   ar
    57   176   175    1
    58   160   159    1
    59   175   172    1
    60    24    26   ar
    61    24    22   ar
    62   138   135   ar
    63   139   137   ar
    64    26    25   ar
    65   159   156    1
    66     3     4    2
    67     3     8   am
    68   135   137   ar
    69   135   133   ar
    70   137   136   ar
    71    22    21   ar
    72   158   157    2
    73   156   157    1
    74   156   155    1
    75   172   173    1
    76   172   171    1
    77    25    23   ar
    78   133   132    1
    79   133   134   ar
    80   136   134   ar
    81     8     9    1
    82   174   173    2
    83   132   129    1
    84   170   168   am
    85   171   165   am
    86    21    23   ar
    87    21    20    1
    88   131   130    2
    89   129   130    1
    90   129   128    1
    91    11    10    2
    92   155   152   am
    93     9    10    1
    94     9    12    1
    95   169   168    2
    96    10    16   am
    97   168   167    1
    98   153   152    2
    99   152   151    1
   100   126   125    1
   101    20    17    1
   102   128   123   am
   103   165   166    2
   104   165   164    1
   105    13    12    1
   106    13    15    1
   107    17    16    1
   108    17    18    1
   109   154   151    1
   110    14    12    1
   111    83    82    2
   112   163   164    1
   113   127   125    1
   114    82    81    1
   115   124   123    2
   116   123   122    1
   117   118   116   ar
   118   118   119   ar
   119   151   150    1
   120   164   167    1
   121   125   122    1
   122   120   119    1
   123    80    81    1
   124   116   114   ar
   125    28    18   am
   126    28    29    1
   127    18    19    2
   128   119   117   ar
   129   150   144   am
   130    47    45   ar
   131    81    84    1
   132   122   121    1
   133    32    29    1
   134    32    33    1
   135    84    85    1
   136   142   143    1
   137   144   145    2
   138   144   143    1
   139    29    30    1
   140   121   111   am
   141    87    86   ar
   142    44    45    1
   143    44    41    1
   144    45    46   ar
   145   114   113    1
   146   114   115   ar
   147    85    86    1
   148    33    35   ar
   149    33    34   ar
   150    78    79    1
   151    78    77    1
   152    31    30    2
   153   117   115   ar
   154    35    37   ar
   155    86    88   ar
   156   112   111    2
   157   111   110    1
   158   143   146    1
   159   113   110    1
   160    34    36   ar
   161    77    76    1
   162    40    41    1
   163    41    42    1
   164    37    38   ar
   165   110   109    1
   166   146   147    1
   167    36    38   ar
   168    38    39    1
   169   109   104   am
   170   107   106    1
   171    43    42    2
   172   148   147   ar
   173    76    75    1
   174   147   149   ar
   175   104   105    2
   176   104   103    1
   177    75    72    1
   178    69    68    2
   179   106   103    1
   180   106   108    1
   181   103   102    1
   182    70    68   am
   183    68    67    1
   184    51    50    2
   185    67    66    1
   186    72    71    1
   187    72    73    1
   188    96    94    1
   189    71    64   am
   190    50    49    1
   191    50    58   am
   192    48    49    1
   193    59    58    1
   194    59    60    1
   195    62    60   am
   196    62    63    1
   197    73    74    2
   198    52    49    1
   199    52    53    1
   200    95    94    1
   201    60    61    2
   202    54    53   ar
   203    54    56   ar
   204    66    63    1
   205    94    93    1
   206    64    63    1
   207    64    65    2
   208    53    55   ar
   209    56    57   ar
   210   101    98    1
   211    93    90    1
   212    55    57   ar
   213    90    89    1
   214    90    91    1
   215    98    99    1
   216    98    97    1
   217    99   100    2
   218    91    92    2
