@<TRIPOS>MOLECULE
tmp/4mweB00.pdb
 202 200 0 0 0
SMALL
GASTEIGER

@<TRIPOS>ATOM
      1  N        -33.5320  -11.6340   -5.1630 N.3    16  PRO16      -0.2102
      2  CA       -34.5920  -12.1480   -6.0110 C.3    16  PRO16       0.1504
      3  C        -34.3030  -11.7350   -7.4300 C.2    16  PRO16       0.2576
      4  O        -33.4410  -10.8830   -7.6490 O.2    16  PRO16      -0.2718
      5  CB       -35.8440  -11.4140   -5.5060 C.3    16  PRO16       0.0282
      6  CG       -35.4670  -10.8700   -4.1670 C.3    16  PRO16       0.0208
      7  CD       -34.0120  -10.5500   -4.2930 C.3    16  PRO16       0.0893
      8  N        -34.9980  -12.3340   -8.3850 N.am   17  ILE17      -0.1966
      9  CA       -34.9680  -11.8210   -9.7360 C.3    17  ILE17       0.1727
     10  C        -36.2220  -10.9710   -9.9230 C.2    17  ILE17       0.2616
     11  O        -37.3080  -11.2990   -9.4260 O.2    17  ILE17      -0.2715
     12  CB       -34.8200  -12.9210  -10.8000 C.3    17  ILE17       0.0290
     13  CG1      -35.8380  -14.0480  -10.5930 C.3    17  ILE17       0.0022
     14  CG2      -33.3980  -13.4830  -10.7860 C.3    17  ILE17       0.0023
     15  CD1      -35.9160  -14.9970  -11.7650 C.3    17  ILE17       0.0001
     16  N        -36.0550   -9.8620  -10.6280 N.am   18  TYR18      -0.1960
     17  CA       -37.0240   -8.7860  -10.5960 C.3    18  TYR18       0.1771
     18  C        -37.8680   -8.7600  -11.8710 C.2    18  TYR18       0.2619
     19  O        -37.3590   -8.9770  -12.9770 O.2    18  TYR18      -0.2715
     20  CB       -36.2750   -7.4740  -10.4030 C.3    18  TYR18       0.0574
     21  CG       -35.3310   -7.4940   -9.2090 C.ar   18  TYR18      -0.0198
     22  CD1      -35.8270   -7.6050   -7.9150 C.ar   18  TYR18      -0.0009
     23  CD2      -33.9510   -7.3940   -9.3810 C.ar   18  TYR18      -0.0009
     24  CE1      -34.9840   -7.6220   -6.8290 C.ar   18  TYR18       0.0417
     25  CE2      -33.0940   -7.4020   -8.3050 C.ar   18  TYR18       0.0417
     26  CZ       -33.6050   -7.5200   -7.0280 C.ar   18  TYR18       0.1957
     27  OH       -32.7650   -7.5260   -5.9370 O.3    18  TYR18      -0.2866
     28  N        -39.1560   -8.4960  -11.7160 N.am   19  TYR19      -0.1974
     29  CA       -40.0790   -8.5860  -12.8390 C.3    19  TYR19       0.1639
     30  C        -39.9310   -7.3810  -13.7600 C.2    19  TYR19       0.2290
     31  O        -39.8380   -6.2460  -13.3030 O.2    19  TYR19      -0.2864
     32  CB       -41.5220   -8.7260  -12.3500 C.3    19  TYR19       0.0560
     33  CG       -42.4160   -9.5110  -13.2890 C.ar   19  TYR19      -0.0198
     34  CD1      -41.9750  -10.6990  -13.8810 C.ar   19  TYR19      -0.0009
     35  CD2      -43.7180   -9.0900  -13.5600 C.ar   19  TYR19      -0.0009
     36  CE1      -42.7900  -11.4240  -14.7270 C.ar   19  TYR19       0.0417
     37  CE2      -44.5470   -9.8140  -14.4060 C.ar   19  TYR19       0.0417
     38  CZ       -44.0850  -10.9810  -14.9870 C.ar   19  TYR19       0.1957
     39  OH       -44.9120  -11.7020  -15.8330 O.3    19  TYR19      -0.2866
     40  N        -36.7990  -11.6810  -13.9400 N.3    56  ASP56      -0.1239
     41  CA       -37.8560  -12.6580  -14.1810 C.3    56  ASP56       0.1674
     42  C        -38.6340  -12.1140  -15.3900 C.2    56  ASP56       0.2266
     43  O        -39.2780  -11.0770  -15.3010 O.2    56  ASP56      -0.2867
     44  CB       -38.7140  -12.7300  -12.9040 C.3    56  ASP56       0.1410
     45  CG       -39.9730  -13.5730  -13.0420 C.2    56  ASP56       0.3668
     46  OD1      -40.2110  -14.2160  -14.0880 O.co2  56  ASP56      -0.2456
     47  OD2      -40.7500  -13.5840  -12.0590 O.co2  56  ASP56      -0.2456
     48  N        -40.7280  -13.8970  -17.9720 N.3    58  HIS58      -0.1226
     49  CA       -41.8440  -14.5890  -18.6320 C.3    58  HIS58       0.1752
     50  C        -43.1870  -14.1710  -18.0540 C.2    58  HIS58       0.2596
     51  O        -43.2370  -13.4470  -17.0700 O.2    58  HIS58      -0.2718
     52  CB       -41.6730  -16.1020  -18.5190 C.3    58  HIS58       0.0759
     53  CG       -40.4960  -16.6250  -19.2740 C.ar   58  HIS58       0.0818
     54  ND1      -39.5370  -17.4270  -18.6980 N.ar   58  HIS58      -0.2268
     55  CD2      -40.1220  -16.4670  -20.5660 C.ar   58  HIS58       0.1154
     56  CE1      -38.6160  -17.7300  -19.5960 C.ar   58  HIS58       0.1986
     57  NE2      -38.9440  -17.1550  -20.7370 N.ar   58  HIS58      -0.2212
     58  N        -44.2720  -14.6200  -18.6800 N.am   59  GLY59      -0.1957
     59  CA       -45.6170  -14.4360  -18.1310 C.3    59  GLY59       0.1869
     60  C        -46.4870  -13.4750  -18.9100 C.2    59  GLY59       0.2309
     61  O        -46.0130  -12.7300  -19.7650 O.2    59  GLY59      -0.2863
     62  N        -48.2000  -10.6880  -18.1000 N.3    61  LYS61      -0.1245
     63  CA       -48.1390   -9.2310  -17.9060 C.3    61  LYS61       0.1561
     64  C        -47.0040   -8.5920  -18.7110 C.2    61  LYS61       0.2260
     65  O        -47.1640   -7.4930  -19.2500 O.2    61  LYS61      -0.2867
     66  CB       -48.0380   -8.8720  -16.4260 C.3    61  LYS61       0.0271
     67  CG       -49.1260   -9.5370  -15.6020 C.3    61  LYS61       0.0035
     68  CD       -49.6270   -8.7040  -14.4360 C.3    61  LYS61       0.0206
     69  CE       -50.9060   -9.3210  -13.8790 C.3    61  LYS61       0.1093
     70  NZ       -51.0400   -9.1070  -12.4080 N.3    61  LYS61      -0.1314
     71  N        -54.6330  -14.5270  -12.2570 N.3   137  GLU137     -0.1245
     72  CA       -53.8380  -15.7300  -12.5430 C.3   137  GLU137      0.1567
     73  C        -54.0110  -16.7800  -11.4370 C.2   137  GLU137      0.2260
     74  O        -53.0560  -17.4590  -11.0520 O.2   137  GLU137     -0.2867
     75  CB       -52.3560  -15.3760  -12.7270 C.3   137  GLU137      0.0388
     76  CG       -52.1020  -14.1310  -13.5670 C.3   137  GLU137      0.1160
     77  CD       -50.6260  -13.8810  -13.8300 C.2   137  GLU137      0.3649
     78  OE1      -49.7940  -14.7200  -13.4410 O.co2 137  GLU137     -0.2457
     79  OE2      -50.2900  -12.8390  -14.4300 O.co2 137  GLU137     -0.2457
     80  N        -50.7290  -17.4870  -20.9620 N.3   218  LEU218     -0.1245
     81  CA       -49.4610  -16.7830  -20.8440 C.3   218  LEU218      0.1561
     82  C        -49.0290  -16.1080  -22.1450 C.2   218  LEU218      0.2260
     83  O        -47.8940  -15.6360  -22.2550 O.2   218  LEU218     -0.2867
     84  CB       -48.3740  -17.7640  -20.3790 C.3   218  LEU218      0.0270
     85  CG       -48.6070  -18.4240  -19.0120 C.3   218  LEU218      0.0019
     86  CD1      -47.4240  -19.2890  -18.6130 C.3   218  LEU218      0.0001
     87  CD2      -48.8570  -17.3760  -17.9380 C.3   218  LEU218      0.0001
     88  N        -43.4650  -18.0450  -22.1130 N.3   222  ALA222     -0.1245
     89  CA       -43.0710  -18.8640  -20.9690 C.3   222  ALA222      0.1562
     90  C        -42.2850  -20.0830  -21.4630 C.2   222  ALA222      0.2260
     91  O        -42.1250  -20.2720  -22.6680 O.2   222  ALA222     -0.2867
     92  CB       -44.3030  -19.3080  -20.1900 C.3   222  ALA222      0.0290
     93  N        -44.5430  -23.8640  -17.9770 N.3   232  VAL232     -0.1231
     94  CA       -44.1070  -23.8070  -16.5970 C.3   232  VAL232      0.1692
     95  C        -44.4850  -22.4320  -16.0580 C.2   232  VAL232      0.2592
     96  O        -44.1090  -21.4240  -16.6410 O.2   232  VAL232     -0.2718
     97  CB       -42.5830  -23.9610  -16.4950 C.3   232  VAL232      0.0266
     98  CG1      -42.1230  -23.8100  -15.0440 C.3   232  VAL232      0.0020
     99  CG2      -42.1440  -25.2940  -17.0950 C.3   232  VAL232      0.0020
    100  N        -45.2230  -22.3910  -14.9520 N.am  233  TYR233     -0.1962
    101  CA       -45.5820  -21.1220  -14.3160 C.3   233  TYR233      0.1771
    102  C        -44.4200  -20.5630  -13.4590 C.2   233  TYR233      0.2619
    103  O        -43.3280  -21.1330  -13.4250 O.2   233  TYR233     -0.2715
    104  CB       -46.8590  -21.3140  -13.4950 C.3   233  TYR233      0.0574
    105  CG       -47.5540  -20.0360  -13.0540 C.ar  233  TYR233     -0.0198
    106  CD1      -47.7980  -18.9920  -13.9510 C.ar  233  TYR233     -0.0009
    107  CD2      -47.9690  -19.8740  -11.7300 C.ar  233  TYR233     -0.0009
    108  CE1      -48.4250  -17.8230  -13.5390 C.ar  233  TYR233      0.0417
    109  CE2      -48.5920  -18.7100  -11.3060 C.ar  233  TYR233      0.0417
    110  CZ       -48.8260  -17.6910  -12.2110 C.ar  233  TYR233      0.1957
    111  OH       -49.4530  -16.5400  -11.7780 O.3   233  TYR233     -0.2866
    112  N        -44.6650  -19.4360  -12.7920 N.am  234  VAL234     -0.1963
    113  CA       -43.6200  -18.6410  -12.1270 C.3   234  VAL234      0.1727
    114  C        -42.7810  -19.3780  -11.0750 C.2   234  VAL234      0.2616
    115  O        -41.5810  -19.1520  -10.9590 O.2   234  VAL234     -0.2715
    116  CB       -44.2330  -17.3700  -11.4720 C.3   234  VAL234      0.0290
    117  CG1      -45.2400  -17.7190  -10.3740 C.3   234  VAL234      0.0023
    118  CG2      -43.1380  -16.4520  -10.9370 C.3   234  VAL234      0.0023
    119  N        -43.4160  -20.2590  -10.3190 N.am  235  TRP235     -0.1974
    120  CA       -42.7730  -20.8660   -9.1720 C.3   235  TRP235      0.1640
    121  C        -41.5040  -21.5770   -9.6130 C.2   235  TRP235      0.2290
    122  O        -40.4130  -21.2460   -9.1610 O.2   235  TRP235     -0.2864
    123  CB       -43.7200  -21.8300   -8.4550 C.3   235  TRP235      0.0576
    124  CG       -45.0780  -21.2410   -8.2160 C.ar  235  TRP235      0.0006
    125  CD1      -46.2620  -21.7050   -8.7040 C.ar  235  TRP235      0.0946
    126  CD2      -45.3930  -20.0570   -7.4610 C.ar  235  TRP235      0.0152
    127  NE1      -47.2920  -20.9050   -8.2870 N.ar  235  TRP235     -0.2442
    128  CE2      -46.7930  -19.8810   -7.5300 C.ar  235  TRP235      0.0810
    129  CE3      -44.6330  -19.1380   -6.7280 C.ar  235  TRP235      0.0012
    130  CZ2      -47.4570  -18.8140   -6.8950 C.ar  235  TRP235      0.0191
    131  CZ3      -45.2950  -18.0730   -6.0860 C.ar  235  TRP235      0.0001
    132  CH2      -46.6970  -17.9260   -6.1810 C.ar  235  TRP235      0.0015
    133  N        -40.2050  -21.6780  -12.6690 N.3   237  ASP237     -0.1225
    134  CA       -39.4110  -20.8650  -13.5700 C.3   237  ASP237      0.1805
    135  C        -38.4410  -19.9720  -12.7900 C.2   237  ASP237      0.2598
    136  O        -37.2370  -20.0810  -12.9400 O.2   237  ASP237     -0.2718
    137  CB       -40.3130  -20.0140  -14.4710 C.3   237  ASP237      0.1424
    138  CG       -39.5290  -19.2360  -15.5110 C.2   237  ASP237      0.3668
    139  OD1      -38.2640  -19.2420  -15.4710 O.co2 237  ASP237     -0.2456
    140  OD2      -40.1850  -18.6130  -16.3700 O.co2 237  ASP237     -0.2456
    141  N        -38.9860  -19.1090  -11.9480 N.am  238  ALA238     -0.1966
    142  CA       -38.2080  -18.0670  -11.2850 C.3   238  ALA238      0.1728
    143  C        -37.2780  -18.6110  -10.2050 C.2   238  ALA238      0.2616
    144  O        -36.0980  -18.3010  -10.2060 O.2   238  ALA238     -0.2715
    145  CB       -39.1280  -17.0020  -10.7000 C.3   238  ALA238      0.0334
    146  N        -37.8070  -19.4160   -9.2880 N.am  239  LEU239     -0.1977
    147  CA       -36.9910  -19.9560   -8.2060 C.3   239  LEU239      0.1596
    148  C        -35.7680  -20.6890   -8.7230 C.2   239  LEU239      0.2287
    149  O        -34.7000  -20.6380   -8.1180 O.2   239  LEU239     -0.2864
    150  CB       -37.7990  -20.8970   -7.3290 C.3   239  LEU239      0.0297
    151  CG       -38.8520  -20.2460   -6.4380 C.3   239  LEU239      0.0022
    152  CD1      -39.5750  -21.3480   -5.7050 C.3   239  LEU239      0.0001
    153  CD2      -38.2520  -19.2890   -5.4220 C.3   239  LEU239      0.0001
    154  N        -33.8190  -20.0740  -10.9920 N.3   241  ASN241     -0.1225
    155  CA       -32.7370  -19.1900  -11.3670 C.3   241  ASN241      0.1785
    156  C        -31.5160  -19.3950  -10.4720 C.2   241  ASN241      0.2597
    157  O        -30.3850  -19.3240  -10.9580 O.2   241  ASN241     -0.2718
    158  CB       -33.1760  -17.7240  -11.3160 C.3   241  ASN241      0.1169
    159  CG       -32.9450  -17.0840   -9.9460 C.2   241  ASN241      0.2627
    160  OD1      -31.8590  -16.5740   -9.6630 O.2   241  ASN241     -0.2716
    161  ND2      -33.9730  -17.1050   -9.0940 N.am  241  ASN241     -0.0877
    162  N        -31.7550  -19.6370   -9.1790 N.am  242  TYR242     -0.1976
    163  CA       -30.6700  -19.8590   -8.2130 C.3   242  TYR242      0.1639
    164  C        -29.8760  -21.1060   -8.5490 C.2   242  TYR242      0.2290
    165  O        -28.6690  -21.1390   -8.3770 O.2   242  TYR242     -0.2864
    166  CB       -31.2100  -20.0350   -6.7970 C.3   242  TYR242      0.0560
    167  CG       -32.0710  -18.9190   -6.3060 C.ar  242  TYR242     -0.0198
    168  CD1      -31.6500  -17.6010   -6.3840 C.ar  242  TYR242     -0.0009
    169  CD2      -33.3120  -19.1810   -5.7490 C.ar  242  TYR242     -0.0009
    170  CE1      -32.4500  -16.5640   -5.9330 C.ar  242  TYR242      0.0417
    171  CE2      -34.1130  -18.1640   -5.2860 C.ar  242  TYR242      0.0417
    172  CZ       -33.6820  -16.8570   -5.3830 C.ar  242  TYR242      0.1957
    173  OH       -34.4820  -15.8500   -4.9200 O.3   242  TYR242     -0.2866
    174  N        -42.3660  -11.9550   -0.5220 N.3   280  ILE280     -0.1245
    175  CA       -42.2260  -13.2900   -1.1150 C.3   280  ILE280      0.1561
    176  C        -41.6880  -14.3230   -0.1260 C.2   280  ILE280      0.2260
    177  O        -41.1600  -15.3650   -0.5300 O.2   280  ILE280     -0.2867
    178  CB       -41.3610  -13.2550   -2.3900 C.3   280  ILE280      0.0252
    179  CG1      -39.8960  -12.9220   -2.0720 C.3   280  ILE280      0.0019
    180  CG2      -41.9410  -12.2400   -3.3660 C.3   280  ILE280      0.0019
    181  CD1      -38.9990  -12.8750   -3.2910 C.3   280  ILE280      0.0001
    182  N        -43.5730  -17.9140   -0.1080 N.3   283  PHE283     -0.1227
    183  CA       -43.2240  -18.6560   -1.3210 C.3   283  PHE283      0.1736
    184  C        -41.7560  -19.1270   -1.3110 C.2   283  PHE283      0.2595
    185  O        -41.4350  -20.2280   -1.7590 O.2   283  PHE283     -0.2718
    186  CB       -43.5150  -17.8140   -2.5730 C.3   283  PHE283      0.0547
    187  CG       -44.8910  -17.1820   -2.5940 C.ar  283  PHE283     -0.0202
    188  CD1      -46.0010  -17.8350   -2.0550 C.ar  283  PHE283     -0.0042
    189  CD2      -45.0780  -15.9340   -3.1830 C.ar  283  PHE283     -0.0042
    190  CE1      -47.2600  -17.2450   -2.0880 C.ar  283  PHE283     -0.0003
    191  CE2      -46.3330  -15.3440   -3.2180 C.ar  283  PHE283     -0.0003
    192  CZ       -47.4250  -15.9990   -2.6700 C.ar  283  PHE283     -0.0000
    193  N        -40.8600  -18.2980   -0.8040 N.am  284  HIS284     -0.1975
    194  CA       -39.4550  -18.6830   -0.7250 C.3   284  HIS284      0.1656
    195  C        -39.1610  -19.6980    0.3730 C.2   284  HIS284      0.2291
    196  O        -38.3690  -20.6100    0.1700 O.2   284  HIS284     -0.2864
    197  CB       -38.5730  -17.4690   -0.4780 C.3   284  HIS284      0.0771
    198  CG       -37.7350  -17.0970   -1.6450 C.ar  284  HIS284      0.0820
    199  ND1      -38.1670  -16.2190   -2.6120 N.ar  284  HIS284     -0.2267
    200  CD2      -36.4850  -17.4730   -2.0000 C.ar  284  HIS284      0.1154
    201  CE1      -37.2180  -16.0750   -3.5210 C.ar  284  HIS284      0.1986
    202  NE2      -36.1890  -16.8260   -3.1720 N.ar  284  HIS284     -0.2212
@<TRIPOS>BOND
     1    91    90    2
     2    83    82    2
     3    82    81    1
     4    88    89    1
     5    90    89    1
     6    89    92    1
     7    80    81    1
     8    81    84    1
     9    57    55   ar
    10    57    56   ar
    11    55    53   ar
    12    84    85    1
    13    61    60    2
    14    56    54   ar
    15    53    54   ar
    16    53    52    1
    17    65    64    2
    18    85    86    1
    19    85    87    1
    20    60    59    1
    21    64    63    1
    22    58    59    1
    23    58    50   am
    24    49    52    1
    25    49    50    1
    26    49    48    1
    27    62    63    1
    28    50    51    2
    29    93    94    1
    30    63    66    1
    31    99    97    1
    32    96    95    2
    33    94    97    1
    34    94    95    1
    35    97    98    1
    36    66    67    1
    37   140   138   ar
    38    95   100   am
    39    39    38    1
    40    67    68    1
    41   138   139   ar
    42   138   137    1
    43    42    43    2
    44    42    41    1
    45    38    36   ar
    46    38    37   ar
    47   100   101    1
    48    36    34   ar
    49   137   134    1
    50    68    69    1
    51    79    77   ar
    52    37    35   ar
    53   101   104    1
    54   101   102    1
    55    41    40    1
    56    41    44    1
    57    46    45   ar
    58   106   108   ar
    59   106   105   ar
    60    34    33   ar
    61    69    70    1
    62    77    76    1
    63    77    78   ar
    64    30    31    2
    65    30    29    1
    66   134   135    1
    67   134   133    1
    68    76    75    1
    69    35    33   ar
    70   108   110   ar
    71   104   105    1
    72   102   103    2
    73   102   112   am
    74    33    32    1
    75   105   107   ar
    76    45    44    1
    77    45    47   ar
    78    19    18    2
    79   136   135    2
    80    29    32    1
    81    29    28    1
    82   112   113    1
    83   135   141   am
    84    75    72    1
    85    72    71    1
    86    72    73    1
    87   110   111    1
    88   110   109   ar
    89   113   116    1
    90   113   114    1
    91   141   142    1
    92    18    28   am
    93    18    17    1
    94    15    13    1
    95   107   109   ar
    96   116   118    1
    97   116   117    1
    98    73    74    2
    99   155   158    1
   100   155   154    1
   101   155   156    1
   102   158   159    1
   103   142   145    1
   104   142   143    1
   105   114   115    2
   106   114   119   am
   107   157   156    2
   108    12    14    1
   109    12    13    1
   110    12     9    1
   111    16    17    1
   112    16    10   am
   113    17    20    1
   114   156   162   am
   115    20    21    1
   116   119   120    1
   117   144   143    2
   118   143   146   am
   119   159   160    2
   120   159   161   am
   121    10     9    1
   122    10    11    2
   123     9     8    1
   124   121   120    1
   125   121   122    2
   126    23    21   ar
   127    23    25   ar
   128   146   147    1
   129    21    22   ar
   130   162   163    1
   131   120   123    1
   132   148   147    1
   133   148   149    2
   134   125   127   ar
   135   125   124   ar
   136   164   165    2
   137   164   163    1
   138   123   124    1
   139     8     3   am
   140    25    26   ar
   141   127   128   ar
   142   124   126   ar
   143   163   166    1
   144   147   150    1
   145    22    24   ar
   146     4     3    2
   147   128   126   ar
   148   128   130   ar
   149   126   129   ar
   150     3     2    1
   151   150   151    1
   152    26    24   ar
   153    26    27    1
   154   130   132   ar
   155   166   167    1
   156   129   131   ar
   157   151   152    1
   158   151   153    1
   159   168   167   ar
   160   168   170   ar
   161   167   169   ar
   162   132   131   ar
   163     2     5    1
   164     2     1    1
   165   170   172   ar
   166   169   171   ar
   167     5     6    1
   168   172   171   ar
   169   172   173    1
   170     1     7    1
   171     7     6    1
   172   201   202   ar
   173   201   199   ar
   174   180   178    1
   175   181   179    1
   176   191   189   ar
   177   191   192   ar
   178   189   187   ar
   179   202   200   ar
   180   192   190   ar
   181   199   198   ar
   182   187   186    1
   183   187   188   ar
   184   186   183    1
   185   178   179    1
   186   178   175    1
   187   190   188   ar
   188   200   198   ar
   189   185   184    2
   190   198   197    1
   191   183   184    1
   192   183   182    1
   193   184   193   am
   194   175   174    1
   195   175   176    1
   196   193   194    1
   197   194   197    1
   198   194   195    1
   199   177   176    2
   200   196   195    2
