@<TRIPOS>MOLECULE
tmp/4mwoA00.pdb
 191 188 0 0 0
SMALL
GASTEIGER

@<TRIPOS>ATOM
      1  N        -15.6130    2.9800  -18.1200 N.3     7  ASP7       -0.1239
      2  CA       -16.7120    3.4410  -18.9020 C.3     7  ASP7        0.1674
      3  C        -17.7110    4.3480  -18.1490 C.2     7  ASP7        0.2266
      4  O        -17.7520    4.3400  -16.9320 O.2     7  ASP7       -0.2867
      5  CB       -17.4250    2.1890  -19.4380 C.3     7  ASP7        0.1410
      6  CG       -18.5180    2.4910  -20.3680 C.2     7  ASP7        0.3668
      7  OD1      -18.4310    3.3750  -21.2190 O.co2   7  ASP7       -0.2456
      8  OD2      -19.5390    1.7240  -20.2640 O.co2   7  ASP7       -0.2456
      9  N        -21.4050    5.4900  -19.4250 N.3     9  ASP9       -0.1239
     10  CA       -22.8330    5.1140  -19.4030 C.3     9  ASP9        0.1674
     11  C        -23.0230    3.6460  -18.9970 C.2     9  ASP9        0.2266
     12  O        -22.4080    2.7950  -19.6350 O.2     9  ASP9       -0.2867
     13  CB       -23.4650    5.3270  -20.8070 C.3     9  ASP9        0.1410
     14  CG       -23.5170    6.7730  -21.1900 C.2     9  ASP9        0.3668
     15  OD1      -24.0720    7.5430  -20.3940 O.co2   9  ASP9       -0.2456
     16  OD2      -22.9240    7.1210  -22.3060 O.co2   9  ASP9       -0.2456
     17  N        -27.6310    5.2190  -17.1880 N.3    15  PHE15      -0.1227
     18  CA       -28.2080    5.4180  -18.5030 C.3    15  PHE15       0.1736
     19  C        -29.5380    4.6570  -18.6010 C.2    15  PHE15       0.2595
     20  O        -30.5280    5.2030  -19.0460 O.2    15  PHE15      -0.2718
     21  CB       -27.2000    4.9860  -19.5580 C.3    15  PHE15       0.0547
     22  CG       -27.6780    5.1760  -20.9840 C.ar   15  PHE15      -0.0202
     23  CD1      -28.5490    4.3040  -21.5560 C.ar   15  PHE15      -0.0042
     24  CD2      -27.2330    6.3010  -21.7200 C.ar   15  PHE15      -0.0042
     25  CE1      -29.0140    4.5220  -22.8420 C.ar   15  PHE15      -0.0003
     26  CE2      -27.6860    6.4930  -23.0250 C.ar   15  PHE15      -0.0003
     27  CZ       -28.5650    5.6210  -23.5740 C.ar   15  PHE15      -0.0000
     28  N        -29.5680    3.3930  -18.1850 N.am   16  GLU16      -0.1979
     29  CA       -30.7820    2.5960  -18.4080 C.3    16  GLU16       0.1602
     30  C        -31.9410    3.1370  -17.6090 C.2    16  GLU16       0.2287
     31  O        -33.0600    3.2430  -18.1200 O.2    16  GLU16      -0.2864
     32  CB       -30.5570    1.1240  -18.0580 C.3    16  GLU16       0.0415
     33  CG       -29.4640    0.4440  -18.8850 C.3    16  GLU16       0.1163
     34  CD       -29.9200   -0.0850  -20.2200 C.2    16  GLU16       0.3649
     35  OE1      -31.1400   -0.0490  -20.5180 O.co2  16  GLU16      -0.2457
     36  OE2      -29.0740   -0.5990  -21.0020 O.co2  16  GLU16      -0.2457
     37  N        -27.1510   -5.1770  -25.8310 N.3    41  PHE41      -0.1227
     38  CA       -26.5380   -3.9340  -25.5310 C.3    41  PHE41       0.1736
     39  C        -27.3280   -2.7540  -26.0090 C.2    41  PHE41       0.2595
     40  O        -27.4630   -1.7770  -25.3130 O.2    41  PHE41      -0.2718
     41  CB       -25.1530   -3.9010  -26.1620 C.3    41  PHE41       0.0547
     42  CG       -24.4390   -2.6670  -25.9270 C.ar   41  PHE41      -0.0202
     43  CD1      -23.9940   -2.3550  -24.6730 C.ar   41  PHE41      -0.0042
     44  CD2      -24.2060   -1.7660  -26.9410 C.ar   41  PHE41      -0.0042
     45  CE1      -23.3140   -1.2230  -24.4220 C.ar   41  PHE41      -0.0003
     46  CE2      -23.5540   -0.5860  -26.7130 C.ar   41  PHE41      -0.0003
     47  CZ       -23.0950   -0.2940  -25.4310 C.ar   41  PHE41      -0.0000
     48  N        -27.9140   -2.8970  -27.1970 N.am   42  TRP42      -0.1962
     49  CA       -28.5510   -1.7620  -27.8500 C.3    42  TRP42       0.1771
     50  C        -30.0220   -1.6250  -27.4470 C.2    42  TRP42       0.2619
     51  O        -30.9100   -2.4090  -27.8930 O.2    42  TRP42      -0.2715
     52  CB       -28.4690   -1.9190  -29.3690 C.3    42  TRP42       0.0590
     53  CG       -27.0870   -2.0690  -29.9000 C.ar   42  TRP42       0.0006
     54  CD1      -26.5610   -3.1890  -30.4420 C.ar   42  TRP42       0.0946
     55  CD2      -26.0880   -1.0670  -30.0040 C.ar   42  TRP42       0.0152
     56  NE1      -25.2720   -2.9580  -30.8340 N.ar   42  TRP42      -0.2442
     57  CE2      -24.9610   -1.6630  -30.5940 C.ar   42  TRP42       0.0810
     58  CE3      -26.0300    0.2630  -29.6530 C.ar   42  TRP42       0.0012
     59  CZ2      -23.7940   -0.9570  -30.8570 C.ar   42  TRP42       0.0191
     60  CZ3      -24.8350    0.9650  -29.8740 C.ar   42  TRP42       0.0001
     61  CH2      -23.7590    0.3420  -30.5070 C.ar   42  TRP42       0.0015
     62  N        -30.2600   -0.6220  -26.6130 N.am   43  VAL43      -0.1963
     63  CA       -31.6190   -0.2390  -26.1900 C.3    43  VAL43       0.1727
     64  C        -32.5720   -0.0850  -27.4010 C.2    43  VAL43       0.2616
     65  O        -33.6950   -0.6110  -27.4260 O.2    43  VAL43      -0.2715
     66  CB       -31.6200    1.1180  -25.4260 C.3    43  VAL43       0.0290
     67  CG1      -33.0580    1.5860  -25.1400 C.3    43  VAL43       0.0023
     68  CG2      -30.7460    1.0390  -24.2050 C.3    43  VAL43       0.0023
     69  N        -32.0980    0.6580  -28.3940 N.am   44  SER44      -0.1950
     70  CA       -32.9370    1.0160  -29.5480 C.3    44  SER44       0.1924
     71  C        -33.3940   -0.2030  -30.3100 C.2    44  SER44       0.2314
     72  O        -34.5460   -0.2770  -30.8020 O.2    44  SER44      -0.2863
     73  CB       -32.1850    2.0040  -30.4800 C.3    44  SER44       0.2116
     74  OG       -30.9480    1.4660  -30.8830 O.3    44  SER44      -0.2180
     75  N        -34.3630    6.7030  -29.3990 N.3    59  ILE59      -0.1245
     76  CA       -33.2200    7.5110  -29.7540 C.3    59  ILE59       0.1561
     77  C        -33.4660    8.9600  -29.3870 C.2    59  ILE59       0.2260
     78  O        -32.6090    9.6540  -28.8740 O.2    59  ILE59      -0.2867
     79  CB       -32.8930    7.3380  -31.2460 C.3    59  ILE59       0.0252
     80  CG1      -32.3210    5.9150  -31.4600 C.3    59  ILE59       0.0019
     81  CG2      -31.9090    8.3920  -31.7090 C.3    59  ILE59       0.0019
     82  CD1      -32.2730    5.4260  -32.8850 C.3    59  ILE59       0.0001
     83  N        -32.3370   10.0450  -25.7860 N.3    62  TRP62      -0.1241
     84  CA       -30.9190   10.3390  -25.5210 C.3    62  TRP62       0.1605
     85  C        -30.3190   11.4270  -26.3710 C.2    62  TRP62       0.2264
     86  O        -29.3050   11.9560  -26.0090 O.2    62  TRP62      -0.2867
     87  CB       -30.0230    9.1080  -25.4310 C.3    62  TRP62       0.0550
     88  CG       -29.9980    8.2190  -26.5540 C.ar   62  TRP62       0.0003
     89  CD1      -29.3610    8.4210  -27.7320 C.ar   62  TRP62       0.0946
     90  CD2      -30.6000    6.9120  -26.6400 C.ar   62  TRP62       0.0152
     91  NE1      -29.4990    7.3380  -28.5320 N.ar   62  TRP62      -0.2442
     92  CE2      -30.2620    6.3900  -27.8890 C.ar   62  TRP62       0.0810
     93  CE3      -31.3900    6.1350  -25.7660 C.ar   62  TRP62       0.0012
     94  CZ2      -30.6760    5.1350  -28.3030 C.ar   62  TRP62       0.0191
     95  CZ3      -31.7730    4.9070  -26.1560 C.ar   62  TRP62       0.0001
     96  CH2      -31.4680    4.4140  -27.4210 C.ar   62  TRP62       0.0015
     97  N        -27.9780   13.4010  -20.9210 N.3    68  PHE68      -0.1241
     98  CA       -26.7410   12.9840  -20.2770 C.3    68  PHE68       0.1605
     99  C        -26.4130   13.7020  -18.9600 C.2    68  PHE68       0.2264
    100  O        -26.0090   13.0500  -17.9520 O.2    68  PHE68      -0.2867
    101  CB       -25.5440   12.9960  -21.2930 C.3    68  PHE68       0.0534
    102  CG       -25.6490   11.9260  -22.3090 C.ar   68  PHE68      -0.0203
    103  CD1      -25.2040   10.6550  -22.0630 C.ar   68  PHE68      -0.0042
    104  CD2      -26.2300   12.1690  -23.5280 C.ar   68  PHE68      -0.0042
    105  CE1      -25.3340    9.6520  -23.0060 C.ar   68  PHE68      -0.0003
    106  CE2      -26.3770   11.2010  -24.4540 C.ar   68  PHE68      -0.0003
    107  CZ       -25.9190    9.9000  -24.2160 C.ar   68  PHE68      -0.0000
    108  N        -15.1360    7.0160  -22.6750 N.3    96  THR96      -0.1203
    109  CA       -16.5530    7.0270  -22.9820 C.3    96  THR96       0.1994
    110  C        -16.7450    7.4040  -24.4490 C.2    96  THR96       0.2619
    111  O        -16.0190    8.2430  -25.0060 O.2    96  THR96      -0.2717
    112  CB       -17.3280    8.0040  -22.0400 C.3    96  THR96       0.1784
    113  OG1      -18.7120    8.0290  -22.3860 O.3    96  THR96      -0.2211
    114  CG2      -16.8140    9.3820  -22.0760 C.3    96  THR96       0.0376
    115  N        -17.7160    6.7630  -25.0840 N.am   97  SER97      -0.1938
    116  CA       -18.0810    7.0410  -26.4700 C.3    97  SER97       0.2040
    117  C        -19.3140    7.8820  -26.5190 C.2    97  SER97       0.2485
    118  O        -20.3880    7.4250  -26.1080 O.2    97  SER97      -0.2729
    119  CB       -18.3650    5.7490  -27.2340 C.3    97  SER97       0.2129
    120  OG       -17.3270    4.7730  -27.1630 O.3    97  SER97      -0.2179
    121  N        -19.2320    9.0490  -27.0960 N.am   98  PRO98      -0.2715
    122  CA       -20.4540    9.8550  -27.2360 C.3    98  PRO98       0.1536
    123  C        -21.3410    9.2840  -28.3580 C.2    98  PRO98       0.2598
    124  O        -20.8680    8.5460  -29.2490 O.2    98  PRO98      -0.2715
    125  CB       -19.9140   11.2090  -27.6200 C.3    98  PRO98       0.0310
    126  CG       -18.6920   10.9190  -28.3610 C.3    98  PRO98       0.0237
    127  CD       -18.0520    9.7050  -27.7010 C.3    98  PRO98       0.0939
    128  N        -22.6270    9.5680  -28.2610 N.am   99  ILE99      -0.1964
    129  CA       -23.5430    9.2060  -29.3200 C.3    99  ILE99       0.1727
    130  C        -23.2540    9.9640  -30.6040 C.2    99  ILE99       0.2616
    131  O        -22.4820   10.8990  -30.6100 O.2    99  ILE99      -0.2715
    132  CB       -24.9890    9.4220  -28.8680 C.3    99  ILE99       0.0290
    133  CG1      -25.2720   10.9110  -28.4860 C.3    99  ILE99       0.0022
    134  CG2      -25.3440    8.4550  -27.7740 C.3    99  ILE99       0.0023
    135  CD1      -26.7380   11.2740  -28.4910 C.3    99  ILE99       0.0001
    136  N        -23.9000    9.5810  -31.7130 N.am  100  LYS100     -0.1977
    137  CA       -23.5250   10.1870  -32.9840 C.3   100  LYS100      0.1596
    138  C        -23.9640   11.6720  -33.0660 C.2   100  LYS100      0.2287
    139  O        -23.2700   12.5010  -33.6900 O.2   100  LYS100     -0.2864
    140  CB       -24.0640    9.3810  -34.1880 C.3   100  LYS100      0.0298
    141  CG       -23.4050    8.0230  -34.4070 C.3   100  LYS100      0.0038
    142  CD       -21.9440    8.1550  -34.7910 C.3   100  LYS100      0.0206
    143  CE       -21.2250    6.8400  -35.0260 C.3   100  LYS100      0.1093
    144  NZ       -21.9790    5.6870  -34.4550 N.3   100  LYS100     -0.1314
    145  N        -14.8910    6.7650  -29.8620 N.3   129  ARG129     -0.1245
    146  CA       -15.7490    5.6620  -30.2860 C.3   129  ARG129      0.1563
    147  C        -15.0110    4.3730  -30.2660 C.2   129  ARG129      0.2260
    148  O        -15.6160    3.3090  -30.2690 O.2   129  ARG129     -0.2867
    149  CB       -16.3810    5.9310  -31.6900 C.3   129  ARG129      0.0307
    150  CG       -17.1570    4.7500  -32.2910 C.3   129  ARG129      0.0489
    151  CD       -17.9400    5.1590  -33.5250 C.3   129  ARG129      0.2205
    152  NE       -18.7970    4.0880  -34.0220 N.pl3 129  ARG129     -0.0865
    153  CZ       -18.3790    3.0930  -34.7920 C.cat 129  ARG129      0.5346
    154  NH1      -17.0970    2.9880  -35.1320 N.pl3 129  ARG129      0.1354
    155  NH2      -19.2400    2.1680  -35.2090 N.pl3 129  ARG129      0.1354
    156  N        -12.3230    2.2480  -28.3170 N.3   131  LYS131     -0.1245
    157  CA       -11.5420    2.1110  -27.1020 C.3   131  LYS131      0.1561
    158  C        -10.3580    1.2310  -27.2430 C.2   131  LYS131      0.2260
    159  O         -9.5090    1.1860  -26.3420 O.2   131  LYS131     -0.2867
    160  CB       -12.4480    1.6040  -25.9760 C.3   131  LYS131      0.0271
    161  CG       -13.6280    2.5310  -25.7460 C.3   131  LYS131      0.0035
    162  CD       -14.4600    2.2740  -24.5000 C.3   131  LYS131      0.0206
    163  CE       -15.6770    3.1580  -24.5180 C.3   131  LYS131      0.1093
    164  NZ       -16.4410    2.9830  -23.2500 N.3   131  LYS131     -0.1314
    165  N        -16.2340   -1.9570  -18.4360 N.3   141  ASP141     -0.1225
    166  CA       -17.2340   -1.5110  -19.4410 C.3   141  ASP141      0.1805
    167  C        -18.3220   -2.5450  -19.5120 C.2   141  ASP141      0.2598
    168  O        -18.0410   -3.7660  -19.4240 O.2   141  ASP141     -0.2718
    169  CB       -16.5010   -1.3300  -20.8000 C.3   141  ASP141      0.1424
    170  CG       -17.3010   -0.6170  -21.8240 C.2   141  ASP141      0.3668
    171  OD1      -18.4730   -0.9300  -22.0270 O.co2 141  ASP141     -0.2456
    172  OD2      -16.7330    0.2870  -22.5090 O.co2 141  ASP141     -0.2456
    173  N        -19.5910   -2.1100  -19.5190 N.am  142  ASP142     -0.1960
    174  CA       -20.7530   -3.0110  -19.6190 C.3   142  ASP142      0.1840
    175  C        -21.0890   -3.5670  -21.0040 C.2   142  ASP142      0.2621
    176  O        -21.9650   -4.4410  -21.1470 O.2   142  ASP142     -0.2715
    177  CB       -21.9980   -2.3430  -19.0130 C.3   142  ASP142      0.1450
    178  CG       -22.5350   -1.2310  -19.8670 C.2   142  ASP142      0.3671
    179  OD1      -21.7080   -0.4500  -20.3780 O.co2 142  ASP142     -0.2456
    180  OD2      -23.7780   -1.1150  -19.9960 O.co2 142  ASP142     -0.2456
    181  N        -20.3920   -3.0870  -22.0450 N.am  143  ARG143     -0.1977
    182  CA       -20.5880   -3.6420  -23.3900 C.3   143  ARG143      0.1597
    183  C        -19.8880   -4.9820  -23.5620 C.2   143  ARG143      0.2287
    184  O        -18.6970   -5.0360  -23.3010 O.2   143  ARG143     -0.2864
    185  CB       -20.0530   -2.6430  -24.4290 C.3   143  ARG143      0.0334
    186  CG       -20.3590   -3.0160  -25.8200 C.3   143  ARG143      0.0492
    187  CD       -20.0780   -1.9280  -26.8460 C.3   143  ARG143      0.2205
    188  NE       -20.3330   -2.4680  -28.1760 N.pl3 143  ARG143     -0.0865
    189  CZ       -20.4130   -1.7150  -29.2710 C.cat 143  ARG143      0.5346
    190  NH1      -20.3420   -0.4140  -29.1970 N.pl3 143  ARG143      0.1354
    191  NH2      -20.5660   -2.2730  -30.4350 N.pl3 143  ARG143      0.1354
@<TRIPOS>BOND
     1   155   153    1
     2   154   153    1
     3   143   142    1
     4   143   144    1
     5   153   152    2
     6   142   141    1
     7   141   140    1
     8   140   137    1
     9   152   151    1
    10   139   138    2
    11   151   150    1
    12   138   137    1
    13   137   136    1
    14    82    80    1
    15   150   149    1
    16   136   130   am
    17    81    79    1
    18   149   146    1
    19    80    79    1
    20    79    76    1
    21    74    73    1
    22    59    57   ar
    23    59    61   ar
    24    56    57   ar
    25    56    54   ar
    26    72    71    2
    27   131   130    2
    28   130   129    1
    29    57    55   ar
    30    61    60   ar
    31    73    70    1
    32    54    53   ar
    33   191   189    1
    34    71    70    1
    35   146   147    1
    36   146   145    1
    37   148   147    2
    38    55    53   ar
    39    55    58   ar
    40    53    52    1
    41    60    58   ar
    42    76    75    1
    43    76    77    1
    44    70    69    1
    45    77    78    2
    46    52    49    1
    47   129   132    1
    48   129   128    1
    49   189   190    1
    50   189   188    2
    51   124   123    2
    52   132   133    1
    53   132   134    1
    54    91    92   ar
    55    91    89   ar
    56   135   133    1
    57    69    64   am
    58   126   127    1
    59   126   125    1
    60   123   128   am
    61   123   122    1
    62   156   157    1
    63    94    92   ar
    64    94    96   ar
    65   188   187    1
    66    51    50    2
    67    92    90   ar
    68    49    50    1
    69    49    48    1
    70    89    88   ar
    71   127   121    1
    72   125   122    1
    73    50    62   am
    74    65    64    2
    75    96    95   ar
    76    64    63    1
    77   158   157    1
    78   158   159    2
    79   122   121    1
    80   119   120    1
    81   119   116    1
    82    48    39   am
    83   157   160    1
    84   121   117   am
    85    44    46   ar
    86    44    42   ar
    87   187   186    1
    88    46    47   ar
    89    90    88   ar
    90    90    93   ar
    91    62    63    1
    92    88    87    1
    93   117   116    1
    94   117   118    2
    95   116   115    1
    96    85    86    2
    97    85    84    1
    98    63    66    1
    99    41    42    1
   100    41    38    1
   101    95    93   ar
   102    39    38    1
   103    39    40    2
   104   160   161    1
   105    42    43   ar
   106    37    38    1
   107   186   185    1
   108    83    84    1
   109   161   162    1
   110    84    87    1
   111    47    45   ar
   112    66    67    1
   113    66    68    1
   114   115   110   am
   115   111   110    2
   116    43    45   ar
   117   163   162    1
   118   163   164    1
   119   106   107   ar
   120   106   104   ar
   121   110   109    1
   122   185   182    1
   123   107   105   ar
   124    27    26   ar
   125    27    25   ar
   126   183   182    1
   127   183   184    2
   128   104   102   ar
   129   182   181    1
   130    26    24   ar
   131   105   103   ar
   132   109   108    1
   133   109   112    1
   134    25    23   ar
   135   172   170   ar
   136   113   112    1
   137   102   103   ar
   138   102   101    1
   139    16    14   ar
   140   114   112    1
   141   181   175   am
   142   171   170   ar
   143   170   169    1
   144    24    22   ar
   145    23    22   ar
   146   101    98    1
   147     7     6   ar
   148    14    13    1
   149    14    15   ar
   150   176   175    2
   151   175   174    1
   152    36    34   ar
   153    22    21    1
   154    97    98    1
   155    13    10    1
   156   169   166    1
   157    35    34   ar
   158   179   178   ar
   159     6     8   ar
   160     6     5    1
   161    98    99    1
   162    34    33    1
   163   180   178   ar
   164   178   177    1
   165    12    11    2
   166   174   173    1
   167   174   177    1
   168    21    18    1
   169   173   167   am
   170   167   166    1
   171   167   168    2
   172   166   165    1
   173     5     2    1
   174     9    10    1
   175    10    11    1
   176    20    19    2
   177    99   100    2
   178     2     3    1
   179     2     1    1
   180    33    32    1
   181    19    18    1
   182    19    28   am
   183    18    17    1
   184    29    28    1
   185    29    32    1
   186    29    30    1
   187     3     4    2
   188    31    30    2
