@<TRIPOS>MOLECULE
tmp/4mwuA01.pdb
 171 160 0 0 0
SMALL
GASTEIGER

@<TRIPOS>ATOM
      1  N         63.2080   12.9160  -15.8720 N.3    37  ARG37      -0.1231
      2  CA        63.1550   14.2940  -16.3570 C.3    37  ARG37       0.1694
      3  C         61.7470   14.5010  -16.9010 C.2    37  ARG37       0.2591
      4  O         60.9390   13.5720  -16.8830 O.2    37  ARG37      -0.2718
      5  CB        64.2270   14.6080  -17.4150 C.3    37  ARG37       0.0321
      6  CG        65.3850   15.4820  -16.8940 C.3    37  ARG37       0.0489
      7  CD        65.9110   16.4690  -17.9600 C.3    37  ARG37       0.2205
      8  NE        64.9230   17.5120  -18.2560 N.pl3  37  ARG37      -0.0865
      9  CZ        64.8260   18.1600  -19.4130 C.cat  37  ARG37       0.5346
     10  NH1       65.6640   17.8910  -20.4120 N.pl3  37  ARG37       0.1354
     11  NH2       63.8810   19.0810  -19.5740 N.pl3  37  ARG37       0.1354
     12  N         61.4570   15.7130  -17.3670 N.am   38  GLU38      -0.1979
     13  CA        60.1220   16.0660  -17.8580 C.3    38  GLU38       0.1602
     14  C         58.9910   15.7330  -16.8670 C.2    38  GLU38       0.2287
     15  O         58.0510   15.0170  -17.2120 O.2    38  GLU38      -0.2864
     16  CB        59.8480   15.4070  -19.2260 C.3    38  GLU38       0.0415
     17  CG        60.8320   15.8030  -20.3510 C.3    38  GLU38       0.1163
     18  CD        62.1520   15.0220  -20.3250 C.2    38  GLU38       0.3649
     19  OE1       62.1600   13.8550  -19.8890 O.co2  38  GLU38      -0.2457
     20  OE2       63.1970   15.5760  -20.7490 O.co2  38  GLU38      -0.2457
     21  N         59.0250   11.2520  -16.6160 N.3    53  LEU53      -0.1245
     22  CA        59.5570   10.1780  -17.4410 C.3    53  LEU53       0.1561
     23  C         60.7830    9.5760  -16.7660 C.2    53  LEU53       0.2260
     24  O         61.8400   10.2060  -16.6860 O.2    53  LEU53      -0.2867
     25  CB        59.9320   10.6980  -18.8310 C.3    53  LEU53       0.0270
     26  CG        58.7870   11.2570  -19.6770 C.3    53  LEU53       0.0019
     27  CD1       59.3170   11.8750  -20.9690 C.3    53  LEU53       0.0001
     28  CD2       57.7680   10.1640  -19.9880 C.3    53  LEU53       0.0001
     29  N         67.4980   11.7180  -24.5190 N.3    70  ASP70      -0.1225
     30  CA        66.0460   11.9400  -24.4370 C.3    70  ASP70       0.1805
     31  C         65.1530   10.7240  -24.6380 C.2    70  ASP70       0.2597
     32  O         64.0970   10.6310  -24.0200 O.2    70  ASP70      -0.2718
     33  CB        65.6140   13.0060  -25.4500 C.3    70  ASP70       0.1424
     34  CG        65.9970   14.4020  -25.0260 C.2    70  ASP70       0.3668
     35  OD1       65.7160   14.7620  -23.8660 O.co2  70  ASP70      -0.2456
     36  OD2       66.5780   15.1420  -25.8510 O.co2  70  ASP70      -0.2456
     37  N         65.5440    9.8200  -25.5330 N.am   71  ARG71      -0.1979
     38  CA        64.5970    8.8140  -26.0180 C.3    71  ARG71       0.1597
     39  C         65.1700    7.4070  -26.0870 C.2    71  ARG71       0.2287
     40  O         65.5800    6.9550  -27.1540 O.2    71  ARG71      -0.2864
     41  CB        64.0750    9.2010  -27.4110 C.3    71  ARG71       0.0334
     42  CG        63.3090   10.5270  -27.4500 C.3    71  ARG71       0.0492
     43  CD        62.8160   10.8640  -28.8620 C.3    71  ARG71       0.2205
     44  NE        63.9230   10.8970  -29.8160 N.pl3  71  ARG71      -0.0865
     45  CZ        64.7710   11.9130  -29.9540 C.cat  71  ARG71       0.5346
     46  NH1       64.6570   12.9950  -29.1900 N.pl3  71  ARG71       0.1354
     47  NH2       65.7520   11.8380  -30.8450 N.pl3  71  ARG71       0.1354
     48  N         62.6710    4.1970  -20.9050 N.3    75  ARG75      -0.1245
     49  CA        61.8830    5.2710  -20.3130 C.3    75  ARG75       0.1563
     50  C         60.4200    4.8880  -20.1700 C.2    75  ARG75       0.2260
     51  O         59.8970    4.0680  -20.9310 O.2    75  ARG75      -0.2867
     52  CB        62.0200    6.5620  -21.1290 C.3    75  ARG75       0.0307
     53  CG        63.4590    7.0490  -21.2680 C.3    75  ARG75       0.0489
     54  CD        63.5120    8.5520  -21.5030 C.3    75  ARG75       0.2205
     55  NE        63.2960    9.3050  -20.2620 N.pl3  75  ARG75      -0.0865
     56  CZ        63.4530   10.6170  -20.1630 C.cat  75  ARG75       0.5346
     57  NH1       63.2570   11.2310  -18.9990 N.pl3  75  ARG75       0.1354
     58  NH2       63.8310   11.3130  -21.2300 N.pl3  75  ARG75       0.1354
     59  N         58.7360    7.8890  -24.1360 N.3    98  TRP98      -0.1227
     60  CA        59.6420    9.0110  -23.8750 C.3    98  TRP98       0.1737
     61  C         59.0140   10.3930  -24.1320 C.2    98  TRP98       0.2596
     62  O         59.7120   11.4040  -24.1910 O.2    98  TRP98      -0.2718
     63  CB        60.9470    8.8330  -24.6720 C.3    98  TRP98       0.0564
     64  CG        60.7890    8.3040  -26.0850 C.ar   98  TRP98       0.0003
     65  CD1       61.2130    7.0880  -26.5560 C.ar   98  TRP98       0.0946
     66  CD2       60.1970    8.9820  -27.2060 C.ar   98  TRP98       0.0152
     67  NE1       60.9100    6.9670  -27.8960 N.ar   98  TRP98      -0.2442
     68  CE2       60.2890    8.1140  -28.3180 C.ar   98  TRP98       0.0810
     69  CE3       59.5930   10.2330  -27.3760 C.ar   98  TRP98       0.0012
     70  CZ2       59.8010    8.4610  -29.5830 C.ar   98  TRP98       0.0191
     71  CZ3       59.1080   10.5770  -28.6270 C.ar   98  TRP98       0.0001
     72  CH2       59.2100    9.6920  -29.7170 C.ar   98  TRP98       0.0015
     73  N         57.6920   10.4250  -24.2760 N.am   99  SER99      -0.1952
     74  CA        56.9320   11.6760  -24.3430 C.3    99  SER99       0.1924
     75  C         55.5320   11.3470  -23.8590 C.2    99  SER99       0.2314
     76  O         54.9610   10.3370  -24.2830 O.2    99  SER99      -0.2863
     77  CB        56.8770   12.2270  -25.7730 C.3    99  SER99       0.2116
     78  OG        56.1670   13.4630  -25.8170 O.3    99  SER99      -0.2180
     79  N         59.9400   12.1440  -34.9260 N.3   142  ILE142     -0.1245
     80  CA        59.8050   12.3400  -33.4790 C.3   142  ILE142      0.1561
     81  C         58.4180   12.8480  -33.0620 C.2   142  ILE142      0.2260
     82  O         58.2610   13.9700  -32.5690 O.2   142  ILE142     -0.2867
     83  CB        60.9390   13.2280  -32.9090 C.3   142  ILE142      0.0252
     84  CG1       62.2970   12.7750  -33.4620 C.3   142  ILE142      0.0019
     85  CG2       60.9640   13.1550  -31.3820 C.3   142  ILE142      0.0019
     86  CD1       63.4820   13.6460  -32.9970 C.3   142  ILE142      0.0001
     87  N         55.5940   13.6710  -30.8190 N.3   144  ARG144     -0.1245
     88  CA        55.8010   14.1440  -29.4500 C.3   144  ARG144      0.1563
     89  C         54.6120   14.9460  -28.9290 C.2   144  ARG144      0.2260
     90  O         53.8200   15.4850  -29.7070 O.2   144  ARG144     -0.2867
     91  CB        57.0900   14.9610  -29.3590 C.3   144  ARG144      0.0307
     92  CG        57.1840   16.1220  -30.3540 C.3   144  ARG144      0.0489
     93  CD        58.6470   16.4880  -30.5980 C.3   144  ARG144      0.2205
     94  NE        58.8190   17.7000  -31.4090 N.pl3 144  ARG144     -0.0865
     95  CZ        58.8580   17.7230  -32.7380 C.cat 144  ARG144      0.5346
     96  NH1       58.7020   16.6020  -33.4350 N.pl3 144  ARG144      0.1354
     97  NH2       59.0400   18.8780  -33.3720 N.pl3 144  ARG144      0.1354
     98  N         54.0940   16.7390  -22.2890 N.3   147  GLU147     -0.1245
     99  CA        54.9490   16.6030  -21.0960 C.3   147  GLU147      0.1567
    100  C         54.3710   17.2950  -19.8590 C.2   147  GLU147      0.2260
    101  O         55.1030   17.6150  -18.9290 O.2   147  GLU147     -0.2867
    102  CB        56.4080   17.0500  -21.3300 C.3   147  GLU147      0.0388
    103  CG        56.9860   16.7750  -22.7260 C.3   147  GLU147      0.1160
    104  CD        57.0910   15.3000  -23.0730 C.2   147  GLU147      0.3649
    105  OE1       56.7000   14.4410  -22.2550 O.co2 147  GLU147     -0.2457
    106  OE2       57.5720   14.9970  -24.1850 O.co2 147  GLU147     -0.2457
    107  N         62.0130   20.1360  -35.6840 N.3   166  ALA166     -0.1245
    108  CA        62.1630   20.9360  -34.4750 C.3   166  ALA166      0.1562
    109  C         62.7340   22.3100  -34.8200 C.2   166  ALA166      0.2260
    110  O         62.8500   23.1830  -33.9540 O.2   166  ALA166     -0.2867
    111  CB        63.0740   20.2250  -33.4890 C.3   166  ALA166      0.0290
    112  N         55.3110   23.0910  -29.5940 N.3   196  GLU196     -0.1231
    113  CA        55.7770   21.9360  -28.8350 C.3   196  GLU196      0.1699
    114  C         55.3460   22.0430  -27.3790 C.2   196  GLU196      0.2592
    115  O         55.1460   23.1490  -26.8630 O.2   196  GLU196     -0.2718
    116  CB        57.3060   21.8270  -28.8890 C.3   196  GLU196      0.0402
    117  CG        57.8830   21.5970  -30.2810 C.3   196  GLU196      0.1161
    118  CD        59.3680   21.3290  -30.2550 C.2   196  GLU196      0.3649
    119  OE1       59.8560   20.5740  -31.1260 O.co2 196  GLU196     -0.2457
    120  OE2       60.0470   21.8790  -29.3620 O.co2 196  GLU196     -0.2457
    121  N         55.2050   20.8880  -26.7300 N.am  197  GLU197     -0.1979
    122  CA        55.1440   20.8180  -25.2640 C.3   197  GLU197      0.1602
    123  C         54.1490   21.7820  -24.6160 C.2   197  GLU197      0.2287
    124  O         54.5040   22.5530  -23.7230 O.2   197  GLU197     -0.2864
    125  CB        56.5490   21.0390  -24.6840 C.3   197  GLU197      0.0415
    126  CG        57.5550   19.9510  -25.0940 C.3   197  GLU197      0.1163
    127  CD        58.9880   20.2240  -24.6390 C.2   197  GLU197      0.3649
    128  OE1       59.3480   21.4030  -24.4150 O.co2 197  GLU197     -0.2457
    129  OE2       59.7670   19.2470  -24.5090 O.co2 197  GLU197     -0.2457
    130  N         55.6090   25.9240  -26.5970 N.3   212  ARG212     -0.1245
    131  CA        56.9910   26.2730  -26.9090 C.3   212  ARG212      0.1563
    132  C         57.1640   26.3350  -28.4250 C.2   212  ARG212      0.2260
    133  O         56.8650   25.3780  -29.1310 O.2   212  ARG212     -0.2867
    134  CB        57.9280   25.2140  -26.3110 C.3   212  ARG212      0.0307
    135  CG        59.3550   25.1430  -26.8800 C.3   212  ARG212      0.0489
    136  CD        60.0870   23.9410  -26.2650 C.3   212  ARG212      0.2205
    137  NE        61.4350   23.7210  -26.7950 N.pl3 212  ARG212     -0.0865
    138  CZ        62.3130   22.8730  -26.2670 C.cat 212  ARG212      0.5346
    139  NH1       61.9890   22.1750  -25.1850 N.pl3 212  ARG212      0.1354
    140  NH2       63.5130   22.7240  -26.8110 N.pl3 212  ARG212      0.1354
    141  N         59.8470   26.1480  -30.9840 N.3   214  ASN214     -0.1240
    142  CA        61.2710   25.8190  -30.9900 C.3   214  ASN214      0.1653
    143  C         62.0190   26.3640  -32.2030 C.2   214  ASN214      0.2266
    144  O         63.2290   26.2370  -32.2970 O.2   214  ASN214     -0.2867
    145  CB        61.4880   24.3060  -30.9030 C.3   214  ASN214      0.1155
    146  CG        62.8450   23.9480  -30.3280 C.2   214  ASN214      0.2627
    147  OD1       63.1100   24.1970  -29.1500 O.2   214  ASN214     -0.2716
    148  ND2       63.7110   23.3580  -31.1490 N.am  214  ASN214     -0.0877
    149  N         68.7190   27.7240  -18.5040 N.3   290  ARG290     -0.1245
    150  CA        67.6270   27.2680  -17.6560 C.3   290  ARG290      0.1563
    151  C         67.9820   27.4490  -16.1890 C.2   290  ARG290      0.2260
    152  O         68.2240   26.4810  -15.4650 O.2   290  ARG290     -0.2867
    153  CB        67.3070   25.8050  -17.9740 C.3   290  ARG290      0.0307
    154  CG        66.8290   25.6350  -19.4140 C.3   290  ARG290      0.0489
    155  CD        66.8120   24.1810  -19.8770 C.3   290  ARG290      0.2205
    156  NE        66.1580   24.0930  -21.1830 N.pl3 290  ARG290     -0.0865
    157  CZ        65.8280   22.9590  -21.7930 C.cat 290  ARG290      0.5346
    158  NH1       66.1070   21.7910  -21.2300 N.pl3 290  ARG290      0.1354
    159  NH2       65.2180   22.9990  -22.9720 N.pl3 290  ARG290      0.1354
    160  N         62.0410   22.7420  -17.1050 N.3   324  TYR324     -0.1241
    161  CA        60.6540   22.7560  -17.5600 C.3   324  TYR324      0.1605
    162  C         59.6990   23.2990  -16.4990 C.2   324  TYR324      0.2264
    163  O         59.9560   23.1930  -15.3000 O.2   324  TYR324     -0.2867
    164  CB        60.2200   21.3410  -17.9470 C.3   324  TYR324      0.0534
    165  CG        60.6020   20.9640  -19.3520 C.ar  324  TYR324     -0.0201
    166  CD1       61.6340   21.6230  -20.0100 C.ar  324  TYR324     -0.0009
    167  CD2       59.9190   19.9620  -20.0310 C.ar  324  TYR324     -0.0009
    168  CE1       61.9800   21.2900  -21.3050 C.ar  324  TYR324      0.0417
    169  CE2       60.2510   19.6290  -21.3250 C.ar  324  TYR324      0.0417
    170  CZ        61.2810   20.2990  -21.9470 C.ar  324  TYR324      0.1957
    171  OH        61.6140   19.9860  -23.2280 O.3   324  TYR324     -0.2866
@<TRIPOS>BOND
     1   107   108    1
     2    79    80    1
     3   109   108    1
     4   109   110    2
     5   108   111    1
     6    80    81    1
     7    80    83    1
     8    84    86    1
     9    84    83    1
    10    96    95    1
    11    97    95    1
    12    81    82    2
    13    83    85    1
    14    95    94    2
    15   144   143    2
    16   143   142    1
    17    94    93    1
    18   148   146   am
    19   119   118   ar
    20   142   141    1
    21   142   145    1
    22   145   146    1
    23    47    45    1
    24    87    88    1
    25    93    92    1
    26    92    91    1
    27   146   147    2
    28   117   118    1
    29   117   116    1
    30   118   120   ar
    31    45    44    2
    32    45    46    1
    33    44    43    1
    34    72    70   ar
    35    72    71   ar
    36    90    89    2
    37   112   113    1
    38    70    68   ar
    39    88    91    1
    40    88    89    1
    41   133   132    2
    42   116   113    1
    43    43    42    1
    44   113   114    1
    45    71    69   ar
    46   132   131    1
    47    68    67   ar
    48    68    66   ar
    49    67    65   ar
    50    42    41    1
    51    41    38    1
    52   114   115    2
    53   114   121   am
    54    69    66   ar
    55    66    64   ar
    56    40    39    2
    57   131   130    1
    58   131   134    1
    59   135   134    1
    60   135   136    1
    61   140   138    1
    62   137   138    2
    63   137   136    1
    64   121   122    1
    65    65    64   ar
    66   138   139    1
    67    39    38    1
    68    64    63    1
    69    38    37    1
    70    36    34   ar
    71    78    77    1
    72    77    74    1
    73    37    31   am
    74    33    34    1
    75    33    30    1
    76   122   125    1
    77   122   123    1
    78   126   125    1
    79   126   127    1
    80    34    35   ar
    81    63    60    1
    82   127   129   ar
    83   127   128   ar
    84    31    30    1
    85    31    32    2
    86   123   124    2
    87    29    30    1
    88    74    73    1
    89    74    75    1
    90    76    75    2
    91    73    61   am
    92    62    61    2
    93   106   104   ar
    94    59    60    1
    95    61    60    1
    96   171   170    1
    97   104   103    1
    98   104   105   ar
    99   159   157    1
   100   103   102    1
   101    98    99    1
   102   170   169   ar
   103   170   168   ar
   104   157   158    1
   105   157   156    2
   106    54    53    1
   107    54    55    1
   108   102    99    1
   109   169   167   ar
   110   168   166   ar
   111    53    52    1
   112    58    56    1
   113   156   155    1
   114    52    49    1
   115    99   100    1
   116    27    26    1
   117    51    50    2
   118    48    49    1
   119    20    18   ar
   120    10     9    1
   121    17    18    1
   122    17    16    1
   123    18    19   ar
   124    49    50    1
   125    55    56    2
   126    56    57    1
   127   167   165   ar
   128   166   165   ar
   129    28    26    1
   130   155   154    1
   131   100   101    2
   132    26    25    1
   133    11     9    1
   134   154   153    1
   135     9     8    2
   136   165   164    1
   137    16    13    1
   138    25    22    1
   139   149   150    1
   140     8     7    1
   141   153   150    1
   142     7     6    1
   143   164   161    1
   144    13    12    1
   145    13    14    1
   146   150   151    1
   147   161   160    1
   148   161   162    1
   149    22    23    1
   150    22    21    1
   151     5     6    1
   152     5     2    1
   153    12     3   am
   154    15    14    2
   155     3     4    2
   156     3     2    1
   157    23    24    2
   158   162   163    2
   159     2     1    1
   160   151   152    2
