@<TRIPOS>MOLECULE
tmp/4mwxA01.pdb
 181 169 0 0 0
SMALL
GASTEIGER

@<TRIPOS>ATOM
      1  N        -15.9080  -63.1800  -12.8940 N.3    37  ARG37      -0.1231
      2  CA       -16.4090  -63.1200  -14.2670 C.3    37  ARG37       0.1694
      3  C        -16.9650  -61.7080  -14.4760 C.2    37  ARG37       0.2591
      4  O        -16.9490  -60.8830  -13.5500 O.2    37  ARG37      -0.2718
      5  CB       -17.4550  -64.2050  -14.5830 C.3    37  ARG37       0.0321
      6  CG       -16.9020  -65.4020  -15.3980 C.3    37  ARG37       0.0489
      7  CD       -17.9450  -65.9570  -16.4020 C.3    37  ARG37       0.2205
      8  NE       -18.2510  -64.9590  -17.4320 N.pl3  37  ARG37      -0.0865
      9  CZ       -19.4160  -64.8380  -18.0610 C.cat  37  ARG37       0.5346
     10  NH1      -20.4220  -65.6620  -17.7890 N.pl3  37  ARG37       0.1354
     11  NH2      -19.5720  -63.8810  -18.9680 N.pl3  37  ARG37       0.1354
     12  N        -17.4280  -61.4280  -15.6900 N.am   38  GLU38      -0.1979
     13  CA       -17.9290  -60.1030  -16.0520 C.3    38  GLU38       0.1602
     14  C        -16.9360  -58.9730  -15.7270 C.2    38  GLU38       0.2287
     15  O        -17.2760  -58.0360  -15.0030 O.2    38  GLU38      -0.2864
     16  CB       -19.2930  -59.8420  -15.3730 C.3    38  GLU38       0.0415
     17  CG       -20.4180  -60.8320  -15.7830 C.3    38  GLU38       0.1163
     18  CD       -20.3740  -62.1540  -15.0210 C.2    38  GLU38       0.3649
     19  OE1      -19.9150  -62.1630  -13.8580 O.co2  38  GLU38      -0.2457
     20  OE2      -20.7910  -63.1990  -15.5820 O.co2  38  GLU38      -0.2457
     21  N        -16.6720  -58.9850  -11.2360 N.3    53  LEU53      -0.1245
     22  CA       -17.4730  -59.5380  -10.1550 C.3    53  LEU53       0.1561
     23  C        -16.7900  -60.7710   -9.5670 C.2    53  LEU53       0.2260
     24  O        -16.7050  -61.8230  -10.2130 O.2    53  LEU53      -0.2867
     25  CB       -18.8780  -59.8900  -10.6460 C.3    53  LEU53       0.0270
     26  CG       -19.7380  -58.7190  -11.1250 C.3    53  LEU53       0.0019
     27  CD1      -21.0310  -59.2250  -11.7490 C.3    53  LEU53       0.0001
     28  CD2      -20.0570  -57.7690   -9.9750 C.3    53  LEU53       0.0001
     29  N        -24.5090  -67.5410  -11.5970 N.3    70  ASP70      -0.1225
     30  CA       -24.4270  -66.1000  -11.8500 C.3    70  ASP70       0.1805
     31  C        -24.6350  -65.1710  -10.6470 C.2    70  ASP70       0.2597
     32  O        -24.0180  -64.1110  -10.5810 O.2    70  ASP70      -0.2718
     33  CB       -25.4410  -65.7010  -12.9300 C.3    70  ASP70       0.1424
     34  CG       -24.9840  -66.0570  -14.3230 C.2    70  ASP70       0.3668
     35  OD1      -23.8650  -65.6500  -14.7030 O.co2  70  ASP70      -0.2456
     36  OD2      -25.7500  -66.7360  -15.0450 O.co2  70  ASP70      -0.2456
     37  N        -25.5180  -65.5420   -9.7200 N.am   71  ARG71      -0.1979
     38  CA       -26.0270  -64.5590   -8.7510 C.3    71  ARG71       0.1597
     39  C        -26.0960  -64.9920   -7.2840 C.2    71  ARG71       0.2287
     40  O        -27.1810  -65.0880   -6.7110 O.2    71  ARG71      -0.2864
     41  CB       -27.4140  -64.0720   -9.1870 C.3    71  ARG71       0.0334
     42  CG       -27.4280  -63.3170  -10.5140 C.3    71  ARG71       0.0492
     43  CD       -28.8340  -62.8130  -10.8460 C.3    71  ARG71       0.2205
     44  NE       -29.7910  -63.9160  -10.8650 N.pl3  71  ARG71      -0.0865
     45  CZ       -29.9490  -64.7560  -11.8850 C.cat  71  ARG71       0.5346
     46  NH1      -29.2100  -64.6270  -12.9820 N.pl3  71  ARG71       0.1354
     47  NH2      -30.8390  -65.7340  -11.8060 N.pl3  71  ARG71       0.1354
     48  N        -20.9140  -62.6480   -4.1840 N.3    75  ARG75      -0.1245
     49  CA       -20.3240  -61.8460   -5.2560 C.3    75  ARG75       0.1563
     50  C        -20.1870  -60.3760   -4.8740 C.2    75  ARG75       0.2260
     51  O        -20.9470  -59.8530   -4.0480 O.2    75  ARG75      -0.2867
     52  CB       -21.1390  -61.9890   -6.5470 C.3    75  ARG75       0.0307
     53  CG       -21.2470  -63.4380   -7.0330 C.3    75  ARG75       0.0489
     54  CD       -21.4750  -63.4950   -8.5280 C.3    75  ARG75       0.2205
     55  NE       -20.2370  -63.2890   -9.2850 N.pl3  75  ARG75      -0.0865
     56  CZ       -20.1440  -63.4520  -10.6000 C.cat  75  ARG75       0.5346
     57  NH1      -18.9850  -63.2600  -11.2240 N.pl3  75  ARG75       0.1354
     58  NH2      -21.2140  -63.8180  -11.2900 N.pl3  75  ARG75       0.1354
     59  N        -24.1660  -58.7330   -7.8830 N.3    98  TRP98      -0.1227
     60  CA       -23.9090  -59.6490   -8.9990 C.3    98  TRP98       0.1737
     61  C        -24.1530  -59.0280  -10.3760 C.2    98  TRP98       0.2596
     62  O        -24.1990  -59.7340  -11.3860 O.2    98  TRP98      -0.2718
     63  CB       -24.7080  -60.9550   -8.8390 C.3    98  TRP98       0.0564
     64  CG       -26.1220  -60.8020   -8.3050 C.ar   98  TRP98       0.0003
     65  CD1      -26.5860  -61.2300   -7.0910 C.ar   98  TRP98       0.0946
     66  CD2      -27.2470  -60.2090   -8.9770 C.ar   98  TRP98       0.0152
     67  NE1      -27.9220  -60.9270   -6.9620 N.ar   98  TRP98      -0.2442
     68  CE2      -28.3500  -60.3000   -8.1020 C.ar   98  TRP98       0.0810
     69  CE3      -27.4220  -59.5980  -10.2260 C.ar   98  TRP98       0.0012
     70  CZ2      -29.6150  -59.8070   -8.4350 C.ar   98  TRP98       0.0191
     71  CZ3      -28.6740  -59.1060  -10.5570 C.ar   98  TRP98       0.0001
     72  CH2      -29.7550  -59.2090   -9.6620 C.ar   98  TRP98       0.0015
     73  N        -24.3110  -57.7060  -10.4070 N.am   99  SER99      -0.1952
     74  CA       -24.3680  -56.9490  -11.6620 C.3    99  SER99       0.1924
     75  C        -23.9110  -55.5440  -11.3230 C.2    99  SER99       0.2314
     76  O        -24.3210  -55.0000  -10.2940 O.2    99  SER99      -0.2863
     77  CB       -25.7920  -56.9180  -12.2310 C.3    99  SER99       0.2116
     78  OG       -25.8260  -56.2300  -13.4810 O.3    99  SER99      -0.2180
     79  N        -34.9510  -59.8950  -12.0920 N.3   142  ILE142     -0.1245
     80  CA       -33.5100  -59.7490  -12.2720 C.3   142  ILE142      0.1561
     81  C        -33.1020  -58.3680  -12.7980 C.2   142  ILE142      0.2260
     82  O        -32.6050  -58.2320  -13.9200 O.2   142  ILE142     -0.2867
     83  CB       -32.9200  -60.8870  -13.1470 C.3   142  ILE142      0.0252
     84  CG1      -33.5250  -62.2360  -12.7360 C.3   142  ILE142      0.0019
     85  CG2      -31.3910  -60.9370  -13.0190 C.3   142  ILE142      0.0019
     86  CD1      -32.9740  -63.4330  -13.5200 C.3   142  ILE142      0.0001
     87  N        -30.8270  -55.5870  -13.6540 N.3   144  ARG144     -0.1245
     88  CA       -29.4600  -55.8070  -14.1220 C.3   144  ARG144      0.1563
     89  C        -28.9280  -54.6280  -14.9370 C.2   144  ARG144      0.2260
     90  O        -29.7060  -53.8350  -15.4860 O.2   144  ARG144     -0.2867
     91  CB       -29.3770  -57.1210  -14.9080 C.3   144  ARG144      0.0307
     92  CG       -30.3870  -57.2450  -16.0540 C.3   144  ARG144      0.0489
     93  CD       -30.6120  -58.7230  -16.4030 C.3   144  ARG144      0.2205
     94  NE       -31.4110  -58.9110  -17.6230 N.pl3 144  ARG144     -0.0865
     95  CZ       -32.7420  -58.9370  -17.6520 C.cat 144  ARG144      0.5346
     96  NH1      -33.4400  -58.7600  -16.5350 N.pl3 144  ARG144      0.1354
     97  NH2      -33.3810  -59.1320  -18.8010 N.pl3 144  ARG144      0.1354
     98  N        -22.3240  -54.0820  -16.7410 N.3   147  GLU147     -0.1245
     99  CA       -21.1440  -54.9630  -16.6150 C.3   147  GLU147      0.1567
    100  C        -19.8980  -54.3940  -17.3100 C.2   147  GLU147      0.2260
    101  O        -18.9590  -55.1300  -17.6110 O.2   147  GLU147     -0.2867
    102  CB       -21.4020  -56.4150  -17.0780 C.3   147  GLU147      0.0388
    103  CG       -22.8040  -57.0000  -16.8000 C.3   147  GLU147      0.1160
    104  CD       -23.1830  -57.0790  -15.3210 C.2   147  GLU147      0.3649
    105  OE1      -22.3830  -56.6770  -14.4440 O.co2 147  GLU147     -0.2457
    106  OE2      -24.3150  -57.5390  -15.0330 O.co2 147  GLU147     -0.2457
    107  N        -35.6870  -61.9540  -20.1990 N.3   166  ALA166     -0.1245
    108  CA       -34.5240  -62.0720  -21.0770 C.3   166  ALA166      0.1562
    109  C        -34.9230  -62.6350  -22.4410 C.2   166  ALA166      0.2260
    110  O        -34.1010  -62.7090  -23.3630 O.2   166  ALA166     -0.2867
    111  CB       -33.4610  -62.9560  -20.4390 C.3   166  ALA166      0.0290
    112  N        -29.6640  -55.3210  -23.1390 N.3   196  GLU196     -0.1231
    113  CA       -28.8910  -55.7550  -21.9760 C.3   196  GLU196      0.1699
    114  C        -27.4200  -55.3590  -22.1090 C.2   196  GLU196      0.2592
    115  O        -26.9070  -55.2010  -23.2240 O.2   196  GLU196     -0.2718
    116  CB       -28.9920  -57.2740  -21.7730 C.3   196  GLU196      0.0402
    117  CG       -30.3560  -57.7840  -21.3030 C.3   196  GLU196      0.1161
    118  CD       -30.3730  -59.2810  -21.0740 C.2   196  GLU196      0.3649
    119  OE1      -31.3530  -59.7930  -20.4880 O.co2 196  GLU196     -0.2457
    120  OE2      -29.4060  -59.9500  -21.4830 O.co2 196  GLU196     -0.2457
    121  N        -26.7620  -55.1920  -20.9600 N.am  197  GLU197     -0.1979
    122  CA       -25.2980  -55.1150  -20.8810 C.3   197  GLU197      0.1602
    123  C        -24.6490  -54.1170  -21.8390 C.2   197  GLU197      0.2287
    124  O        -23.7330  -54.4620  -22.5960 O.2   197  GLU197     -0.2864
    125  CB       -24.6940  -56.5150  -21.0650 C.3   197  GLU197      0.0415
    126  CG       -25.1280  -57.5060  -19.9670 C.3   197  GLU197      0.1163
    127  CD       -24.7170  -58.9490  -20.2480 C.2   197  GLU197      0.3649
    128  OE1      -24.4580  -59.2900  -21.4250 O.co2 197  GLU197     -0.2457
    129  OE2      -24.6510  -59.7540  -19.2860 O.co2 197  GLU197     -0.2457
    130  N        -26.6440  -55.4990  -26.0680 N.3   212  LYS212     -0.1245
    131  CA       -26.9960  -56.8250  -26.5470 C.3   212  LYS212      0.1561
    132  C        -28.5190  -56.9780  -26.5520 C.2   212  LYS212      0.2260
    133  O        -29.1870  -56.6080  -25.5850 O.2   212  LYS212     -0.2867
    134  CB       -26.3560  -57.8800  -25.6330 C.3   212  LYS212      0.0271
    135  CG       -26.9550  -59.2680  -25.7390 C.3   212  LYS212      0.0035
    136  CD       -26.3310  -60.2260  -24.7360 C.3   212  LYS212      0.0206
    137  CE       -27.0650  -60.1980  -23.4120 C.3   212  LYS212      0.1093
    138  NZ       -26.7730  -61.3920  -22.5670 N.3   212  LYS212     -0.1314
    139  N        -30.9180  -59.7790  -26.1970 N.3   214  ASN214     -0.1240
    140  CA       -30.9120  -61.2010  -25.8570 C.3   214  ASN214      0.1653
    141  C        -32.0740  -61.9870  -26.4710 C.2   214  ASN214      0.2266
    142  O        -32.0250  -63.2050  -26.5710 O.2   214  ASN214     -0.2867
    143  CB       -30.9120  -61.3980  -24.3380 C.3   214  ASN214      0.1155
    144  CG       -30.4490  -62.7810  -23.9400 C.2   214  ASN214      0.2627
    145  OD1      -29.2750  -63.1160  -24.0960 O.2   214  ASN214     -0.2716
    146  ND2      -31.3670  -63.5970  -23.4290 N.am  214  ASN214     -0.0877
    147  N        -30.3880  -65.7220  -26.5160 N.3   266  ASN266     -0.1225
    148  CA       -28.9840  -65.8330  -26.1220 C.3   266  ASN266      0.1785
    149  C        -28.2450  -64.6350  -26.6440 C.2   266  ASN266      0.2597
    150  O        -28.8340  -63.8230  -27.3170 O.2   266  ASN266     -0.2718
    151  CB       -28.3460  -67.1130  -26.6580 C.3   266  ASN266      0.1169
    152  CG       -27.1550  -67.5710  -25.8150 C.2   266  ASN266      0.2627
    153  OD1      -26.6190  -66.8140  -24.9930 O.2   266  ASN266     -0.2716
    154  ND2      -26.7350  -68.8150  -26.0220 N.am  266  ASN266     -0.0877
    155  N        -26.9660  -64.5080  -26.3280 N.am  267  GLY267     -0.1957
    156  CA       -26.2000  -63.3570  -26.7640 C.3   267  GLY267      0.1869
    157  C        -24.9590  -63.2440  -25.9080 C.2   267  GLY267      0.2309
    158  O        -24.7770  -64.0370  -24.9860 O.2   267  GLY267     -0.2863
    159  N        -18.5540  -68.7160  -27.7460 N.3   290  ARG290     -0.1245
    160  CA       -17.7140  -67.6140  -27.2840 C.3   290  ARG290      0.1563
    161  C        -16.2380  -67.9500  -27.4550 C.2   290  ARG290      0.2260
    162  O        -15.5100  -68.1700  -26.4820 O.2   290  ARG290     -0.2867
    163  CB       -18.0480  -67.2850  -25.8280 C.3   290  ARG290      0.0307
    164  CG       -19.4980  -66.8070  -25.6580 C.3   290  ARG290      0.0489
    165  CD       -19.9520  -66.7970  -24.1900 C.3   290  ARG290      0.2205
    166  NE       -21.2560  -66.1350  -24.0680 N.pl3 290  ARG290     -0.0865
    167  CZ       -21.8400  -65.8060  -22.9200 C.cat 290  ARG290      0.5346
    168  NH1      -21.2560  -66.0860  -21.7590 N.pl3 290  ARG290      0.1354
    169  NH2      -23.0140  -65.1900  -22.9340 N.pl3 290  ARG290      0.1354
    170  N        -17.2030  -62.0170  -22.6700 N.3   324  TYR324     -0.1241
    171  CA       -17.6730  -60.6320  -22.6910 C.3   324  TYR324      0.1605
    172  C        -16.6050  -59.6690  -23.2190 C.2   324  TYR324      0.2264
    173  O        -15.4040  -59.9050  -23.0680 O.2   324  TYR324     -0.2867
    174  CB       -18.1040  -60.2050  -21.2810 C.3   324  TYR324      0.0534
    175  CG       -19.5100  -60.6270  -20.9270 C.ar  324  TYR324     -0.0201
    176  CD1      -20.1520  -61.6330  -21.6390 C.ar  324  TYR324     -0.0009
    177  CD2      -20.2070  -60.0010  -19.8970 C.ar  324  TYR324     -0.0009
    178  CE1      -21.4500  -62.0160  -21.3350 C.ar  324  TYR324      0.0417
    179  CE2      -21.5110  -60.3770  -19.5840 C.ar  324  TYR324      0.0417
    180  CZ       -22.1200  -61.3790  -20.3120 C.ar  324  TYR324      0.1957
    181  OH       -23.4090  -61.7560  -20.0220 O.3   324  TYR324     -0.2866
@<TRIPOS>BOND
     1   159   160    1
     2   161   160    1
     3   161   162    2
     4   150   149    2
     5   160   163    1
     6   156   155    1
     7   156   157    1
     8   151   148    1
     9   151   152    1
    10   149   155   am
    11   149   148    1
    12   142   141    2
    13   132   131    1
    14   132   133    2
    15   131   130    1
    16   131   134    1
    17   147   148    1
    18   141   140    1
    19   139   140    1
    20   154   152   am
    21   157   158    2
    22   140   143    1
    23   163   164    1
    24   152   153    2
    25   135   134    1
    26   135   136    1
    27   164   165    1
    28   136   137    1
    29   143   144    1
    30   165   166    1
    31   145   144    2
    32   166   167    2
    33   144   146   am
    34   137   138    1
    35   110   109    2
    36   115   114    2
    37   172   173    2
    38   172   171    1
    39   112   113    1
    40   169   167    1
    41   167   168    1
    42   171   170    1
    43   171   174    1
    44   124   123    2
    45   109   108    1
    46   114   113    1
    47   114   121   am
    48   113   116    1
    49   123   122    1
    50   116   117    1
    51   176   178   ar
    52   176   175   ar
    53   120   118   ar
    54   128   127   ar
    55   178   180   ar
    56   117   118    1
    57   174   175    1
    58   108   111    1
    59   108   107    1
    60   118   119   ar
    61   125   122    1
    62   125   126    1
    63   121   122    1
    64   175   177   ar
    65   180   181    1
    66   180   179   ar
    67   127   126    1
    68   127   129   ar
    69   177   179   ar
    70    11     9    1
    71    97    95    1
    72     9    10    1
    73     9     8    2
    74    95    94    2
    75    95    96    1
    76    94    93    1
    77   101   100    2
    78     8     7    1
    79   100    99    1
    80   102   103    1
    81   102    99    1
    82   103   104    1
    83    98    99    1
    84    93    92    1
    85     7     6    1
    86    92    91    1
    87    13    14    1
    88    13    12    1
    89    13    16    1
    90    17    16    1
    91    17    18    1
    92    14    15    2
    93    12     3   am
    94    20    18   ar
    95    90    89    2
    96     6     5    1
    97   104   106   ar
    98   104   105   ar
    99    36    34   ar
   100    18    19   ar
   101    89    88    1
   102    91    88    1
   103    35    34   ar
   104     5     2    1
   105     3     2    1
   106     3     4    2
   107    34    33    1
   108     2     1    1
   109    88    87    1
   110    82    81    2
   111    86    84    1
   112    78    77    1
   113    83    85    1
   114    83    84    1
   115    83    80    1
   116    46    45    1
   117    33    30    1
   118    81    80    1
   119    80    79    1
   120    77    74    1
   121    45    47    1
   122    45    44    2
   123    30    29    1
   124    30    31    1
   125    27    26    1
   126    74    75    1
   127    74    73    1
   128    62    61    2
   129    75    76    2
   130    58    56    1
   131    21    22    1
   132    57    56    1
   133    26    25    1
   134    26    28    1
   135    44    43    1
   136    43    42    1
   137    31    32    2
   138    31    37   am
   139    25    22    1
   140    56    55    2
   141    71    69   ar
   142    71    72   ar
   143    42    41    1
   144    73    61   am
   145    61    60    1
   146    69    66   ar
   147    24    23    2
   148    22    23    1
   149    37    38    1
   150    72    70   ar
   151    55    54    1
   152    41    38    1
   153    60    63    1
   154    60    59    1
   155    66    64   ar
   156    66    68   ar
   157    63    64    1
   158    38    39    1
   159    54    53    1
   160    70    68   ar
   161    64    65   ar
   162    68    67   ar
   163    39    40    2
   164    65    67   ar
   165    53    52    1
   166    52    49    1
   167    49    50    1
   168    49    48    1
   169    50    51    2
