@<TRIPOS>MOLECULE
tmp/4mwzB01.pdb
 122 118 0 0 0
SMALL
GASTEIGER

@<TRIPOS>ATOM
      1  N        -24.0650  -16.5970  -38.6340 N.3    27  PHE27      -0.1227
      2  CA       -25.2480  -15.7550  -38.5160 C.3    27  PHE27       0.1736
      3  C        -25.3360  -14.7940  -39.6960 C.2    27  PHE27       0.2595
      4  O        -26.4100  -14.5920  -40.2650 O.2    27  PHE27      -0.2718
      5  CB       -25.2140  -14.9790  -37.1930 C.3    27  PHE27       0.0547
      6  CG       -26.4700  -14.2000  -36.9020 C.ar   27  PHE27      -0.0202
      7  CD1      -26.6860  -12.9570  -37.4830 C.ar   27  PHE27      -0.0042
      8  CD2      -27.4210  -14.6990  -36.0220 C.ar   27  PHE27      -0.0042
      9  CE1      -27.8380  -12.2350  -37.2030 C.ar   27  PHE27      -0.0003
     10  CE2      -28.5820  -13.9780  -35.7370 C.ar   27  PHE27      -0.0003
     11  CZ       -28.7850  -12.7450  -36.3350 C.ar   27  PHE27      -0.0000
     12  N        -24.2060  -14.2030  -40.0690 N.am   28  ILE28      -0.1966
     13  CA       -24.2280  -13.1520  -41.0780 C.3    28  ILE28       0.1727
     14  C        -24.1860  -13.7090  -42.5110 C.2    28  ILE28       0.2616
     15  O        -24.7570  -13.1040  -43.4240 O.2    28  ILE28      -0.2715
     16  CB       -23.1210  -12.0840  -40.8120 C.3    28  ILE28       0.0290
     17  CG1      -23.4310  -10.7860  -41.5620 C.3    28  ILE28       0.0022
     18  CG2      -21.7510  -12.6070  -41.1990 C.3    28  ILE28       0.0023
     19  CD1      -22.5480   -9.5880  -41.1370 C.3    28  ILE28       0.0001
     20  N        -23.5590  -14.8740  -42.6960 N.am   29  PHE29      -0.1960
     21  CA       -23.4200  -15.4840  -44.0240 C.3    29  PHE29       0.1771
     22  C        -24.4580  -16.5630  -44.2980 C.2    29  PHE29       0.2620
     23  O        -24.7390  -16.8770  -45.4580 O.2    29  PHE29      -0.2715
     24  CB       -22.0460  -16.1360  -44.1790 C.3    29  PHE29       0.0574
     25  CG       -20.9050  -15.1650  -44.2850 C.ar   29  PHE29      -0.0200
     26  CD1      -20.9370  -14.1080  -45.2020 C.ar   29  PHE29      -0.0042
     27  CD2      -19.7880  -15.3140  -43.4730 C.ar   29  PHE29      -0.0042
     28  CE1      -19.8690  -13.2280  -45.3080 C.ar   29  PHE29      -0.0003
     29  CE2      -18.7170  -14.4410  -43.5680 C.ar   29  PHE29      -0.0003
     30  CZ       -18.7480  -13.3930  -44.4960 C.ar   29  PHE29      -0.0000
     31  N        -25.0070  -17.1530  -43.2380 N.am   30  GLY30      -0.1954
     32  CA       -25.8930  -18.2960  -43.3930 C.3    30  GLY30       0.1869
     33  C        -25.2200  -19.5870  -42.9740 C.2    30  GLY30       0.2309
     34  O        -23.9880  -19.6880  -42.9840 O.2    30  GLY30      -0.2863
     35  N        -20.7830  -13.9490  -48.8650 N.3    37  GLY37      -0.1210
     36  CA       -21.9400  -14.3150  -49.6620 C.3    37  GLY37       0.1956
     37  C        -22.5820  -15.6520  -49.3740 C.2    37  GLY37       0.2612
     38  O        -23.6070  -15.9650  -49.9850 O.2    37  GLY37      -0.2717
     39  N        -22.0180  -16.4390  -48.4600 N.am   38  GLY38      -0.1942
     40  CA       -22.5950  -17.7380  -48.1350 C.3    38  GLY38       0.2014
     41  C        -22.9740  -18.5900  -49.3380 C.2    38  GLY38       0.2639
     42  O        -22.2350  -18.6580  -50.3230 O.2    38  GLY38      -0.2714
     43  N        -24.1480  -19.2160  -49.2790 N.am   39  ILE39      -0.1963
     44  CA       -24.5860  -20.1120  -50.3470 C.3    39  ILE39       0.1727
     45  C        -24.9250  -19.3820  -51.6470 C.2    39  ILE39       0.2616
     46  O        -24.8060  -19.9580  -52.7400 O.2    39  ILE39      -0.2715
     47  CB       -25.7680  -21.0060  -49.8950 C.3    39  ILE39       0.0290
     48  CG1      -25.8700  -22.2550  -50.7740 C.3    39  ILE39       0.0022
     49  CG2      -27.0880  -20.2370  -49.8810 C.3    39  ILE39       0.0023
     50  CD1      -26.7730  -23.3280  -50.1780 C.3    39  ILE39       0.0001
     51  N        -25.3200  -18.1150  -51.5540 N.am   40  ILE40      -0.1977
     52  CA       -25.6680  -17.3640  -52.7600 C.3    40  ILE40       0.1596
     53  C        -24.4410  -17.1310  -53.6370 C.2    40  ILE40       0.2287
     54  O        -24.4710  -17.3650  -54.8530 O.2    40  ILE40      -0.2864
     55  CB       -26.3560  -16.0330  -52.4150 C.3    40  ILE40       0.0276
     56  CG1      -27.8380  -16.2830  -52.1590 C.3    40  ILE40       0.0022
     57  CG2      -26.2070  -15.0340  -53.5590 C.3    40  ILE40       0.0022
     58  CD1      -28.5440  -16.9330  -53.3360 C.3    40  ILE40       0.0001
     59  N        -19.4350   -6.9040  -56.9970 N.3   207  TYR207     -0.1241
     60  CA       -20.2830   -7.9460  -56.4250 C.3   207  TYR207      0.1605
     61  C        -20.0390   -8.0980  -54.9210 C.2   207  TYR207      0.2264
     62  O        -20.9850   -8.2720  -54.1320 O.2   207  TYR207     -0.2867
     63  CB       -20.0020   -9.2590  -57.1460 C.3   207  TYR207      0.0534
     64  CG       -20.8440  -10.4480  -56.7320 C.ar  207  TYR207     -0.0201
     65  CD1      -22.2260  -10.3570  -56.6330 C.ar  207  TYR207     -0.0009
     66  CD2      -20.2490  -11.6760  -56.4820 C.ar  207  TYR207     -0.0009
     67  CE1      -22.9890  -11.4480  -56.2710 C.ar  207  TYR207      0.0417
     68  CE2      -21.0030  -12.7730  -56.1350 C.ar  207  TYR207      0.0417
     69  CZ       -22.3650  -12.6520  -56.0290 C.ar  207  TYR207      0.1957
     70  OH       -23.1160  -13.7410  -55.6800 O.3   207  TYR207     -0.2866
     71  N        -21.9030   -5.4940  -53.0430 N.3   210  GLU210     -0.1231
     72  CA       -23.3170   -5.8630  -52.9800 C.3   210  GLU210      0.1699
     73  C        -23.5740   -6.8840  -51.8650 C.2   210  GLU210      0.2592
     74  O        -24.5200   -6.7420  -51.0830 O.2   210  GLU210     -0.2718
     75  CB       -23.7750   -6.4220  -54.3180 C.3   210  GLU210      0.0402
     76  CG       -25.1820   -6.9760  -54.2980 C.3   210  GLU210      0.1161
     77  CD       -25.5330   -7.6910  -55.5900 C.2   210  GLU210      0.3649
     78  OE1      -25.1160   -7.2150  -56.6680 O.co2 210  GLU210     -0.2457
     79  OE2      -26.2160   -8.7340  -55.5210 O.co2 210  GLU210     -0.2457
     80  N        -22.7320   -7.9080  -51.7880 N.am  211  LEU211     -0.1980
     81  CA       -22.8710   -8.9220  -50.7440 C.3   211  LEU211      0.1596
     82  C        -22.6940   -8.3090  -49.3560 C.2   211  LEU211      0.2287
     83  O        -23.5110   -8.5550  -48.4610 O.2   211  LEU211     -0.2864
     84  CB       -21.8640  -10.0530  -50.9460 C.3   211  LEU211      0.0297
     85  CG       -21.9540  -10.8520  -52.2460 C.3   211  LEU211      0.0022
     86  CD1      -20.7840  -11.8190  -52.3340 C.3   211  LEU211      0.0001
     87  CD2      -23.2680  -11.5970  -52.3700 C.3   211  LEU211      0.0001
     88  N        -25.7580   -6.1220  -48.3090 N.3   214  LEU214     -0.1231
     89  CA       -26.9270   -6.9250  -47.9640 C.3   214  LEU214      0.1693
     90  C        -26.7010   -7.6740  -46.6470 C.2   214  LEU214      0.2591
     91  O        -27.6240   -7.8150  -45.8320 O.2   214  LEU214     -0.2718
     92  CB       -27.2920   -7.8800  -49.1140 C.3   214  LEU214      0.0284
     93  CG       -27.8230   -7.1770  -50.3690 C.3   214  LEU214      0.0019
     94  CD1      -27.8480   -8.1370  -51.5460 C.3   214  LEU214      0.0001
     95  CD2      -29.2070   -6.6040  -50.1260 C.3   214  LEU214      0.0001
     96  N        -25.4710   -8.1220  -46.4230 N.am  215  GLU215     -0.1979
     97  CA       -25.1260   -8.7910  -45.1710 C.3   215  GLU215      0.1602
     98  C        -25.2630   -7.8670  -43.9830 C.2   215  GLU215      0.2287
     99  O        -25.8600   -8.2390  -42.9620 O.2   215  GLU215     -0.2864
    100  CB       -23.7070   -9.3580  -45.2520 C.3   215  GLU215      0.0415
    101  CG       -23.6770  -10.6540  -46.0470 C.3   215  GLU215      0.1163
    102  CD       -22.3370  -10.9580  -46.6870 C.2   215  GLU215      0.3649
    103  OE1      -21.3560  -10.2190  -46.4530 O.co2 215  GLU215     -0.2457
    104  OE2      -22.2750  -11.9590  -47.4380 O.co2 215  GLU215     -0.2457
    105  N        -29.0230   -6.8650  -43.3180 N.3   218  LYS218     -0.1245
    106  CA       -29.7510   -7.9570  -42.6980 C.3   218  LYS218      0.1561
    107  C        -29.3290   -8.1170  -41.2410 C.2   218  LYS218      0.2260
    108  O        -30.1780   -8.3340  -40.3730 O.2   218  LYS218     -0.2867
    109  CB       -29.5350   -9.2560  -43.4730 C.3   218  LYS218      0.0271
    110  CG       -30.3980  -10.3980  -42.9800 C.3   218  LYS218      0.0035
    111  CD       -31.9030  -10.0680  -43.0480 C.3   218  LYS218      0.0206
    112  CE       -32.4110   -9.8840  -44.4850 C.3   218  LYS218      0.1093
    113  NZ       -33.8870   -9.5900  -44.5430 N.3   218  LYS218     -0.1314
    114  N        -31.7110   -7.7590  -37.9430 N.3   222  LYS222     -0.1245
    115  CA       -31.8140   -8.8960  -37.0410 C.3   222  LYS222      0.1561
    116  C        -31.0360   -8.7230  -35.7370 C.2   222  LYS222      0.2260
    117  O        -30.7120   -9.7150  -35.0800 O.2   222  LYS222     -0.2867
    118  CB       -31.3430  -10.1710  -37.7540 C.3   222  LYS222      0.0271
    119  CG       -32.2720  -10.6350  -38.8590 C.3   222  LYS222      0.0035
    120  CD       -31.6410  -11.7200  -39.7220 C.3   222  LYS222      0.0206
    121  CE       -31.3250  -12.9810  -38.9330 C.3   222  LYS222      0.1093
    122  NZ       -30.8400  -14.0820  -39.8210 N.3   222  LYS222     -0.1314
@<TRIPOS>BOND
     1    63    64    1
     2    63    60    1
     3    59    60    1
     4    64    65   ar
     5    64    66   ar
     6    78    77   ar
     7    65    67   ar
     8    66    68   ar
     9    60    61    1
    10    67    69   ar
    11    68    69   ar
    12    69    70    1
    13    77    79   ar
    14    77    76    1
    15    61    62    2
    16    54    53    2
    17    75    76    1
    18    75    72    1
    19    53    52    1
    20    57    55    1
    21    58    56    1
    22    71    72    1
    23    72    73    1
    24    52    55    1
    25    52    51    1
    26    46    45    2
    27    55    56    1
    28    87    85    1
    29    86    85    1
    30    85    84    1
    31    73    80   am
    32    73    74    2
    33    80    81    1
    34    45    51   am
    35    45    44    1
    36    94    93    1
    37    84    81    1
    38    48    50    1
    39    48    47    1
    40    81    82    1
    41    93    95    1
    42    93    92    1
    43    44    47    1
    44    44    43    1
    45    42    41    2
    46    38    37    2
    47    47    49    1
    48    36    37    1
    49    36    35    1
    50    37    39   am
    51    82    83    2
    52    41    43   am
    53    41    40    1
    54    92    89    1
    55    39    40    1
    56    88    89    1
    57    89    90    1
    58   104   102   ar
    59   102   103   ar
    60   102   101    1
    61    90    96   am
    62    90    91    2
    63    96    97    1
    64   101   100    1
    65    23    22    2
    66    28    26   ar
    67    28    30   ar
    68   100    97    1
    69    26    25   ar
    70    97    98    1
    71   113   112    1
    72    30    29   ar
    73   112   111    1
    74    22    21    1
    75    22    31   am
    76    25    24    1
    77    25    27   ar
    78    24    21    1
    79    21    20    1
    80    98    99    2
    81    29    27   ar
    82   109   110    1
    83   109   106    1
    84    15    14    2
    85    32    31    1
    86    32    33    1
    87   105   106    1
    88   111   110    1
    89    34    33    2
    90   106   107    1
    91    20    14   am
    92    14    13    1
    93    17    19    1
    94    17    16    1
    95   107   108    2
    96    18    16    1
    97    13    16    1
    98    13    12    1
    99     4     3    2
   100    12     3   am
   101   122   121    1
   102   120   121    1
   103   120   119    1
   104     3     2    1
   105   119   118    1
   106     1     2    1
   107     2     5    1
   108   114   115    1
   109   118   115    1
   110     7     9   ar
   111     7     6   ar
   112     9    11   ar
   113     5     6    1
   114   115   116    1
   115     6     8   ar
   116    11    10   ar
   117     8    10   ar
   118   116   117    2
