@<TRIPOS>MOLECULE
tmp/4mx0A01.pdb
 173 161 0 0 0
SMALL
GASTEIGER

@<TRIPOS>ATOM
      1  N         15.9490  -63.1330   12.8070 N.3    37  ARG37      -0.1231
      2  CA        16.4280  -63.0800   14.1850 C.3    37  ARG37       0.1694
      3  C         16.9840  -61.6810   14.4280 C.2    37  ARG37       0.2591
      4  O         16.9630  -60.8270   13.5230 O.2    37  ARG37      -0.2718
      5  CB        17.4630  -64.1750   14.5040 C.3    37  ARG37       0.0321
      6  CG        16.9150  -65.3250   15.3880 C.3    37  ARG37       0.0489
      7  CD        17.9740  -65.8730   16.3640 C.3    37  ARG37       0.2205
      8  NE        18.3160  -64.8750   17.3830 N.pl3  37  ARG37      -0.0865
      9  CZ        19.4920  -64.7880   17.9990 C.cat  37  ARG37       0.5346
     10  NH1       20.4710  -65.6440   17.7120 N.pl3  37  ARG37       0.1354
     11  NH2       19.6930  -63.8370   18.9020 N.pl3  37  ARG37       0.1354
     12  N         17.4630  -61.4390   15.6440 N.am   38  GLU38      -0.1979
     13  CA        17.9780  -60.1210   16.0080 C.3    38  GLU38       0.1602
     14  C         16.9990  -58.9820   15.6750 C.2    38  GLU38       0.2287
     15  O         17.3540  -58.0510   14.9500 O.2    38  GLU38      -0.2864
     16  CB        19.3430  -59.8760   15.3340 C.3    38  GLU38       0.0415
     17  CG        20.4420  -60.8930   15.7310 C.3    38  GLU38       0.1163
     18  CD        20.4180  -62.1770   14.9020 C.2    38  GLU38       0.3649
     19  OE1       20.0200  -62.1190   13.7180 O.co2  38  GLU38      -0.2457
     20  OE2       20.8020  -63.2540   15.4320 O.co2  38  GLU38      -0.2457
     21  N         16.6470  -59.0010   11.1960 N.3    53  LEU53      -0.1245
     22  CA        17.4670  -59.5270   10.1160 C.3    53  LEU53       0.1561
     23  C         16.8210  -60.7760    9.5260 C.2    53  LEU53       0.2260
     24  O         16.7630  -61.8240   10.1800 O.2    53  LEU53      -0.2867
     25  CB        18.8740  -59.8480   10.6080 C.3    53  LEU53       0.0270
     26  CG        19.7460  -58.6650   11.0350 C.3    53  LEU53       0.0019
     27  CD1       21.0670  -59.1770   11.5820 C.3    53  LEU53       0.0001
     28  CD2       19.9810  -57.7230    9.8640 C.3    53  LEU53       0.0001
     29  N         24.5480  -67.5410   11.4580 N.3    70  ASP70      -0.1225
     30  CA        24.5090  -66.1030   11.7560 C.3    70  ASP70       0.1805
     31  C         24.7100  -65.1480   10.5630 C.2    70  ASP70       0.2597
     32  O         24.0630  -64.1010   10.4840 O.2    70  ASP70      -0.2718
     33  CB        25.5520  -65.7620   12.8280 C.3    70  ASP70       0.1424
     34  CG        25.0420  -65.9820   14.2380 C.2    70  ASP70       0.3668
     35  OD1       23.8160  -65.8550   14.4600 O.co2  70  ASP70      -0.2456
     36  OD2       25.8760  -66.2670   15.1310 O.co2  70  ASP70      -0.2456
     37  N         25.6170  -65.4930    9.6540 N.am   71  ARG71      -0.1979
     38  CA        26.0760  -64.5380    8.6430 C.3    71  ARG71       0.1597
     39  C         26.1560  -65.1250    7.2350 C.2    71  ARG71       0.2287
     40  O         27.1830  -65.6830    6.8480 O.2    71  ARG71      -0.2864
     41  CB        27.4530  -63.9790    9.0330 C.3    71  ARG71       0.0334
     42  CG        27.4710  -63.1930   10.3380 C.3    71  ARG71       0.0492
     43  CD        28.8850  -62.7400   10.6710 C.3    71  ARG71       0.2205
     44  NE        29.8220  -63.8620   10.6430 N.pl3  71  ARG71      -0.0865
     45  CZ        30.0030  -64.7050   11.6560 C.cat  71  ARG71       0.5346
     46  NH1       29.3000  -64.5560   12.7750 N.pl3  71  ARG71       0.1354
     47  NH2       30.8820  -65.6990   11.5560 N.pl3  71  ARG71       0.1354
     48  N         20.9140  -62.6780    4.0910 N.3    75  ARG75      -0.1245
     49  CA        20.3190  -61.8730    5.1520 C.3    75  ARG75       0.1563
     50  C         20.1670  -60.4170    4.7230 C.2    75  ARG75       0.2260
     51  O         20.9110  -59.9190    3.8660 O.2    75  ARG75      -0.2867
     52  CB        21.1390  -61.9590    6.4500 C.3    75  ARG75       0.0307
     53  CG        21.3660  -63.3880    6.9630 C.3    75  ARG75       0.0489
     54  CD        21.5610  -63.4190    8.4840 C.3    75  ARG75       0.2205
     55  NE        20.3020  -63.2380    9.2170 N.pl3  75  ARG75      -0.0865
     56  CZ        20.1700  -63.3760   10.5360 C.cat  75  ARG75       0.5346
     57  NH1       18.9790  -63.2110   11.1120 N.pl3  75  ARG75       0.1354
     58  NH2       21.2270  -63.6910   11.2820 N.pl3  75  ARG75       0.1354
     59  N         24.2140  -58.7490    7.7000 N.3    98  TRP98      -0.1227
     60  CA        23.9280  -59.6820    8.7850 C.3    98  TRP98       0.1737
     61  C         24.1710  -59.0900   10.1740 C.2    98  TRP98       0.2596
     62  O         24.2610  -59.8280   11.1630 O.2    98  TRP98      -0.2718
     63  CB        24.7120  -60.9870    8.6020 C.3    98  TRP98       0.0564
     64  CG        26.1090  -60.8260    8.0530 C.ar   98  TRP98       0.0003
     65  CD1       26.5690  -61.2730    6.8460 C.ar   98  TRP98       0.0946
     66  CD2       27.2280  -60.2040    8.7030 C.ar   98  TRP98       0.0152
     67  NE1       27.9030  -60.9590    6.7000 N.ar   98  TRP98      -0.2442
     68  CE2       28.3300  -60.3020    7.8250 C.ar   98  TRP98       0.0810
     69  CE3       27.4030  -59.5680    9.9370 C.ar   98  TRP98       0.0012
     70  CZ2       29.5920  -59.7870    8.1460 C.ar   98  TRP98       0.0191
     71  CZ3       28.6520  -59.0530   10.2530 C.ar   98  TRP98       0.0001
     72  CH2       29.7310  -59.1680    9.3630 C.ar   98  TRP98       0.0015
     73  N         24.2870  -57.7620   10.2310 N.am   99  SER99      -0.1952
     74  CA        24.3490  -57.0150   11.4890 C.3    99  SER99       0.1924
     75  C         23.8790  -55.6040   11.1680 C.2    99  SER99       0.2314
     76  O         24.2110  -55.0720   10.0990 O.2    99  SER99      -0.2863
     77  CB        25.7700  -56.9760   12.0420 C.3    99  SER99       0.2116
     78  OG        25.7930  -56.4270   13.3560 O.3    99  SER99      -0.2180
     79  N         34.9290  -60.0090   11.9730 N.3   142  ILE142     -0.1245
     80  CA        33.4900  -59.7920   12.0980 C.3   142  ILE142      0.1561
     81  C         33.1340  -58.3880   12.5830 C.2   142  ILE142      0.2260
     82  O         32.6830  -58.2170   13.7180 O.2   142  ILE142     -0.2867
     83  CB        32.8170  -60.8620   13.0040 C.3   142  ILE142      0.0252
     84  CG1       33.3550  -62.2580   12.6700 C.3   142  ILE142      0.0019
     85  CG2       31.2860  -60.8030   12.8690 C.3   142  ILE142      0.0019
     86  CD1       32.7240  -63.3850   13.4830 C.3   142  ILE142      0.0001
     87  N         30.8950  -55.5800   13.3610 N.3   144  ARG144     -0.1245
     88  CA        29.5240  -55.8060   13.8080 C.3   144  ARG144      0.1563
     89  C         29.0050  -54.6600   14.6610 C.2   144  ARG144      0.2260
     90  O         29.7900  -53.8790   15.2080 O.2   144  ARG144     -0.2867
     91  CB        29.4420  -57.1250   14.5780 C.3   144  ARG144      0.0307
     92  CG        30.3660  -57.2000   15.7900 C.3   144  ARG144      0.0489
     93  CD        30.5450  -58.6510   16.2370 C.3   144  ARG144      0.2205
     94  NE        31.3720  -58.8030   17.4380 N.pl3 144  ARG144     -0.0865
     95  CZ        32.6980  -58.9360   17.4320 C.cat 144  ARG144      0.5346
     96  NH1       33.3750  -58.9000   16.2850 N.pl3 144  ARG144      0.1354
     97  NH2       33.3520  -59.0930   18.5790 N.pl3 144  ARG144      0.1354
     98  N         22.3510  -54.1660   16.6500 N.3   147  GLU147     -0.1245
     99  CA        21.1510  -55.0250   16.5320 C.3   147  GLU147      0.1567
    100  C         19.9350  -54.4450   17.2630 C.2   147  GLU147      0.2260
    101  O         18.9920  -55.1730   17.5950 O.2   147  GLU147     -0.2867
    102  CB        21.3900  -56.4840   16.9820 C.3   147  GLU147      0.0388
    103  CG        22.7760  -57.0760   16.6730 C.3   147  GLU147      0.1160
    104  CD        23.0830  -57.2350   15.1830 C.2   147  GLU147      0.3649
    105  OE1       22.2630  -56.8300   14.3260 O.co2 147  GLU147     -0.2457
    106  OE2       24.1730  -57.7690   14.8650 O.co2 147  GLU147     -0.2457
    107  N         35.6260  -61.9960   20.1890 N.3   166  ALA166     -0.1245
    108  CA        34.4580  -62.0730   21.0620 C.3   166  ALA166      0.1562
    109  C         34.8480  -62.6700   22.4130 C.2   166  ALA166      0.2260
    110  O         34.0490  -62.6860   23.3580 O.2   166  ALA166     -0.2867
    111  CB        33.3800  -62.9220   20.4180 C.3   166  ALA166      0.0290
    112  N         29.7100  -55.4830   23.2380 N.3   196  GLU196     -0.1231
    113  CA        28.9440  -56.0590   22.1340 C.3   196  GLU196      0.1699
    114  C         27.5260  -55.5180   22.1530 C.2   196  GLU196      0.2592
    115  O         26.9670  -55.2750   23.2300 O.2   196  GLU196     -0.2718
    116  CB        28.8530  -57.5790   22.2680 C.3   196  GLU196      0.0402
    117  CG        30.1760  -58.3060   22.3160 C.3   196  GLU196      0.1161
    118  CD        30.7840  -58.5240   20.9460 C.2   196  GLU196      0.3649
    119  OE1       31.6780  -59.3930   20.8310 O.co2 196  GLU196     -0.2457
    120  OE2       30.3790  -57.8300   19.9880 O.co2 196  GLU196     -0.2457
    121  N         26.9520  -55.3360   20.9640 N.am  197  GLU197     -0.1979
    122  CA        25.5040  -55.1970   20.8120 C.3   197  GLU197      0.1602
    123  C         24.8490  -54.2060   21.7770 C.2   197  GLU197      0.2287
    124  O         24.0040  -54.5860   22.5980 O.2   197  GLU197     -0.2864
    125  CB        24.8500  -56.5820   20.9500 C.3   197  GLU197      0.0415
    126  CG        25.3490  -57.5760   19.9000 C.3   197  GLU197      0.1163
    127  CD        24.8850  -59.0030   20.1400 C.2   197  GLU197      0.3649
    128  OE1       24.8610  -59.4420   21.3130 O.co2 197  GLU197     -0.2457
    129  OE2       24.5660  -59.7000   19.1450 O.co2 197  GLU197     -0.2457
    130  N         26.8550  -55.5720   26.1110 N.3   212  LYS212     -0.1245
    131  CA        27.1600  -56.9340   26.5130 C.3   212  LYS212      0.1561
    132  C         28.6720  -57.1150   26.5290 C.2   212  LYS212      0.2260
    133  O         29.3530  -56.8090   25.5410 O.2   212  LYS212     -0.2867
    134  CB        26.5470  -57.9340   25.5250 C.3   212  LYS212      0.0271
    135  CG        26.8990  -59.3880   25.8250 C.3   212  LYS212      0.0035
    136  CD        26.3860  -60.3400   24.7540 C.3   212  LYS212      0.0206
    137  CE        27.4260  -60.5690   23.6720 C.3   212  LYS212      0.1093
    138  NZ        27.0900  -61.7420   22.8130 N.3   212  LYS212     -0.1314
    139  N         31.0090  -59.9500   26.3360 N.3   214  ASN214     -0.1240
    140  CA        30.9620  -61.3800   26.0480 C.3   214  ASN214      0.1653
    141  C         32.1580  -62.1350   26.6270 C.2   214  ASN214      0.2266
    142  O         32.1080  -63.3500   26.8210 O.2   214  ASN214     -0.2867
    143  CB        30.8840  -61.6180   24.5430 C.3   214  ASN214      0.1155
    144  CG        30.4800  -63.0370   24.2030 C.2   214  ASN214      0.2627
    145  OD1       29.3140  -63.4110   24.3510 O.2   214  ASN214     -0.2716
    146  ND2       31.4380  -63.8320   23.7350 N.am  214  ASN214     -0.0877
    147  N         27.0650  -64.7510   26.4940 N.3   267  GLY267     -0.1225
    148  CA        26.2860  -63.5870   26.8800 C.3   267  GLY267      0.1811
    149  C         25.0850  -63.4100   25.9750 C.2   267  GLY267      0.2280
    150  O         24.9580  -64.1110   24.9650 O.2   267  GLY267     -0.2866
    151  N         18.6490  -68.6950   27.8240 N.3   290  ARG290     -0.1245
    152  CA        17.8110  -67.6110   27.3410 C.3   290  ARG290      0.1563
    153  C         16.3340  -67.9710   27.4880 C.2   290  ARG290      0.2260
    154  O         15.6160  -68.1810   26.5010 O.2   290  ARG290     -0.2867
    155  CB        18.1750  -67.2880   25.8910 C.3   290  ARG290      0.0307
    156  CG        19.6520  -66.9010   25.7290 C.3   290  ARG290      0.0489
    157  CD        20.0430  -66.7270   24.2660 C.3   290  ARG290      0.2205
    158  NE        21.3600  -66.1040   24.1290 N.pl3 290  ARG290     -0.0865
    159  CZ        21.9220  -65.7870   22.9660 C.cat 290  ARG290      0.5346
    160  NH1       21.2890  -66.0420   21.8280 N.pl3 290  ARG290      0.1354
    161  NH2       23.1170  -65.2160   22.9390 N.pl3 290  ARG290      0.1354
    162  N         17.3280  -62.0520   22.7060 N.3   324  TYR324     -0.1241
    163  CA        17.7770  -60.6620   22.7330 C.3   324  TYR324      0.1605
    164  C         16.6880  -59.7340   23.2760 C.2   324  TYR324      0.2264
    165  O         15.4810  -60.0020   23.1520 O.2   324  TYR324     -0.2867
    166  CB        18.1970  -60.1950   21.3330 C.3   324  TYR324      0.0534
    167  CG        19.5860  -60.6330   20.9040 C.ar  324  TYR324     -0.0201
    168  CD1       20.2590  -61.6520   21.5710 C.ar  324  TYR324     -0.0009
    169  CD2       20.2310  -60.0060   19.8370 C.ar  324  TYR324     -0.0009
    170  CE1       21.5330  -62.0430   21.1810 C.ar  324  TYR324      0.0417
    171  CE2       21.5020  -60.3900   19.4390 C.ar  324  TYR324      0.0417
    172  CZ        22.1480  -61.4040   20.1180 C.ar  324  TYR324      0.1957
    173  OH        23.4110  -61.7870   19.7290 O.3   324  TYR324     -0.2866
@<TRIPOS>BOND
     1    51    50    2
     2    48    49    1
     3    50    49    1
     4    49    52    1
     5    52    53    1
     6    67    65   ar
     7    67    68   ar
     8    65    64   ar
     9    40    39    2
    10    53    54    1
    11    39    38    1
    12    59    60    1
    13    68    70   ar
    14    68    66   ar
    15    64    63    1
    16    64    66   ar
    17    70    72   ar
    18    54    55    1
    19    63    60    1
    20    38    41    1
    21    38    37    1
    22    66    69   ar
    23    60    61    1
    24    41    42    1
    25    55    56    2
    26    72    71   ar
    27    23    22    1
    28    23    24    2
    29    37    31   am
    30    28    26    1
    31    69    71   ar
    32    76    75    2
    33    22    25    1
    34    22    21    1
    35    61    73   am
    36    61    62    2
    37    73    74    1
    38    42    43    1
    39    32    31    2
    40    56    57    1
    41    56    58    1
    42    31    30    1
    43    25    26    1
    44    44    43    1
    45    44    45    2
    46    26    27    1
    47    75    74    1
    48    29    30    1
    49    74    77    1
    50    47    45    1
    51    45    46    1
    52    30    33    1
    53    79    80    1
    54    77    78    1
    55    80    81    1
    56    80    83    1
    57    81    82    2
    58    84    83    1
    59    84    86    1
    60     1     2    1
    61    33    34    1
    62    85    83    1
    63    87    88    1
    64     4     3    2
    65    19    18   ar
    66    88    91    1
    67    88    89    1
    68     2     3    1
    69     2     5    1
    70    34    35   ar
    71    34    36   ar
    72   105   104   ar
    73     3    12   am
    74     5     6    1
    75    91    92    1
    76    89    90    2
    77   106   104   ar
    78    18    20   ar
    79    18    17    1
    80    15    14    2
    81   104   103    1
    82    16    17    1
    83    16    13    1
    84     6     7    1
    85    12    13    1
    86    14    13    1
    87    92    93    1
    88    93    94    1
    89    96    95    1
    90     7     8    1
    91    99    98    1
    92    99   102    1
    93    99   100    1
    94   103   102    1
    95   100   101    2
    96     8     9    2
    97    95    94    2
    98    95    97    1
    99    10     9    1
   100     9    11    1
   101   129   127   ar
   102   171   169   ar
   103   171   172   ar
   104   173   172    1
   105   169   167   ar
   106   126   127    1
   107   126   125    1
   108   120   118   ar
   109   172   170   ar
   110   127   128   ar
   111   107   108    1
   112   111   108    1
   113   122   125    1
   114   122   121    1
   115   122   123    1
   116   119   118   ar
   117   167   166    1
   118   167   168   ar
   119   118   117    1
   120   121   114   am
   121   108   109    1
   122   170   168   ar
   123   166   163    1
   124   123   124    2
   125   160   159    1
   126   113   114    1
   127   113   116    1
   128   113   112    1
   129   114   115    2
   130   116   117    1
   131   109   110    2
   132   162   163    1
   133   163   164    1
   134   138   137    1
   135   161   159    1
   136   159   158    2
   137   165   164    2
   138   137   136    1
   139   146   144   am
   140   158   157    1
   141   144   145    2
   142   144   143    1
   143   157   156    1
   144   143   140    1
   145   136   135    1
   146   150   149    2
   147   134   135    1
   148   134   131    1
   149   133   132    2
   150   156   155    1
   151   155   152    1
   152   149   148    1
   153   140   139    1
   154   140   141    1
   155   130   131    1
   156   147   148    1
   157   154   153    2
   158   131   132    1
   159   141   142    2
   160   152   153    1
   161   152   151    1
