@<TRIPOS>MOLECULE
tmp/4mx1A00.pdb
 185 179 0 0 0
SMALL
GASTEIGER

@<TRIPOS>ATOM
      1  N        -25.2940    3.8920  -15.2350 N.3    79  ASN79      -0.1240
      2  CA       -24.9880    5.3310  -15.0190 C.3    79  ASN79       0.1653
      3  C        -23.7580    5.4880  -14.1470 C.2    79  ASN79       0.2266
      4  O        -23.3690    6.6420  -13.8970 O.2    79  ASN79      -0.2867
      5  CB       -26.1660    6.1210  -14.3770 C.3    79  ASN79       0.1155
      6  CG       -26.6600    5.4600  -13.0720 C.2    79  ASN79       0.2627
      7  OD1      -26.0230    4.5050  -12.5450 O.2    79  ASN79      -0.2716
      8  ND2      -27.8540    5.9020  -12.6090 N.am   79  ASN79      -0.0877
      9  N        -23.4130    4.9460  -11.1150 N.3    81  TYR81      -0.1227
     10  CA       -23.7670    5.5430   -9.7990 C.3    81  TYR81       0.1736
     11  C        -23.5000    4.6110   -8.6930 C.2    81  TYR81       0.2595
     12  O        -23.7380    3.3800   -8.8160 O.2    81  TYR81      -0.2718
     13  CB       -25.2390    5.8960   -9.7230 C.3    81  TYR81       0.0548
     14  CG       -25.5930    7.3170  -10.0000 C.ar   81  TYR81      -0.0200
     15  CD1      -26.3200    8.0360   -9.0840 C.ar   81  TYR81      -0.0009
     16  CD2      -25.2450    7.9320  -11.2040 C.ar   81  TYR81      -0.0009
     17  CE1      -26.7220    9.3640   -9.3520 C.ar   81  TYR81       0.0417
     18  CE2      -25.6340    9.2530  -11.4880 C.ar   81  TYR81       0.0417
     19  CZ       -26.3570    9.9520  -10.5510 C.ar   81  TYR81       0.1957
     20  OH       -26.7460   11.2520  -10.8490 O.3    81  TYR81      -0.2866
     21  N        -22.9640    5.1570   -7.5690 N.am   82  VAL82      -0.1980
     22  CA       -22.7630    4.3200   -6.3680 C.3    82  VAL82       0.1595
     23  C        -24.1040    4.2120   -5.6640 C.2    82  VAL82       0.2287
     24  O        -24.6650    5.2000   -5.3050 O.2    82  VAL82      -0.2864
     25  CB       -21.7560    5.0680   -5.4560 C.3    82  VAL82       0.0276
     26  CG1      -21.6230    4.2170   -4.1300 C.3    82  VAL82       0.0022
     27  CG2      -20.4150    5.1690   -6.1550 C.3    82  VAL82       0.0022
     28  N        -28.6450    4.0000   -0.7620 N.3    94  PHE94      -0.1298
     29  CA       -29.2980    5.2670   -0.8850 C.3    94  PHE94       0.1290
     30  C        -30.7850    5.0310   -1.2240 C.3    94  PHE94       0.2013
     31  O        -31.1040    3.9250   -1.8180 O.3    94  PHE94      -0.2188
     32  CB       -28.6780    6.1840   -1.9360 C.3    94  PHE94       0.0480
     33  CG       -27.2710    6.5340   -1.6460 C.ar   94  PHE94      -0.0206
     34  CD1      -26.9750    7.3630   -0.5790 C.ar   94  PHE94      -0.0042
     35  CD2      -26.2280    6.0530   -2.4150 C.ar   94  PHE94      -0.0042
     36  CE1      -25.6400    7.6900   -0.2520 C.ar   94  PHE94      -0.0003
     37  CE2      -24.9030    6.3450   -2.1080 C.ar   94  PHE94      -0.0003
     38  CZ       -24.6100    7.2040   -1.0430 C.ar   94  PHE94      -0.0000
     39  N        -28.8050    9.5860   -2.8790 N.3   122  GLY122     -0.1210
     40  CA       -27.3220    9.7280   -2.9510 C.3   122  GLY122      0.1956
     41  C        -26.8290   10.7700   -3.9300 C.2   122  GLY122      0.2612
     42  O        -25.6060   10.7590   -4.2160 O.2   122  GLY122     -0.2717
     43  N        -27.6110   11.7140   -4.4390 N.am  123  ASN123     -0.1960
     44  CA       -27.1250   12.7970   -5.3330 C.3   123  ASN123      0.1819
     45  C        -26.2510   13.7810   -4.5760 C.2   123  ASN123      0.2621
     46  O        -26.3820   13.9110   -3.3200 O.2   123  ASN123     -0.2715
     47  CB       -28.2110   13.5710   -6.0870 C.3   123  ASN123      0.1195
     48  CG       -29.0010   12.7600   -7.1140 C.2   123  ASN123      0.2630
     49  OD1      -30.0430   13.2590   -7.6170 O.2   123  ASN123     -0.2716
     50  ND2      -28.6090   11.5410   -7.3630 N.am  123  ASN123     -0.0877
     51  N        -25.3670   14.4910   -5.2710 N.am  124  TYR124     -0.1960
     52  CA       -24.3950   15.4280   -4.6170 C.3   124  TYR124      0.1771
     53  C        -25.1460   16.4630   -3.7920 C.2   124  TYR124      0.2619
     54  O        -24.7090   16.7750   -2.6970 O.2   124  TYR124     -0.2715
     55  CB       -23.5270   16.1910   -5.5900 C.3   124  TYR124      0.0574
     56  CG       -22.4770   15.3380   -6.2990 C.ar  124  TYR124     -0.0198
     57  CD1      -21.6880   14.4160   -5.5940 C.ar  124  TYR124     -0.0009
     58  CD2      -22.3060   15.5010   -7.6800 C.ar  124  TYR124     -0.0009
     59  CE1      -20.6760   13.7330   -6.2400 C.ar  124  TYR124      0.0417
     60  CE2      -21.3010   14.7910   -8.3360 C.ar  124  TYR124      0.0417
     61  CZ       -20.5610   13.8730   -7.5940 C.ar  124  TYR124      0.1957
     62  OH       -19.5920   13.2210   -8.3080 O.3   124  TYR124     -0.2866
     63  N        -26.2330   17.0070   -4.3080 N.am  125  ASP125     -0.1971
     64  CA       -26.9090   18.0860   -3.5570 C.3   125  ASP125      0.1709
     65  C        -27.3090   17.6150   -2.1500 C.2   125  ASP125      0.2293
     66  O        -26.9970   18.2900   -1.2040 O.2   125  ASP125     -0.2864
     67  CB       -28.1090   18.6160   -4.3400 C.3   125  ASP125      0.1436
     68  CG       -28.7460   19.8590   -3.6910 C.2   125  ASP125      0.3671
     69  OD1      -28.1300   20.5480   -2.8550 O.co2 125  ASP125     -0.2456
     70  OD2      -29.9120   20.1550   -4.0620 O.co2 125  ASP125     -0.2456
     71  N        -18.9190   20.2050   -2.5890 N.3   135  ARG135     -0.1245
     72  CA       -17.7650   19.6370   -3.2950 C.3   135  ARG135      0.1563
     73  C        -16.5810   20.5380   -3.4110 C.2   135  ARG135      0.2260
     74  O        -15.4770   20.0750   -3.2630 O.2   135  ARG135     -0.2867
     75  CB       -18.1690   19.1350   -4.6920 C.3   135  ARG135      0.0307
     76  CG       -18.9560   17.8430   -4.6540 C.3   135  ARG135      0.0489
     77  CD       -19.4940   17.6010   -6.0760 C.3   135  ARG135      0.2205
     78  NE       -20.6700   18.5110   -6.3500 N.pl3 135  ARG135     -0.0865
     79  CZ       -21.1490   18.8020   -7.5450 C.cat 135  ARG135      0.5346
     80  NH1      -20.6170   18.3240   -8.6650 N.pl3 135  ARG135      0.1354
     81  NH2      -22.2670   19.5660   -7.6470 N.pl3 135  ARG135      0.1354
     82  N        -17.3450    8.8510   -4.6300 N.3   173  ILE173     -0.1245
     83  CA       -18.0560    8.9640   -5.9350 C.3   173  ILE173      0.1561
     84  C        -17.1890    9.7130   -6.8960 C.2   173  ILE173      0.2260
     85  O        -17.1080    9.3380   -8.0500 O.2   173  ILE173     -0.2867
     86  CB       -19.3960    9.7030   -5.6790 C.3   173  ILE173      0.0252
     87  CG1      -20.3340    8.8550   -4.7620 C.3   173  ILE173      0.0019
     88  CG2      -20.0020   10.1720   -7.0190 C.3   173  ILE173      0.0019
     89  CD1      -21.4770    9.7740   -4.1820 C.3   173  ILE173      0.0001
     90  N        -16.5060    6.9000   -9.6270 N.3   177  SER177     -0.1202
     91  CA       -17.4940    7.1210  -10.7190 C.3   177  SER177      0.2020
     92  C        -17.1450    8.2980  -11.6640 C.2   177  SER177      0.2618
     93  O        -17.1750    8.1560  -12.9140 O.2   177  SER177     -0.2717
     94  CB       -18.9030    7.3530  -10.0630 C.3   177  SER177      0.2103
     95  OG       -19.2180    6.1970   -9.2790 O.3   177  SER177     -0.2182
     96  N        -16.8200    9.4530  -11.0730 N.am  178  GLU178     -0.1979
     97  CA       -16.4810   10.5380  -11.9530 C.3   178  GLU178      0.1602
     98  C        -15.2010   10.3500  -12.6890 C.2   178  GLU178      0.2287
     99  O        -15.1180   10.7250  -13.9130 O.2   178  GLU178     -0.2864
    100  CB       -16.4130   11.9060  -11.2600 C.3   178  GLU178      0.0415
    101  CG       -17.6910   12.2470  -10.5170 C.3   178  GLU178      0.1163
    102  CD       -18.8470   12.6430  -11.4230 C.2   178  GLU178      0.3649
    103  OE1      -18.8590   12.4430  -12.6600 O.co2 178  GLU178     -0.2457
    104  OE2      -19.8340   13.1500  -10.8340 O.co2 178  GLU178     -0.2457
    105  N        -16.0860    8.1730  -15.6000 N.3   181  ARG181     -0.1245
    106  CA       -16.8700    8.8890  -16.6030 C.3   181  ARG181      0.1563
    107  C        -15.9640    9.8190  -17.4280 C.2   181  ARG181      0.2260
    108  O        -16.2900   10.0620  -18.5920 O.2   181  ARG181     -0.2867
    109  CB       -17.9640    9.7460  -15.9190 C.3   181  ARG181      0.0307
    110  CG       -19.1170    8.8880  -15.3730 C.3   181  ARG181      0.0489
    111  CD       -19.9750    9.8620  -14.5520 C.3   181  ARG181      0.2205
    112  NE       -20.9970    9.0580  -13.8780 N.pl3 181  ARG181     -0.0865
    113  CZ       -21.4180    9.3190  -12.6200 C.cat 181  ARG181      0.5346
    114  NH1      -20.8340   10.2790  -11.8840 N.pl3 181  ARG181      0.1354
    115  NH2      -22.3590    8.5780  -12.1110 N.pl3 181  ARG181      0.1354
    116  N        -18.6840   17.4570  -13.8620 N.3   209  GLU209     -0.1231
    117  CA       -19.5670   16.5680  -13.0900 C.3   209  GLU209      0.1699
    118  C        -21.0030   17.0090  -13.2430 C.2   209  GLU209      0.2592
    119  O        -21.9170   16.1620  -13.5200 O.2   209  GLU209     -0.2718
    120  CB       -19.2800   16.6140  -11.6010 C.3   209  GLU209      0.0402
    121  CG       -17.7840   16.1700  -11.3150 C.3   209  GLU209      0.1161
    122  CD       -17.3850   16.2740   -9.8750 C.2   209  GLU209      0.3649
    123  OE1      -18.1030   16.8860   -9.0840 O.co2 209  GLU209     -0.2457
    124  OE2      -16.2990   15.7320   -9.4410 O.co2 209  GLU209     -0.2457
    125  N        -21.1910   18.3510  -13.1530 N.am  210  ASN210     -0.1960
    126  CA       -22.5810   18.7920  -13.1990 C.3   210  ASN210      0.1819
    127  C        -23.2020   18.6340  -14.5520 C.2   210  ASN210      0.2622
    128  O        -24.4590   18.5970  -14.6480 O.2   210  ASN210     -0.2715
    129  CB       -22.6650   20.2820  -12.7480 C.3   210  ASN210      0.1195
    130  CG       -22.3110   20.4870  -11.2480 C.2   210  ASN210      0.2630
    131  OD1      -22.0150   21.6590  -10.8350 O.2   210  ASN210     -0.2716
    132  ND2      -22.4710   19.5140  -10.4880 N.am  210  ASN210     -0.0877
    133  N        -22.3600   18.5340  -15.5970 N.am  211  SER211     -0.1936
    134  CA       -22.8290   18.5650  -16.9660 C.3   211  SER211      0.2055
    135  C        -22.8640   17.1860  -17.6320 C.2   211  SER211      0.2643
    136  O        -23.1030   17.1040  -18.8470 O.2   211  SER211     -0.2714
    137  CB       -21.9400   19.4570  -17.8330 C.3   211  SER211      0.2130
    138  OG       -22.0130   20.8170  -17.3010 O.3   211  SER211     -0.2179
    139  N        -22.5810   16.1190  -16.8940 N.am  212  TRP212     -0.1959
    140  CA       -22.4060   14.7800  -17.5660 C.3   212  TRP212      0.1771
    141  C        -23.6460   14.3450  -18.3300 C.2   212  TRP212      0.2620
    142  O        -23.5420   13.9080  -19.4750 O.2   212  TRP212     -0.2715
    143  CB       -21.9930   13.7390  -16.5270 C.3   212  TRP212      0.0590
    144  CG       -21.7400   12.3670  -17.1670 C.ar  212  TRP212      0.0006
    145  CD1      -20.7940   12.0910  -18.0960 C.ar  212  TRP212      0.0946
    146  CD2      -22.4150   11.1420  -16.8470 C.ar  212  TRP212      0.0152
    147  NE1      -20.8100   10.7260  -18.3290 N.ar  212  TRP212     -0.2442
    148  CE2      -21.8010   10.1390  -17.6060 C.ar  212  TRP212      0.0810
    149  CE3      -23.4870   10.7840  -15.9260 C.ar  212  TRP212      0.0012
    150  CZ2      -22.1700    8.7830  -17.5240 C.ar  212  TRP212      0.0191
    151  CZ3      -23.8860    9.4080  -15.8750 C.ar  212  TRP212      0.0001
    152  CH2      -23.2310    8.4480  -16.6840 C.ar  212  TRP212      0.0015
    153  N        -24.8020   14.4520  -17.6880 N.am  213  GLY213     -0.1940
    154  CA       -26.0400   14.0790  -18.3910 C.3   213  GLY213      0.2014
    155  C        -26.3180   14.9400  -19.6090 C.2   213  GLY213      0.2638
    156  O        -26.7060   14.3850  -20.6720 O.2   213  GLY213     -0.2714
    157  N        -26.1390   16.2510  -19.4680 N.am  214  ARG214     -0.1977
    158  CA       -26.3510   17.1710  -20.5700 C.3   214  ARG214      0.1597
    159  C        -25.3820   16.9460  -21.7010 C.2   214  ARG214      0.2287
    160  O        -25.7550   16.9980  -22.8810 O.2   214  ARG214     -0.2864
    161  CB       -26.3840   18.5740  -19.9810 C.3   214  ARG214      0.0334
    162  CG       -27.7320   18.8380  -19.2950 C.3   214  ARG214      0.0492
    163  CD       -28.7650   19.4920  -20.2910 C.3   214  ARG214      0.2205
    164  NE       -28.4440   20.9340  -20.3080 N.pl3 214  ARG214     -0.0865
    165  CZ       -27.6790   21.5730  -21.2140 C.cat 214  ARG214      0.5346
    166  NH1      -27.2130   20.9320  -22.2800 N.pl3 214  ARG214      0.1354
    167  NH2      -27.4120   22.8860  -21.0810 N.pl3 214  ARG214      0.1354
    168  N        -23.9860    8.2800  -20.4170 N.3   257  VAL257     -0.1245
    169  CA       -25.2720    7.5700  -20.0810 C.3   257  VAL257      0.1561
    170  C        -26.0820    7.4250  -21.3760 C.2   257  VAL257      0.2260
    171  O        -26.1040    8.3710  -22.2020 O.2   257  VAL257     -0.2867
    172  CB       -26.0300    8.2650  -18.9030 C.3   257  VAL257      0.0252
    173  CG1      -26.3650    9.6980  -19.3110 C.3   257  VAL257      0.0019
    174  CG2      -27.2740    7.5570  -18.5330 C.3   257  VAL257      0.0019
    175  N        -29.0010    7.7560  -23.7020 N.3   259  ARG259     -0.1245
    176  CA       -30.1780    8.6590  -23.7530 C.3   259  ARG259      0.1563
    177  C        -31.1330    8.3380  -24.8450 C.2   259  ARG259      0.2260
    178  O        -32.3450    8.3580  -24.6460 O.2   259  ARG259     -0.2867
    179  CB       -29.8070   10.1030  -24.0050 C.3   259  ARG259      0.0307
    180  CG       -28.7380   10.6750  -23.2420 C.3   259  ARG259      0.0489
    181  CD       -29.0870   11.7260  -22.2620 C.3   259  ARG259      0.2205
    182  NE       -29.5130   11.0720  -21.0790 N.pl3 259  ARG259     -0.0865
    183  CZ       -29.3900   11.4640  -19.8080 C.cat 259  ARG259      0.5346
    184  NH1      -28.9330   12.6430  -19.3790 N.pl3 259  ARG259      0.1354
    185  NH2      -29.9160   10.6550  -18.9480 N.pl3 259  ARG259      0.1354
@<TRIPOS>BOND
     1   177   178    2
     2   177   176    1
     3   179   176    1
     4   179   180    1
     5   176   175    1
     6   180   181    1
     7   160   159    2
     8   166   165    1
     9   181   182    1
    10   171   170    2
    11   159   158    1
    12   170   169    1
    13   165   167    1
    14   165   164    2
    15   182   183    2
    16   156   155    2
    17   158   161    1
    18   158   157    1
    19   168   169    1
    20   164   163    1
    21   163   162    1
    22   169   172    1
    23   161   162    1
    24   183   184    1
    25   183   185    1
    26   155   157   am
    27   155   154    1
    28   142   141    2
    29   173   172    1
    30   172   174    1
    31   136   135    2
    32   108   107    2
    33   154   153    1
    34   141   153   am
    35   141   140    1
    36   147   145   ar
    37   147   148   ar
    38   145   144   ar
    39   137   138    1
    40   137   134    1
    41   135   134    1
    42   135   139   am
    43   148   150   ar
    44   148   146   ar
    45   140   139    1
    46   140   143    1
    47   150   152   ar
    48   107   106    1
    49   144   146   ar
    50   144   143    1
    51   134   133    1
    52   146   149   ar
    53   152   151   ar
    54   106   109    1
    55   106   105    1
    56   149   151   ar
    57   109   110    1
    58   133   127   am
    59   110   111    1
    60     1     2    1
    61     2     5    1
    62     2     3    1
    63   128   127    2
    64   127   126    1
    65   111   112    1
    66     5     6    1
    67     3     4    2
    68    99    98    2
    69   112   113    2
    70   116   117    1
    71   119   118    2
    72   118   125   am
    73   118   117    1
    74   126   125    1
    75   126   129    1
    76   117   120    1
    77     6     8   am
    78     6     7    2
    79    93    92    2
    80   129   130    1
    81    98    97    1
    82   103   102   ar
    83   113   115    1
    84   113   114    1
    85    97   100    1
    86    97    96    1
    87    92    96   am
    88    92    91    1
    89   120   121    1
    90    18    16   ar
    91    18    19   ar
    92   102   104   ar
    93   102   101    1
    94   121   122    1
    95   100   101    1
    96   130   131    2
    97   130   132   am
    98    16    14   ar
    99     9    10    1
   100    20    19    1
   101    91    94    1
   102    91    90    1
   103    19    17   ar
   104    94    95    1
   105    14    13    1
   106    14    15   ar
   107   122   124   ar
   108   122   123   ar
   109    10    13    1
   110    10    11    1
   111    17    15   ar
   112    12    11    2
   113    11    21   am
   114    80    79    1
   115    60    58   ar
   116    60    61   ar
   117    62    61    1
   118    85    84    2
   119    58    56   ar
   120    81    79    1
   121    49    48    2
   122    61    59   ar
   123    21    22    1
   124    79    78    2
   125    50    48   am
   126    48    47    1
   127    88    86    1
   128    84    83    1
   129    22    23    1
   130    22    25    1
   131    78    77    1
   132    56    57   ar
   133    56    55    1
   134    59    57   ar
   135    27    25    1
   136    47    44    1
   137    77    76    1
   138    83    86    1
   139    83    82    1
   140    86    87    1
   141    23    24    2
   142    55    52    1
   143    25    26    1
   144    44    45    1
   145    44    43    1
   146    51    52    1
   147    51    45   am
   148    87    89    1
   149    75    76    1
   150    75    72    1
   151    52    53    1
   152    45    46    2
   153    43    41   am
   154    67    68    1
   155    67    64    1
   156    63    53   am
   157    63    64    1
   158    42    41    2
   159    70    68   ar
   160    41    40    1
   161    53    54    2
   162    68    69   ar
   163    64    65    1
   164    73    72    1
   165    73    74    2
   166    72    71    1
   167    40    39    1
   168    35    37   ar
   169    35    33   ar
   170    65    66    2
   171    37    38   ar
   172    32    33    1
   173    32    29    1
   174    31    30    1
   175    33    34   ar
   176    30    29    1
   177    38    36   ar
   178    29    28    1
   179    34    36   ar
