@<TRIPOS>MOLECULE
tmp/4mx5A00.pdb
 138 134 0 0 0
SMALL
GASTEIGER

@<TRIPOS>ATOM
      1  N         23.2870   -5.0380  -11.1250 N.3    76  TYR76      -0.1227
      2  CA        23.6490   -5.5840   -9.7770 C.3    76  TYR76       0.1736
      3  C         23.3240   -4.6190   -8.7190 C.2    76  TYR76       0.2595
      4  O         23.5160   -3.4360   -8.8310 O.2    76  TYR76      -0.2718
      5  CB        25.1420   -5.8880   -9.6960 C.3    76  TYR76       0.0548
      6  CG        25.5020   -7.3380   -9.9320 C.ar   76  TYR76      -0.0200
      7  CD1       25.1810   -7.8960  -11.1660 C.ar   76  TYR76      -0.0009
      8  CD2       26.1990   -8.1310   -9.0100 C.ar   76  TYR76      -0.0009
      9  CE1       25.5540   -9.2370  -11.5140 C.ar   76  TYR76       0.0417
     10  CE2       26.5670   -9.4890   -9.3120 C.ar   76  TYR76       0.0417
     11  CZ        26.2240  -10.0300  -10.5830 C.ar   76  TYR76       0.1957
     12  OH        26.5440  -11.3520  -11.0130 O.3    76  TYR76      -0.2866
     13  N         22.7380   -5.1160   -7.5830 N.am   77  VAL77      -0.1980
     14  CA        22.5810   -4.2880   -6.3760 C.3    77  VAL77       0.1595
     15  C         23.9710   -4.1760   -5.7460 C.2    77  VAL77       0.2287
     16  O         24.5440   -5.1970   -5.3710 O.2    77  VAL77      -0.2864
     17  CB        21.6560   -5.0030   -5.4020 C.3    77  VAL77       0.0276
     18  CG1       21.5070   -4.1950   -4.0970 C.3    77  VAL77       0.0022
     19  CG2       20.2310   -5.0970   -6.0560 C.3    77  VAL77       0.0022
     20  N         28.4660   -3.8660   -0.7960 N.3    89  PHE89      -0.1241
     21  CA        29.1300   -5.1220   -0.9070 C.3    89  PHE89       0.1605
     22  C         30.6250   -4.8950   -1.2350 C.2    89  PHE89       0.2264
     23  O         30.9340   -3.8060   -1.7980 O.2    89  PHE89      -0.2867
     24  CB        28.5210   -6.0700   -1.9610 C.3    89  PHE89       0.0534
     25  CG        27.1360   -6.4150   -1.6620 C.ar   89  PHE89      -0.0203
     26  CD1       26.8730   -7.2350   -0.5860 C.ar   89  PHE89      -0.0042
     27  CD2       26.0740   -6.0060   -2.4580 C.ar   89  PHE89      -0.0042
     28  CE1       25.5470   -7.5760   -0.2340 C.ar   89  PHE89      -0.0003
     29  CE2       24.7410   -6.3890   -2.1390 C.ar   89  PHE89      -0.0003
     30  CZ        24.4840   -7.1720   -1.0250 C.ar   89  PHE89      -0.0000
     31  N         28.7280   -9.6400   -2.8850 N.3   117  GLY117     -0.1210
     32  CA        27.2580   -9.7140   -2.9370 C.3   117  GLY117      0.1956
     33  C         26.7760  -10.7310   -3.9590 C.2   117  GLY117      0.2612
     34  O         25.5200  -10.7070   -4.2740 O.2   117  GLY117     -0.2717
     35  N         27.5660  -11.6600   -4.4250 N.am  118  ASN118     -0.1960
     36  CA        27.1070  -12.7300   -5.3050 C.3   118  ASN118      0.1819
     37  C         26.2160  -13.7310   -4.5820 C.2   118  ASN118      0.2621
     38  O         26.2990  -13.8400   -3.3210 O.2   118  ASN118     -0.2715
     39  CB        28.2460  -13.4210   -6.0690 C.3   118  ASN118      0.1195
     40  CG        29.0480  -12.4480   -6.9940 C.2   118  ASN118      0.2630
     41  OD1       28.6400  -11.3220   -7.2820 O.2   118  ASN118     -0.2716
     42  ND2       30.2440  -12.8830   -7.3830 N.am  118  ASN118     -0.0877
     43  N         25.3180  -14.4180   -5.3100 N.am  119  TYR119     -0.1960
     44  CA        24.4100  -15.3760   -4.6600 C.3   119  TYR119      0.1771
     45  C         25.1940  -16.3860   -3.8260 C.2   119  TYR119      0.2616
     46  O         24.7210  -16.6720   -2.7600 O.2   119  TYR119     -0.2715
     47  CB        23.5720  -16.1900   -5.6680 C.3   119  TYR119      0.0574
     48  CG        22.4780  -15.3810   -6.3700 C.ar  119  TYR119     -0.0198
     49  CD1       21.5850  -14.5280   -5.6600 C.ar  119  TYR119     -0.0009
     50  CD2       22.3540  -15.5350   -7.7530 C.ar  119  TYR119     -0.0009
     51  CE1       20.5520  -13.8260   -6.3500 C.ar  119  TYR119      0.0417
     52  CE2       21.3530  -14.7640   -8.4540 C.ar  119  TYR119      0.0417
     53  CZ        20.5360  -13.8970   -7.7000 C.ar  119  TYR119      0.1957
     54  OH        19.5470  -13.2450   -8.3650 O.3   119  TYR119     -0.2866
     55  N         26.3640  -16.8860   -4.2920 N.am  120  ASP120     -0.2025
     56  CA        26.9300  -18.0260   -3.5630 C.3   120  ASP120      0.1395
     57  C         27.2970  -17.5240   -2.1710 C.3   120  ASP120      0.2041
     58  O         27.0100  -18.2210   -1.1250 O.3   120  ASP120     -0.2185
     59  CB        28.1960  -18.5290   -4.2510 C.3   120  ASP120      0.1383
     60  CG        28.7060  -19.9000   -3.6520 C.2   120  ASP120      0.3667
     61  OD1       28.1660  -20.5150   -2.6850 O.co2 120  ASP120     -0.2456
     62  OD2       29.7400  -20.3880   -4.1840 O.co2 120  ASP120     -0.2456
     63  N         18.8880  -20.2280   -2.7110 N.3   130  ARG130     -0.1245
     64  CA        17.7480  -19.6130   -3.4330 C.3   130  ARG130      0.1563
     65  C         16.5520  -20.4960   -3.4870 C.2   130  ARG130      0.2260
     66  O         15.3990  -20.0620   -3.2530 O.2   130  ARG130     -0.2867
     67  CB        18.1940  -19.1600   -4.8620 C.3   130  ARG130      0.0307
     68  CG        18.8790  -17.7940   -4.8150 C.3   130  ARG130      0.0489
     69  CD        19.4620  -17.5360   -6.1670 C.3   130  ARG130      0.2205
     70  NE        20.6670  -18.3850   -6.4120 N.pl3 130  ARG130     -0.0865
     71  CZ        21.1000  -18.7700   -7.5880 C.cat 130  ARG130      0.5346
     72  NH1       20.5570  -18.3440   -8.7580 N.pl3 130  ARG130      0.1354
     73  NH2       22.2680  -19.4030   -7.6490 N.pl3 130  ARG130      0.1354
     74  N         17.2940   -8.8720   -4.6710 N.3   168  ILE168     -0.1245
     75  CA        17.9740   -9.0150   -5.9490 C.3   168  ILE168      0.1561
     76  C         17.0590   -9.7020   -6.9410 C.2   168  ILE168      0.2260
     77  O         17.0070   -9.2990   -8.1400 O.2   168  ILE168     -0.2867
     78  CB        19.3530   -9.7240   -5.7380 C.3   168  ILE168      0.0252
     79  CG1       20.3100   -8.8520   -4.9060 C.3   168  ILE168      0.0019
     80  CG2       19.9890  -10.2170   -7.0890 C.3   168  ILE168      0.0019
     81  CD1       21.3980   -9.7420   -4.3050 C.3   168  ILE168      0.0001
     82  N         16.4110   -6.9440   -9.6290 N.3   172  SER172     -0.1202
     83  CA        17.3740   -7.1280  -10.7090 C.3   172  SER172      0.2020
     84  C         17.0600   -8.2760  -11.6560 C.2   172  SER172      0.2615
     85  O         17.0960   -8.1360  -12.9220 O.2   172  SER172     -0.2717
     86  CB        18.8170   -7.3190  -10.1730 C.3   172  SER172      0.2103
     87  OG        19.1070   -6.2240   -9.2800 O.3   172  SER172     -0.2182
     88  N         16.7510   -9.4420  -11.1250 N.am  173  GLU173     -0.2032
     89  CA        16.4450  -10.5070  -11.9920 C.3   173  GLU173      0.1288
     90  C         15.1520  -10.3410  -12.7600 C.3   173  GLU173      0.2036
     91  O         15.0240  -10.7520  -13.9770 O.3   173  GLU173     -0.2185
     92  CB        16.3660  -11.8990  -11.2630 C.3   173  GLU173      0.0362
     93  CG        17.6150  -12.3060  -10.5650 C.3   173  GLU173      0.1159
     94  CD        18.7950  -12.6680  -11.4870 C.2   173  GLU173      0.3649
     95  OE1       18.7640  -12.4750  -12.7270 O.co2 173  GLU173     -0.2457
     96  OE2       19.8100  -13.1740  -10.9110 O.co2 173  GLU173     -0.2457
     97  N         15.9960   -8.1940  -15.6260 N.3   176  ARG176     -0.1245
     98  CA        16.8250   -8.9320  -16.6460 C.3   176  ARG176      0.1563
     99  C         15.8970   -9.8690  -17.4950 C.2   176  ARG176      0.2260
    100  O         16.1530  -10.0540  -18.6850 O.2   176  ARG176     -0.2867
    101  CB        17.9590   -9.7090  -15.9840 C.3   176  ARG176      0.0307
    102  CG        19.0290   -8.9270  -15.3780 C.3   176  ARG176      0.0489
    103  CD        19.8910   -9.9000  -14.6530 C.3   176  ARG176      0.2205
    104  NE        20.9320   -9.1160  -13.9180 N.pl3 176  ARG176     -0.0865
    105  CZ        21.2570   -9.3110  -12.6430 C.cat 176  ARG176      0.5346
    106  NH1       20.6800  -10.2900  -11.9240 N.pl3 176  ARG176      0.1354
    107  NH2       22.2190   -8.5620  -12.1280 N.pl3 176  ARG176      0.1354
    108  N         18.5860  -17.4020  -13.9160 N.3   204  GLU204     -0.1231
    109  CA        19.4750  -16.5530  -13.1250 C.3   204  GLU204      0.1699
    110  C         20.9520  -16.9710  -13.3180 C.2   204  GLU204      0.2592
    111  O         21.8420  -16.1410  -13.5790 O.2   204  GLU204     -0.2718
    112  CB        19.1770  -16.5910  -11.6710 C.3   204  GLU204      0.0402
    113  CG        17.6730  -16.1800  -11.3820 C.3   204  GLU204      0.1161
    114  CD        17.3510  -16.2490   -9.9440 C.2   204  GLU204      0.3649
    115  OE1       18.0600  -16.9280   -9.1780 O.co2 204  GLU204     -0.2457
    116  OE2       16.2420  -15.7480   -9.5120 O.co2 204  GLU204     -0.2457
    117  N         21.1400  -18.3110  -13.2530 N.am  205  ASN205     -0.1974
    118  CA        22.5670  -18.7520  -13.3190 C.3   205  ASN205      0.1688
    119  C         23.1360  -18.6280  -14.6820 C.2   205  ASN205      0.2292
    120  O         24.4000  -18.5500  -14.8110 O.2   205  ASN205     -0.2864
    121  CB        22.6840  -20.2180  -12.8580 C.3   205  ASN205      0.1181
    122  CG        22.3620  -20.3780  -11.3390 C.2   205  ASN205      0.2629
    123  OD1       22.4770  -19.4160  -10.5890 O.2   205  ASN205     -0.2716
    124  ND2       22.0770  -21.6220  -10.9390 N.am  205  ASN205     -0.0877
    125  N         22.4820  -16.1450  -16.9960 N.3   207  TRP207     -0.1241
    126  CA        22.3110  -14.7950  -17.6460 C.3   207  TRP207      0.1605
    127  C         23.5350  -14.3740  -18.4060 C.2   207  TRP207      0.2264
    128  O         23.4330  -13.9230  -19.5710 O.2   207  TRP207     -0.2867
    129  CB        21.9210  -13.7390  -16.6140 C.3   207  TRP207      0.0550
    130  CG        21.6760  -12.3790  -17.2400 C.ar  207  TRP207      0.0003
    131  CD1       20.6950  -12.1150  -18.1570 C.ar  207  TRP207      0.0946
    132  CD2       22.2860  -11.1720  -16.8850 C.ar  207  TRP207      0.0152
    133  NE1       20.7110  -10.7290  -18.4210 N.ar  207  TRP207     -0.2442
    134  CE2       21.7140  -10.1600  -17.6630 C.ar  207  TRP207      0.0810
    135  CE3       23.3910  -10.8600  -16.0150 C.ar  207  TRP207      0.0012
    136  CZ2       22.0760   -8.8140  -17.5020 C.ar  207  TRP207      0.0191
    137  CZ3       23.7970   -9.4950  -15.8540 C.ar  207  TRP207      0.0001
    138  CH2       23.1540   -8.4950  -16.6380 C.ar  207  TRP207      0.0015
@<TRIPOS>BOND
     1   128   127    2
     2   100    99    2
     3   133   131   ar
     4   133   134   ar
     5   127   126    1
     6   131   130   ar
     7   134   136   ar
     8   134   132   ar
     9   126   125    1
    10   126   129    1
    11   136   138   ar
    12    99    98    1
    13   130   132   ar
    14   130   129    1
    15   132   135   ar
    16    98   101    1
    17    98    97    1
    18   138   137   ar
    19   135   137   ar
    20   101   102    1
    21   102   103    1
    22   120   119    2
    23   119   118    1
    24   103   104    1
    25    91    90    1
    26   104   105    2
    27   108   109    1
    28   111   110    2
    29   118   117    1
    30   118   121    1
    31   110   117   am
    32   110   109    1
    33   109   112    1
    34    85    84    2
    35   121   122    1
    36    90    89    1
    37    95    94   ar
    38   105   107    1
    39   105   106    1
    40    89    92    1
    41    89    88    1
    42   112   113    1
    43    84    88   am
    44    84    83    1
    45     9     7   ar
    46     9    11   ar
    47    94    96   ar
    48    94    93    1
    49   113   114    1
    50   122   124   am
    51   122   123    2
    52    92    93    1
    53     7     6   ar
    54     1     2    1
    55    12    11    1
    56    83    86    1
    57    83    82    1
    58    11    10   ar
    59    86    87    1
    60   114   116   ar
    61   114   115   ar
    62     6     5    1
    63     6     8   ar
    64     2     5    1
    65     2     3    1
    66    10     8   ar
    67     4     3    2
    68    72    71    1
    69     3    13   am
    70    52    50   ar
    71    52    53   ar
    72    54    53    1
    73    77    76    2
    74    50    48   ar
    75    53    51   ar
    76    73    71    1
    77    71    70    2
    78    13    14    1
    79    42    40   am
    80    41    40    2
    81    80    78    1
    82    40    39    1
    83    76    75    1
    84    70    69    1
    85    14    15    1
    86    14    17    1
    87    48    47    1
    88    48    49   ar
    89    51    49   ar
    90    69    68    1
    91    39    36    1
    92    19    17    1
    93    75    78    1
    94    75    74    1
    95    15    16    2
    96    78    79    1
    97    47    44    1
    98    17    18    1
    99    43    44    1
   100    43    37   am
   101    36    37    1
   102    36    35    1
   103    79    81    1
   104    67    68    1
   105    67    64    1
   106    44    45    1
   107    37    38    2
   108    35    33   am
   109    55    45   am
   110    55    56    1
   111    34    33    2
   112    59    60    1
   113    59    56    1
   114    62    60   ar
   115    33    32    1
   116    45    46    2
   117    60    61   ar
   118    56    57    1
   119    65    64    1
   120    65    66    2
   121    64    63    1
   122    32    31    1
   123    27    29   ar
   124    27    25   ar
   125    57    58    1
   126    29    30   ar
   127    24    25    1
   128    24    21    1
   129    23    22    2
   130    25    26   ar
   131    22    21    1
   132    30    28   ar
   133    21    20    1
   134    26    28   ar
