@<TRIPOS>MOLECULE
tmp/4mx6A00.pdb
 113 104 0 0 0
SMALL
GASTEIGER

@<TRIPOS>ATOM
      1  N          6.4910    7.6140   21.3620 N.3    10  VAL10      -0.1231
      2  CA         6.5440    8.4100   20.1390 C.3    10  VAL10       0.1692
      3  C          5.2360    9.1120   19.7950 C.2    10  VAL10       0.2591
      4  O          5.1650    9.8020   18.7830 O.2    10  VAL10      -0.2718
      5  CB         6.9990    7.5470   18.9280 C.3    10  VAL10       0.0266
      6  CG1        8.3250    6.8960   19.2440 C.3    10  VAL10       0.0020
      7  CG2        5.9520    6.5090   18.5200 C.3    10  VAL10       0.0020
      8  N          4.1790    8.9070   20.5730 N.am   11  VAL11      -0.1980
      9  CA         2.8830    9.4870   20.2350 C.3    11  VAL11       0.1595
     10  C          2.5770   10.7830   20.9860 C.2    11  VAL11       0.2287
     11  O          3.2860   11.1850   21.8980 O.2    11  VAL11      -0.2864
     12  CB         1.7260    8.4710   20.3900 C.3    11  VAL11       0.0276
     13  CG1        1.9720    7.2580   19.4850 C.3    11  VAL11       0.0022
     14  CG2        1.5100    8.0380   21.8370 C.3    11  VAL11       0.0022
     15  N         -1.8740    5.5230   24.2910 N.3    17  LYS17      -0.1245
     16  CA        -0.5740    5.2870   24.9140 C.3    17  LYS17       0.1561
     17  C         -0.1310    6.4880   25.7430 C.2    17  LYS17       0.2260
     18  O          0.4430    6.3150   26.8230 O.2    17  LYS17      -0.2867
     19  CB         0.4730    4.9230   23.8590 C.3    17  LYS17       0.0271
     20  CG         1.8760    4.7610   24.4100 C.3    17  LYS17       0.0035
     21  CD         2.7830    3.9320   23.5050 C.3    17  LYS17       0.0206
     22  CE         2.8010    4.4490   22.0780 C.3    17  LYS17       0.1093
     23  NZ         3.7070    3.6340   21.2260 N.3    17  LYS17      -0.1314
     24  N          4.9220   -0.3750   19.0070 N.3    67  SER67      -0.1217
     25  CA         4.0990   -1.2090   18.1580 C.3    67  SER67       0.1889
     26  C          4.6730   -2.6220   18.0910 C.2    67  SER67       0.2288
     27  O          5.8860   -2.8120   17.9880 O.2    67  SER67      -0.2866
     28  CB         4.0960   -0.6300   16.7510 C.3    67  SER67       0.2089
     29  OG         3.4810   -1.5380   15.8570 O.3    67  SER67      -0.2183
     30  N          7.4930   -3.6070   15.6110 N.3    70  LYS70      -0.1245
     31  CA         8.8250   -3.0020   15.6950 C.3    70  LYS70       0.1561
     32  C          9.8430   -3.8450   16.4630 C.2    70  LYS70       0.2260
     33  O         10.8390   -3.3290   16.9620 O.2    70  LYS70      -0.2867
     34  CB         8.7180   -1.5790   16.2880 C.3    70  LYS70       0.0271
     35  CG         7.9790   -0.6040   15.3540 C.3    70  LYS70       0.0035
     36  CD         7.7300    0.7550   15.9710 C.3    70  LYS70       0.0206
     37  CE         6.9140    1.6350   15.0280 C.3    70  LYS70       0.1093
     38  NZ         6.4580    2.8950   15.6720 N.3    70  LYS70      -0.1314
     39  N          4.7490    5.0950    3.5050 N.3   145  ARG145     -0.1245
     40  CA         5.5580    4.8550    4.6930 C.3   145  ARG145      0.1563
     41  C          4.9990    3.6480    5.4280 C.2   145  ARG145      0.2260
     42  O          3.7850    3.4630    5.5060 O.2   145  ARG145     -0.2867
     43  CB         5.5470    6.0630    5.6160 C.3   145  ARG145      0.0307
     44  CG         6.3240    5.8640    6.9230 C.3   145  ARG145      0.0489
     45  CD         5.4310    5.4190    8.0790 C.3   145  ARG145      0.2205
     46  NE         6.2110    5.1920    9.2990 N.pl3 145  ARG145     -0.0865
     47  CZ         5.6780    4.9430   10.4900 C.cat 145  ARG145      0.5346
     48  NH1        6.4700    4.6860   11.5190 N.pl3 145  ARG145      0.1354
     49  NH2        4.3690    4.9310   10.6560 N.pl3 145  ARG145      0.1354
     50  N          5.8750    1.4190    9.2850 N.3   147  MET147     -0.1245
     51  CA         6.6910    1.0630   10.4350 C.3   147  MET147      0.1570
     52  C          7.7670    0.0810    9.9740 C.2   147  MET147      0.2261
     53  O          7.6160   -0.5840    8.9480 O.2   147  MET147     -0.2867
     54  CB         5.8160    0.4330   11.5220 C.3   147  MET147      0.0387
     55  CG         4.7790    1.3970   12.0920 C.3   147  MET147      0.0595
     56  SD         3.7330    0.7070   13.3890 S.3   147  MET147     -0.1393
     57  CE         2.5420   -0.2460   12.4440 C.3   147  MET147      0.0692
     58  N          8.1820    7.1080   13.1260 N.3   168  PHE168     -0.1241
     59  CA         6.8950    7.7620   13.2540 C.3   168  PHE168      0.1605
     60  C          7.0280    9.2750   13.2670 C.2   168  PHE168      0.2264
     61  O          6.1780    9.9690   12.7210 O.2   168  PHE168     -0.2867
     62  CB         6.2090    7.2850   14.5260 C.3   168  PHE168      0.0534
     63  CG         4.8100    7.7880   14.6990 C.ar  168  PHE168     -0.0203
     64  CD1        3.8170    7.4480   13.7880 C.ar  168  PHE168     -0.0042
     65  CD2        4.4720    8.5850   15.7800 C.ar  168  PHE168     -0.0042
     66  CE1        2.5190    7.8690   13.9790 C.ar  168  PHE168     -0.0003
     67  CE2        3.1660    8.9980   15.9720 C.ar  168  PHE168     -0.0003
     68  CZ         2.1930    8.6520   15.0570 C.ar  168  PHE168     -0.0000
     69  N         -0.4650    4.1930    6.6370 N.3   184  GLU184     -0.1231
     70  CA        -1.5290    3.4120    7.2810 C.3   184  GLU184      0.1699
     71  C         -1.4730    3.7120    8.7760 C.2   184  GLU184      0.2592
     72  O         -0.3970    3.6850    9.3870 O.2   184  GLU184     -0.2718
     73  CB        -1.3670    1.9040    7.0250 C.3   184  GLU184      0.0402
     74  CG         0.0290    1.3770    7.3360 C.3   184  GLU184      0.1161
     75  CD         0.1260   -0.1380    7.5120 C.2   184  GLU184      0.3649
     76  OE1       -0.7670   -0.8660    7.0500 O.co2 184  GLU184     -0.2457
     77  OE2        1.1000   -0.5920    8.1540 O.co2 184  GLU184     -0.2457
     78  N         -2.6200    3.9770    9.3860 N.am  185  ASN185     -0.1974
     79  CA        -2.6260    4.2620   10.8170 C.3   185  ASN185      0.1688
     80  C         -4.0400    4.2820   11.3760 C.2   185  ASN185      0.2292
     81  O         -5.0250    4.2330   10.6350 O.2   185  ASN185     -0.2864
     82  CB        -1.8810    5.5650   11.1560 C.3   185  ASN185      0.1181
     83  CG        -0.9050    5.3480   12.2840 C.2   185  ASN185      0.2629
     84  OD1       -1.3040    4.9100   13.3680 O.2   185  ASN185     -0.2716
     85  ND2        0.3760    5.5470   12.0210 N.am  185  ASN185     -0.0877
     86  N         -4.0040    8.1820   15.7950 N.3   189  ASN189     -0.1240
     87  CA        -2.7610    8.7590   15.2830 C.3   189  ASN189      0.1653
     88  C         -3.0090    9.7290   14.1160 C.2   189  ASN189      0.2266
     89  O         -2.3590   10.7760   14.0070 O.2   189  ASN189     -0.2867
     90  CB        -1.7670    7.6750   14.8800 C.3   189  ASN189      0.1155
     91  CG        -0.9580    7.1620   16.0570 C.2   189  ASN189      0.2627
     92  OD1       -0.7510    7.8730   17.0620 O.2   189  ASN189     -0.2716
     93  ND2       -0.4680    5.9460   15.9320 N.am  189  ASN189     -0.0877
     94  N         -2.8280   -2.0600   14.8210 N.3   210  LEU210     -0.1245
     95  CA        -1.7310   -1.3490   15.4830 C.3   210  LEU210      0.1561
     96  C         -1.9750   -1.4650   16.9770 C.2   210  LEU210      0.2260
     97  O         -2.8650   -0.8220   17.5220 O.2   210  LEU210     -0.2867
     98  CB        -1.6720    0.1280   15.0820 C.3   210  LEU210      0.0270
     99  CG        -0.7530    1.0120   15.9970 C.3   210  LEU210      0.0019
    100  CD1        0.6930    0.6030   15.9110 C.3   210  LEU210      0.0001
    101  CD2       -0.8780    2.4960   15.6790 C.3   210  LEU210      0.0001
    102  N          0.3790   -2.4270   20.8880 N.3   212  TYR212     -0.1241
    103  CA         1.6750   -2.2960   21.5320 C.3   212  TYR212      0.1605
    104  C          1.9760   -3.4430   22.4810 C.2   212  TYR212      0.2264
    105  O          1.0690   -4.0200   23.0650 O.2   212  TYR212     -0.2867
    106  CB         1.7060   -1.0090   22.3490 C.3   212  TYR212      0.0534
    107  CG         1.2250    0.2160   21.6170 C.ar  212  TYR212     -0.0201
    108  CD1        1.9020    0.6910   20.5150 C.ar  212  TYR212     -0.0009
    109  CD2        0.0940    0.8960   22.0410 C.ar  212  TYR212     -0.0009
    110  CE1        1.4830    1.8390   19.8470 C.ar  212  TYR212      0.0417
    111  CE2       -0.3180    2.0560   21.4070 C.ar  212  TYR212      0.0417
    112  CZ         0.3750    2.5240   20.3160 C.ar  212  TYR212      0.1957
    113  OH        -0.0190    3.7100   19.7290 O.3   212  TYR212     -0.2866
@<TRIPOS>BOND
     1    39    40    1
     2    40    41    1
     3    40    43    1
     4    41    42    2
     5    43    44    1
     6    69    70    1
     7    44    45    1
     8    73    70    1
     9    73    74    1
    10    76    75   ar
    11    70    71    1
    12    74    75    1
    13    75    77   ar
    14    45    46    1
    15    71    78   am
    16    71    72    2
    17    53    52    2
    18    50    51    1
    19    46    47    2
    20    78    79    1
    21    52    51    1
    22    51    54    1
    23    47    49    1
    24    47    48    1
    25    81    80    2
    26    79    82    1
    27    79    80    1
    28    82    83    1
    29    54    55    1
    30    85    83   am
    31    55    56    1
    32    83    84    2
    33    57    56    1
    34    61    60    2
    35    58    59    1
    36    59    60    1
    37    59    62    1
    38    64    66   ar
    39    64    63   ar
    40    66    68   ar
    41    89    88    2
    42    88    87    1
    43    62    63    1
    44    63    65   ar
    45    94    95    1
    46    90    87    1
    47    90    91    1
    48    37    38    1
    49    37    36    1
    50    68    67   ar
    51    98    95    1
    52    98    99    1
    53    87    86    1
    54    35    36    1
    55    35    34    1
    56    95    96    1
    57    30    31    1
    58   101    99    1
    59    31    34    1
    60    31    32    1
    61    65    67   ar
    62    29    28    1
    63   100    99    1
    64    93    91   am
    65    91    92    2
    66    32    33    2
    67    28    25    1
    68    96    97    2
    69    27    26    2
    70    26    25    1
    71    25    24    1
    72     7     5    1
    73     4     3    2
    74     5     6    1
    75     5     2    1
    76    13    12    1
    77   113   112    1
    78     3     2    1
    79     3     8   am
    80   110   112   ar
    81   110   108   ar
    82     2     1    1
    83     9    12    1
    84     9     8    1
    85     9    10    1
    86   112   111   ar
    87    12    14    1
    88   108   107   ar
    89   102   103    1
    90    10    11    2
    91    23    22    1
    92   111   109   ar
    93   103   106    1
    94   103   104    1
    95   107   109   ar
    96   107   106    1
    97    22    21    1
    98   104   105    2
    99    21    20    1
   100    19    20    1
   101    19    16    1
   102    15    16    1
   103    16    17    1
   104    17    18    2
