@<TRIPOS>MOLECULE
tmp/4mxjA00.pdb
 163 160 0 0 0
SMALL
GASTEIGER

@<TRIPOS>ATOM
      1  N         13.9310   46.6230    1.1650 N.3   111  ASN111     -0.1225
      2  CA        12.7240   45.8360    1.4010 C.3   111  ASN111      0.1785
      3  C         12.4650   44.8190    0.2930 C.2   111  ASN111      0.2597
      4  O         11.3850   44.7780   -0.2940 O.2   111  ASN111     -0.2718
      5  CB        11.5100   46.7690    1.5590 C.3   111  ASN111      0.1169
      6  CG        11.5040   47.5020    2.8810 C.2   111  ASN111      0.2627
      7  OD1       11.8660   46.9450    3.9190 O.2   111  ASN111     -0.2716
      8  ND2       11.0810   48.7620    2.8530 N.am  111  ASN111     -0.0877
      9  N         13.4540   43.9840    0.0020 N.am  112  ASN112     -0.1960
     10  CA        13.2960   43.0030   -1.0610 C.3   112  ASN112      0.1819
     11  C         14.4150   41.9800   -1.0050 C.2   112  ASN112      0.2621
     12  O         15.3790   42.1260   -0.2410 O.2   112  ASN112     -0.2715
     13  CB        13.2640   43.6860   -2.4410 C.3   112  ASN112      0.1195
     14  CG        12.2860   43.0320   -3.4120 C.2   112  ASN112      0.2630
     15  OD1       11.8840   41.8770   -3.2430 O.2   112  ASN112     -0.2716
     16  ND2       11.8810   43.7850   -4.4280 N.am  112  ASN112     -0.0877
     17  N         14.2710   40.9600   -1.8380 N.am  113  ALA113     -0.1963
     18  CA        15.2870   39.9440   -2.0570 C.3   113  ALA113      0.1728
     19  C         15.1250   39.5120   -3.5060 C.2   113  ALA113      0.2616
     20  O         14.0360   39.6470   -4.0710 O.2   113  ALA113     -0.2715
     21  CB        15.0780   38.7680   -1.1050 C.3   113  ALA113      0.0334
     22  N         16.1880   39.0070   -4.1230 N.am  114  PHE114     -0.1960
     23  CA        16.0990   38.6310   -5.5310 C.3   114  PHE114      0.1771
     24  C         17.1850   37.6580   -5.9440 C.2   114  PHE114      0.2619
     25  O         18.1800   37.4810   -5.2420 O.2   114  PHE114     -0.2715
     26  CB        16.0940   39.8630   -6.4710 C.3   114  PHE114      0.0574
     27  CG        17.2930   40.7830   -6.3290 C.ar  114  PHE114     -0.0200
     28  CD1       17.3470   41.7320   -5.3170 C.ar  114  PHE114     -0.0042
     29  CD2       18.3350   40.7340   -7.2490 C.ar  114  PHE114     -0.0042
     30  CE1       18.4320   42.6120   -5.2120 C.ar  114  PHE114     -0.0003
     31  CE2       19.4240   41.5950   -7.1410 C.ar  114  PHE114     -0.0003
     32  CZ        19.4670   42.5380   -6.1220 C.ar  114  PHE114     -0.0000
     33  N         16.9600   37.0150   -7.0870 N.am  115  TRP115     -0.1974
     34  CA        17.9860   36.2580   -7.7870 C.3   115  TRP115      0.1640
     35  C         18.4760   37.1640   -8.9220 C.2   115  TRP115      0.2290
     36  O         17.6780   37.6260   -9.7240 O.2   115  TRP115     -0.2864
     37  CB        17.3710   34.9650   -8.3300 C.3   115  TRP115      0.0576
     38  CG        18.2830   34.2030   -9.2510 C.ar  115  TRP115      0.0006
     39  CD1       18.2630   34.2130  -10.6150 C.ar  115  TRP115      0.0946
     40  CD2       19.3470   33.3140   -8.8700 C.ar  115  TRP115      0.0152
     41  NE1       19.2490   33.3750  -11.1080 N.ar  115  TRP115     -0.2442
     42  CE2       19.9330   32.8230  -10.0580 C.ar  115  TRP115      0.0810
     43  CE3       19.8510   32.8780   -7.6390 C.ar  115  TRP115      0.0012
     44  CZ2       21.0120   31.9190  -10.0490 C.ar  115  TRP115      0.0191
     45  CZ3       20.9080   31.9810   -7.6290 C.ar  115  TRP115      0.0001
     46  CH2       21.4840   31.5170   -8.8250 C.ar  115  TRP115      0.0015
     47  N          9.8590   45.2080    6.3540 N.3   130  PHE130     -0.1241
     48  CA        10.5300   43.9180    6.5230 C.3   130  PHE130      0.1605
     49  C         11.6130   44.0040    7.5820 C.2   130  PHE130      0.2264
     50  O         12.2090   45.0700    7.7860 O.2   130  PHE130     -0.2867
     51  CB        11.2330   43.4800    5.2320 C.3   130  PHE130      0.0534
     52  CG        10.3230   42.9520    4.1670 C.ar  130  PHE130     -0.0203
     53  CD1        9.8330   41.6520    4.2270 C.ar  130  PHE130     -0.0042
     54  CD2       10.0020   43.7360    3.0730 C.ar  130  PHE130     -0.0042
     55  CE1        9.0140   41.1590    3.2200 C.ar  130  PHE130     -0.0003
     56  CE2        9.1810   43.2480    2.0670 C.ar  130  PHE130     -0.0003
     57  CZ         8.6890   41.9580    2.1420 C.ar  130  PHE130     -0.0000
     58  N         15.4080   39.6820    5.2130 N.3   133  LEU133     -0.1245
     59  CA        14.4550   38.8230    4.5100 C.3   133  LEU133      0.1561
     60  C         14.8400   37.3490    4.4830 C.2   133  LEU133      0.2260
     61  O         13.9770   36.4790    4.3120 O.2   133  LEU133     -0.2867
     62  CB        14.1610   39.3500    3.1000 C.3   133  LEU133      0.0270
     63  CG        13.2200   40.5720    3.0410 C.3   133  LEU133      0.0019
     64  CD1       13.9530   41.8820    3.2950 C.3   133  LEU133      0.0001
     65  CD2       12.4870   40.6130    1.7100 C.3   133  LEU133      0.0001
     66  N         10.8920   32.6230    1.8580 N.3   139  VAL139     -0.1245
     67  CA        11.5710   33.6420    1.0550 C.3   139  VAL139      0.1561
     68  C         12.8420   33.0740    0.4120 C.2   139  VAL139      0.2260
     69  O         13.0640   33.2260   -0.7900 O.2   139  VAL139     -0.2867
     70  CB        11.9190   34.8950    1.8980 C.3   139  VAL139      0.0252
     71  CG1       12.7050   35.9020    1.0620 C.3   139  VAL139      0.0019
     72  CG2       10.6520   35.5350    2.4520 C.3   139  VAL139      0.0019
     73  N         11.8800   30.6980   -2.1910 N.3   142  HIS142     -0.1226
     74  CA        11.3200   31.4690   -3.3040 C.3   142  HIS142      0.1752
     75  C         12.4540   31.9560   -4.2160 C.2   142  HIS142      0.2595
     76  O         12.3790   31.8280   -5.4470 O.2   142  HIS142     -0.2718
     77  CB        10.5070   32.6520   -2.7450 C.3   142  HIS142      0.0759
     78  CG         9.9290   33.5730   -3.7890 C.ar  142  HIS142      0.0818
     79  ND1        8.5760   33.6690   -4.0420 N.ar  142  HIS142     -0.2268
     80  CD2       10.5260   34.4710   -4.6090 C.ar  142  HIS142      0.1154
     81  CE1        8.3690   34.5750   -4.9850 C.ar  142  HIS142      0.1986
     82  NE2        9.5370   35.0730   -5.3500 N.ar  142  HIS142     -0.2212
     83  N         13.5130   32.5030   -3.6180 N.am  143  GLU143     -0.1979
     84  CA        14.6300   33.0230   -4.4030 C.3   143  GLU143      0.1602
     85  C         15.3990   31.9250   -5.1330 C.2   143  GLU143      0.2287
     86  O         15.7060   32.0610   -6.3230 O.2   143  GLU143     -0.2864
     87  CB        15.5840   33.8640   -3.5480 C.3   143  GLU143      0.0415
     88  CG        14.9290   34.9790   -2.7180 C.3   143  GLU143      0.1163
     89  CD        14.0140   35.8900   -3.5260 C.2   143  GLU143      0.3649
     90  OE1       14.2110   36.0410   -4.7500 O.co2 143  GLU143     -0.2457
     91  OE2       13.0640   36.4430   -2.9320 O.co2 143  GLU143     -0.2457
     92  N         13.6950   30.7280   -8.1920 N.3   146  HIS146     -0.1241
     93  CA        13.8690   31.5320   -9.4030 C.3   146  HIS146      0.1621
     94  C         15.0360   30.9910  -10.2370 C.2   146  HIS146      0.2264
     95  O         14.9680   30.9370  -11.4590 O.2   146  HIS146     -0.2867
     96  CB        14.0910   33.0110   -9.0780 C.3   146  HIS146      0.0745
     97  CG        12.8290   33.7770   -8.8140 C.ar  146  HIS146      0.0817
     98  ND1       11.7680   33.8010   -9.6990 N.ar  146  HIS146     -0.2268
     99  CD2       12.4560   34.5530   -7.7650 C.ar  146  HIS146      0.1154
    100  CE1       10.8030   34.5620   -9.2090 C.ar  146  HIS146      0.1986
    101  NE2       11.1910   35.0290   -8.0370 N.ar  146  HIS146     -0.2212
    102  N         10.0510   37.0060  -17.4180 N.3   157  TYR157     -0.1241
    103  CA         9.5670   37.6760  -16.2080 C.3   157  TYR157      0.1605
    104  C          8.6480   38.8640  -16.5040 C.2   157  TYR157      0.2264
    105  O          8.9050   39.9910  -16.0930 O.2   157  TYR157     -0.2867
    106  CB        10.7500   38.0970  -15.3390 C.3   157  TYR157      0.0534
    107  CG        10.4230   38.2800  -13.8720 C.ar  157  TYR157     -0.0201
    108  CD1        9.9730   37.2110  -13.1050 C.ar  157  TYR157     -0.0009
    109  CD2       10.5990   39.5080  -13.2470 C.ar  157  TYR157     -0.0009
    110  CE1        9.7100   37.3570  -11.7550 C.ar  157  TYR157      0.0417
    111  CE2       10.3340   39.6710  -11.8960 C.ar  157  TYR157      0.0417
    112  CZ         9.8930   38.5970  -11.1570 C.ar  157  TYR157      0.1957
    113  OH         9.6350   38.7510   -9.8140 O.3   157  TYR157     -0.2866
    114  N          6.5310   33.6720  -10.8360 N.3   166  GLU166     -0.1245
    115  CA         6.3140   34.0620   -9.4460 C.3   166  GLU166      0.1567
    116  C          5.5860   32.9980   -8.6310 C.2   166  GLU166      0.2260
    117  O          5.9870   32.6790   -7.5140 O.2   166  GLU166     -0.2867
    118  CB         5.5490   35.3860   -9.3760 C.3   166  GLU166      0.0388
    119  CG         6.4640   36.5970   -9.3550 C.3   166  GLU166      0.1160
    120  CD         7.4390   36.5040   -8.2040 C.2   166  GLU166      0.3649
    121  OE1        6.9640   36.3680   -7.0550 O.co2 166  GLU166     -0.2457
    122  OE2        8.6740   36.5390   -8.4460 O.co2 166  GLU166     -0.2457
    123  N          2.9490   33.8400    2.4200 N.3   188  ILE188     -0.1231
    124  CA         4.3020   34.1240    1.9480 C.3   188  ILE188      0.1692
    125  C          4.9380   35.2530    2.7440 C.2   188  ILE188      0.2592
    126  O          4.4000   36.3640    2.8020 O.2   188  ILE188     -0.2718
    127  CB         4.3250   34.4970    0.4390 C.3   188  ILE188      0.0266
    128  CG1        3.6470   33.4170   -0.4190 C.3   188  ILE188      0.0019
    129  CG2        5.7500   34.7890   -0.0370 C.3   188  ILE188      0.0020
    130  CD1        4.3190   32.0670   -0.3820 C.3   188  ILE188      0.0001
    131  N          6.0800   34.9600    3.3650 N.am  189  GLY189     -0.1957
    132  CA         6.9000   35.9890    3.9900 C.3   189  GLY189      0.1869
    133  C          6.4640   36.4280    5.3780 C.2   189  GLY189      0.2309
    134  O          7.0030   37.4000    5.9200 O.2   189  GLY189     -0.2863
    135  N          3.0050   38.9210    3.2040 N.3   202  LEU202     -0.1231
    136  CA         3.1580   39.6470    1.9540 C.3   202  LEU202      0.1693
    137  C          2.1100   39.2090    0.9340 C.2   202  LEU202      0.2591
    138  O          1.5050   40.0390    0.2590 O.2   202  LEU202     -0.2718
    139  CB         4.5500   39.4000    1.3990 C.3   202  LEU202      0.0284
    140  CG         4.8820   40.0820    0.0750 C.3   202  LEU202      0.0019
    141  CD1        4.8460   41.6120    0.1870 C.3   202  LEU202      0.0001
    142  CD2        6.2470   39.5990   -0.4030 C.3   202  LEU202      0.0001
    143  N          1.9230   37.8960    0.8190 N.am  203  ARG203     -0.1980
    144  CA         0.8900   37.3110   -0.0250 C.3   203  ARG203      0.1597
    145  C          0.2620   36.1440    0.7110 C.2   203  ARG203      0.2287
    146  O          0.8540   35.5870    1.6410 O.2   203  ARG203     -0.2864
    147  CB         1.4690   36.7880   -1.3400 C.3   203  ARG203      0.0334
    148  CG         1.9140   37.8500   -2.3040 C.3   203  ARG203      0.0492
    149  CD         2.4770   37.2370   -3.5720 C.3   203  ARG203      0.2205
    150  NE         3.7910   36.6060   -3.4250 N.pl3 203  ARG203     -0.0865
    151  CZ         4.9480   37.2550   -3.4410 C.cat 203  ARG203      0.5346
    152  NH1        4.9810   38.5790   -3.5330 N.pl3 203  ARG203      0.1354
    153  NH2        6.0770   36.5650   -3.3550 N.pl3 203  ARG203      0.1354
    154  N          3.7650   39.8560   -9.4940 N.3   231  HIS231     -0.1241
    155  CA         3.5430   39.5700   -8.0690 C.3   231  HIS231      0.1621
    156  C          2.0750   39.7040   -7.6590 C.2   231  HIS231      0.2264
    157  O          1.7300   39.5220   -6.4900 O.2   231  HIS231     -0.2867
    158  CB         4.3920   40.4920   -7.1760 C.3   231  HIS231      0.0745
    159  CG         5.8710   40.3100   -7.3390 C.ar  231  HIS231      0.0817
    160  ND1        6.6350   41.1140   -8.1600 N.ar  231  HIS231     -0.2268
    161  CD2        6.7280   39.4200   -6.7800 C.ar  231  HIS231      0.1154
    162  CE1        7.8970   40.7160   -8.1120 C.ar  231  HIS231      0.1986
    163  NE2        7.9820   39.6930   -7.2770 N.ar  231  HIS231     -0.2212
@<TRIPOS>BOND
     1   102   103    1
     2   104   103    1
     3   104   105    2
     4   103   106    1
     5   106   107    1
     6   107   109   ar
     7   107   108   ar
     8   109   111   ar
     9   108   110   ar
    10   111   112   ar
    11   110   112   ar
    12    95    94    2
    13   112   113    1
    14    41    39   ar
    15    41    42   ar
    16   114   115    1
    17    39    38   ar
    18    94    93    1
    19    42    44   ar
    20    42    40   ar
    21    44    46   ar
    22    36    35    2
    23    98   100   ar
    24    98    97   ar
    25   154   155    1
    26   115   118    1
    27   115   116    1
    28    93    96    1
    29    93    92    1
    30   118   119    1
    31   119   120    1
    32    38    40   ar
    33    38    37    1
    34   100   101   ar
    35    96    97    1
    36    35    34    1
    37    40    43   ar
    38    46    45   ar
    39    97    99   ar
    40   116   117    2
    41   122   120   ar
    42    37    34    1
    43   120   121   ar
    44   160   162   ar
    45   160   159   ar
    46   162   163   ar
    47   155   156    1
    48   155   158    1
    49   101    99   ar
    50    34    33    1
    51   156   157    2
    52    43    45   ar
    53   159   158    1
    54   159   161   ar
    55   163   161   ar
    56    29    31   ar
    57    29    27   ar
    58    31    32   ar
    59    33    24   am
    60    26    27    1
    61    26    23    1
    62    27    28   ar
    63    86    85    2
    64    32    30   ar
    65    24    23    1
    66    24    25    2
    67    23    22    1
    68    76    75    2
    69    82    81   ar
    70    82    80   ar
    71    28    30   ar
    72    85    84    1
    73    81    79   ar
    74    90    89   ar
    75    80    78   ar
    76    16    14   am
    77    84    83    1
    78    84    87    1
    79    75    83   am
    80    75    74    1
    81    22    19   am
    82    20    19    2
    83    79    78   ar
    84    78    77    1
    85   149   150    1
    86   149   148    1
    87    87    88    1
    88   152   151    1
    89    89    91   ar
    90    89    88    1
    91    19    18    1
    92   151   150    2
    93   151   153    1
    94    14    15    2
    95    14    13    1
    96    74    77    1
    97    74    73    1
    98    13    10    1
    99   148   147    1
   100    18    17    1
   101    18    21    1
   102    17    11   am
   103   147   144    1
   104    10    11    1
   105    10     9    1
   106    11    12    2
   107    69    68    2
   108   128   130    1
   109   128   127    1
   110   142   140    1
   111     4     3    2
   112   129   127    1
   113   144   145    1
   114   144   143    1
   115     9     3   am
   116   140   141    1
   117   140   139    1
   118   138   137    2
   119     3     2    1
   120    68    67    1
   121   127   124    1
   122   145   146    2
   123   143   137   am
   124   137   136    1
   125    67    66    1
   126    67    70    1
   127    71    70    1
   128     1     2    1
   129   139   136    1
   130     2     5    1
   131     5     6    1
   132    65    63    1
   133    70    72    1
   134   124   123    1
   135   124   125    1
   136   136   135    1
   137    56    57   ar
   138    56    54   ar
   139    57    55   ar
   140   125   126    2
   141   125   131   am
   142     8     6   am
   143     6     7    2
   144    63    62    1
   145    63    64    1
   146    54    52   ar
   147    62    59    1
   148    55    53   ar
   149   131   132    1
   150   132   133    1
   151    52    53   ar
   152    52    51    1
   153    61    60    2
   154    60    59    1
   155    59    58    1
   156    51    48    1
   157   133   134    2
   158    47    48    1
   159    48    49    1
   160    49    50    2
