@<TRIPOS>MOLECULE
tmp/4mxpA00.pdb
 128 122 0 0 0
SMALL
GASTEIGER

@<TRIPOS>ATOM
      1  N        -24.9160   -4.5240   -9.4120 N.3   196  TYR196     -0.1241
      2  CA       -26.0310   -3.8610   -8.7390 C.3   196  TYR196      0.1605
      3  C        -25.6820   -2.3830   -8.5630 C.2   196  TYR196      0.2264
      4  O        -24.8360   -2.0120   -7.7300 O.2   196  TYR196     -0.2867
      5  CB       -26.2730   -4.5550   -7.3860 C.3   196  TYR196      0.0534
      6  CG       -27.4070   -3.9990   -6.5550 C.ar  196  TYR196     -0.0201
      7  CD1      -28.6960   -3.8710   -7.0910 C.ar  196  TYR196     -0.0009
      8  CD2      -27.2020   -3.6150   -5.2410 C.ar  196  TYR196     -0.0009
      9  CE1      -29.7310   -3.3680   -6.3300 C.ar  196  TYR196      0.0417
     10  CE2      -28.2270   -3.1240   -4.4530 C.ar  196  TYR196      0.0417
     11  CZ       -29.4990   -3.0140   -4.9920 C.ar  196  TYR196      0.1957
     12  OH       -30.4940   -2.4980   -4.2140 O.3   196  TYR196     -0.2866
     13  N        -26.8810    0.0110   -7.0720 N.3   198  TYR198     -0.1241
     14  CA       -27.1610    0.6660   -5.7900 C.3   198  TYR198      0.1605
     15  C        -26.3700    0.0470   -4.6360 C.2   198  TYR198      0.2264
     16  O        -26.6680    0.3150   -3.4570 O.2   198  TYR198     -0.2867
     17  CB       -28.7030    0.6380   -5.5370 C.3   198  TYR198      0.0534
     18  CG       -29.4290    1.0410   -6.8020 C.ar  198  TYR198     -0.0201
     19  CD1      -29.3950    2.3550   -7.2340 C.ar  198  TYR198     -0.0009
     20  CD2      -30.0350    0.0950   -7.6260 C.ar  198  TYR198     -0.0009
     21  CE1      -29.9760    2.7460   -8.4200 C.ar  198  TYR198      0.0417
     22  CE2      -30.6260    0.4700   -8.8390 C.ar  198  TYR198      0.0417
     23  CZ       -30.6080    1.8070   -9.2140 C.ar  198  TYR198      0.1957
     24  OH       -31.1700    2.2180  -10.4170 O.3   198  TYR198     -0.2866
     25  N        -30.3040    4.8210   -1.0000 N.3   205  ARG205     -0.1245
     26  CA       -31.4430    5.6590   -1.4490 C.3   205  ARG205      0.1563
     27  C        -32.5630    5.7420   -0.4290 C.2   205  ARG205      0.2260
     28  O        -32.8130    4.7900    0.3080 O.2   205  ARG205     -0.2867
     29  CB       -32.0450    5.0780   -2.7390 C.3   205  ARG205      0.0307
     30  CG       -31.1400    5.1570   -3.9620 C.3   205  ARG205      0.0489
     31  CD       -31.7060    4.2880   -5.0750 C.3   205  ARG205      0.2205
     32  NE       -31.7070    2.8660   -4.7000 N.pl3 205  ARG205     -0.0865
     33  CZ       -32.2680    1.8850   -5.4180 C.cat 205  ARG205      0.5346
     34  NH1      -32.8520    2.1470   -6.5850 N.pl3 205  ARG205      0.1354
     35  NH2      -32.2140    0.6380   -4.9790 N.pl3 205  ARG205      0.1354
     36  N        -36.4170    5.4690    0.3410 N.3   207  HIS207     -0.1241
     37  CA       -37.4750    4.6260   -0.2330 C.3   207  HIS207      0.1621
     38  C        -38.7740    4.7140    0.5850 C.2   207  HIS207      0.2264
     39  O        -38.7740    4.8150    1.8260 O.2   207  HIS207     -0.2867
     40  CB       -37.0820    3.1360   -0.2490 C.3   207  HIS207      0.0745
     41  CG       -35.9310    2.7870   -1.1430 C.ar  207  HIS207      0.0817
     42  ND1      -35.9950    2.8680   -2.5220 N.ar  207  HIS207     -0.2268
     43  CD2      -34.7090    2.2710   -0.8560 C.ar  207  HIS207      0.1154
     44  CE1      -34.8520    2.4530   -3.0370 C.ar  207  HIS207      0.1986
     45  NE2      -34.0580    2.0760   -2.0500 N.ar  207  HIS207     -0.2212
     46  N        -29.9490   -5.2470    0.7860 N.3   232  LYS232     -0.1245
     47  CA       -29.9110   -5.9860   -0.4800 C.3   232  LYS232      0.1561
     48  C        -28.4800   -6.2400   -0.9490 C.2   232  LYS232      0.2260
     49  O        -28.2000   -7.2880   -1.5060 O.2   232  LYS232     -0.2867
     50  CB       -30.7500   -5.3060   -1.5490 C.3   232  LYS232      0.0271
     51  CG       -32.2110   -5.2720   -1.1460 C.3   232  LYS232      0.0035
     52  CD       -33.1520   -5.0110   -2.3310 C.3   232  LYS232      0.0206
     53  CE       -34.6060   -5.0250   -1.8750 C.3   232  LYS232      0.1093
     54  NZ       -35.5240   -5.1370   -3.0540 N.3   232  LYS232     -0.1314
     55  N        -40.3100   -4.9810   -3.8960 N.3   271  GLY271     -0.1210
     56  CA       -39.9990   -3.6070   -4.2530 C.3   271  GLY271      0.1956
     57  C        -39.8800   -2.6660   -3.0600 C.2   271  GLY271      0.2612
     58  O        -40.6210   -2.7970   -2.0580 O.2   271  GLY271     -0.2717
     59  N        -38.9660   -1.7110   -3.1680 N.am  272  GLN272     -0.1965
     60  CA       -38.8110   -0.6420   -2.1650 C.3   272  GLN272      0.1733
     61  C        -39.5680    0.6320   -2.5360 C.2   272  GLN272      0.2617
     62  O        -39.5960    1.5980   -1.7690 O.2   272  GLN272     -0.2715
     63  CB       -37.3300   -0.3210   -1.9570 C.3   272  GLN272      0.0408
     64  CG       -36.5130   -1.5240   -1.5310 C.3   272  GLN272      0.0908
     65  CD       -35.0840   -1.1550   -1.2040 C.2   272  GLN272      0.2608
     66  OE1      -34.1700   -1.2810   -2.0370 O.2   272  GLN272     -0.2717
     67  NE2      -34.8780   -0.7150    0.0000 N.am  272  GLN272     -0.0878
     68  N        -40.1910    0.6310   -3.7120 N.am  273  GLY273     -0.1940
     69  CA       -40.9330    1.7940   -4.2150 C.3   273  GLY273      0.2014
     70  C        -42.3530    1.3920   -4.5930 C.2   273  GLY273      0.2639
     71  O        -42.6340    0.2130   -4.8160 O.2   273  GLY273     -0.2714
     72  N        -43.2620    2.3680   -4.5930 N.am  274  LEU274     -0.1963
     73  CA       -44.6540    2.1350   -4.9460 C.3   274  LEU274      0.1728
     74  C        -44.8270    1.5350   -6.3560 C.2   274  LEU274      0.2617
     75  O        -45.6160    0.6050   -6.5610 O.2   274  LEU274     -0.2715
     76  CB       -45.4660    3.4340   -4.8430 C.3   274  LEU274      0.0311
     77  CG       -46.9810    3.2800   -5.1150 C.3   274  LEU274      0.0022
     78  CD1      -47.6440    2.1890   -4.2820 C.3   274  LEU274      0.0001
     79  CD2      -47.6820    4.6160   -4.9030 C.3   274  LEU274      0.0001
     80  N        -44.0890    2.0550   -7.3240 N.am  275  THR275     -0.1937
     81  CA       -44.3140    1.6510   -8.7150 C.3   275  THR275      0.2028
     82  C        -43.9670    0.1830   -8.9050 C.2   275  THR275      0.2642
     83  O        -44.7010   -0.5640   -9.5700 O.2   275  THR275     -0.2714
     84  CB       -43.5070    2.5240   -9.6710 C.3   275  THR275      0.1808
     85  OG1      -43.9130    3.8890   -9.5020 O.3   275  THR275     -0.2208
     86  CG2      -43.6690    2.0840  -11.1160 C.3   275  THR275      0.0379
     87  N        -42.8510   -0.2500   -8.3130 N.am  276  THR276     -0.1950
     88  CA       -42.4700   -1.6570   -8.4050 C.3   276  THR276      0.1897
     89  C        -43.5320   -2.5720   -7.8030 C.2   276  THR276      0.2313
     90  O        -43.8720   -3.6280   -8.3700 O.2   276  THR276     -0.2863
     91  CB       -41.0780   -1.8840   -7.7620 C.3   276  THR276      0.1794
     92  OG1      -40.0870   -1.2240   -8.5630 O.3   276  THR276     -0.2208
     93  CG2      -40.7400   -3.3680   -7.6530 C.3   276  THR276      0.0378
     94  N        -47.0770   -2.2070   -9.9650 N.3   279  LEU279     -0.1245
     95  CA       -47.0450   -2.7440  -11.3410 C.3   279  LEU279      0.1561
     96  C        -46.3970   -4.1070  -11.3890 C.2   279  LEU279      0.2260
     97  O        -46.3600   -4.7170  -12.4450 O.2   279  LEU279     -0.2867
     98  CB       -46.3030   -1.7860  -12.2580 C.3   279  LEU279      0.0270
     99  CG       -46.8220   -0.3640  -12.3250 C.3   279  LEU279      0.0019
    100  CD1      -46.0750    0.3710  -13.4080 C.3   279  LEU279      0.0001
    101  CD2      -48.3350   -0.3780  -12.5750 C.3   279  LEU279      0.0001
    102  N        -43.1460   -5.1580  -10.7850 N.3   281  LEU281     -0.1245
    103  CA       -41.8690   -5.0850  -11.5140 C.3   281  LEU281      0.1561
    104  C        -40.7940   -5.9380  -10.8670 C.2   281  LEU281      0.2260
    105  O        -40.7720   -6.1150   -9.6450 O.2   281  LEU281     -0.2867
    106  CB       -41.3750   -3.6520  -11.6020 C.3   281  LEU281      0.0270
    107  CG       -42.3050   -2.6180  -12.2370 C.3   281  LEU281      0.0019
    108  CD1      -41.6180   -1.2630  -12.3600 C.3   281  LEU281      0.0001
    109  CD2      -42.7740   -3.1380  -13.5880 C.3   281  LEU281      0.0001
    110  N        -37.3260   -6.3190   -9.4170 N.3   283  THR283     -0.1203
    111  CA       -36.4170   -5.3860   -8.7950 C.3   283  THR283      0.1994
    112  C        -35.0130   -5.4310   -9.4260 C.2   283  THR283      0.2619
    113  O        -34.6360   -6.3990  -10.0890 O.2   283  THR283     -0.2717
    114  CB       -36.2690   -5.6840   -7.3040 C.3   283  THR283      0.1784
    115  OG1      -35.7580   -7.0090   -7.1430 O.3   283  THR283     -0.2211
    116  CG2      -37.6070   -5.5330   -6.5880 C.3   283  THR283      0.0376
    117  N        -34.2650   -4.3580   -9.2380 N.am  284  SER284     -0.1937
    118  CA       -32.8720   -4.2940   -9.6950 C.3   284  SER284      0.2055
    119  C        -32.0450   -5.4300   -9.1180 C.2   284  SER284      0.2643
    120  O        -31.2450   -6.0460   -9.8360 O.2   284  SER284     -0.2714
    121  CB       -32.2370   -2.9810   -9.2820 C.3   284  SER284      0.2130
    122  OG       -32.9200   -1.8750   -9.8490 O.3   284  SER284     -0.2179
    123  N        -32.2520   -5.7580   -7.8410 N.am  285  SER285     -0.1949
    124  CA       -31.4200   -6.7970   -7.2030 C.3   285  SER285      0.1924
    125  C        -31.7280   -8.1960   -7.6910 C.2   285  SER285      0.2314
    126  O        -30.8210   -9.0220   -7.8040 O.2   285  SER285     -0.2863
    127  CB       -31.5200   -6.7420   -5.6890 C.3   285  SER285      0.2116
    128  OG       -32.8930   -6.8360   -5.2590 O.3   285  SER285     -0.2180
@<TRIPOS>BOND
     1   109   107    1
     2   100    99    1
     3   101    99    1
     4    97    96    2
     5   108   107    1
     6    99    98    1
     7    98    95    1
     8   107   106    1
     9   106   103    1
    10   103   104    1
    11   103   102    1
    12    96    95    1
    13    95    94    1
    14    86    84    1
    15   104   105    2
    16    24    23    1
    17   113   112    2
    18   122   121    1
    19   120   119    2
    20   118   121    1
    21   118   117    1
    22   118   119    1
    23    84    85    1
    24    84    81    1
    25    83    82    2
    26   112   117   am
    27   112   111    1
    28   110   111    1
    29     1     2    1
    30    23    22   ar
    31    23    21   ar
    32   119   123   am
    33    82    81    1
    34    82    87   am
    35    22    20   ar
    36   111   114    1
    37     2     3    1
    38     2     5    1
    39    81    80    1
    40    92    91    1
    41     3     4    2
    42    21    19   ar
    43    88    87    1
    44    88    89    1
    45    88    91    1
    46    90    89    2
    47   123   124    1
    48   126   125    2
    49    91    93    1
    50   125   124    1
    51    20    18   ar
    52     5     6    1
    53    80    74   am
    54   114   115    1
    55   114   116    1
    56    19    18   ar
    57   124   127    1
    58     7     6   ar
    59     7     9   ar
    60    13    14    1
    61    18    17    1
    62    34    33    1
    63    75    74    2
    64     6     8   ar
    65    74    73    1
    66     9    11   ar
    67    14    17    1
    68    14    15    1
    69   127   128    1
    70    33    35    1
    71    33    32    2
    72     8    10   ar
    73    77    79    1
    74    77    76    1
    75    77    78    1
    76    31    32    1
    77    31    30    1
    78    11    10   ar
    79    11    12    1
    80    73    76    1
    81    73    72    1
    82    71    70    2
    83    15    16    2
    84    72    70   am
    85    70    69    1
    86    56    55    1
    87    56    57    1
    88    69    68    1
    89    30    29    1
    90    68    61   am
    91    59    57   am
    92    59    60    1
    93    57    58    2
    94    54    53    1
    95    44    42   ar
    96    44    45   ar
    97    29    26    1
    98    61    60    1
    99    61    62    2
   100    42    41   ar
   101    52    53    1
   102    52    51    1
   103    60    63    1
   104    45    43   ar
   105    66    65    2
   106    63    64    1
   107    50    51    1
   108    50    47    1
   109    64    65    1
   110    49    48    2
   111    26    25    1
   112    26    27    1
   113    65    67   am
   114    41    43   ar
   115    41    40    1
   116    48    47    1
   117    47    46    1
   118    27    28    2
   119    40    37    1
   120    37    36    1
   121    37    38    1
   122    38    39    2
