@<TRIPOS>MOLECULE
tmp/4mxtA00.pdb
 100 94 0 0 0
SMALL
GASTEIGER

@<TRIPOS>ATOM
      1  N         20.7850   24.5290   10.5140 N.3    26  PHE26      -0.1241
      2  CA        21.3800   23.7200    9.4610 C.3    26  PHE26       0.1605
      3  C         20.4980   23.6680    8.2210 C.2    26  PHE26       0.2264
      4  O         19.2800   23.9020    8.2920 O.2    26  PHE26      -0.2867
      5  CB        21.6740   22.2850    9.9520 C.3    26  PHE26       0.0534
      6  CG        20.4390   21.5110   10.3420 C.ar   26  PHE26      -0.0203
      7  CD1       19.7130   20.8020    9.3930 C.ar   26  PHE26      -0.0042
      8  CD2       19.9930   21.5000   11.6640 C.ar   26  PHE26      -0.0042
      9  CE1       18.5630   20.0940    9.7580 C.ar   26  PHE26      -0.0003
     10  CE2       18.8610   20.7910   12.0300 C.ar   26  PHE26      -0.0003
     11  CZ        18.1340   20.0910   11.0670 C.ar   26  PHE26      -0.0000
     12  N         20.0020   20.9090    4.8510 N.3    28  VAL28      -0.1245
     13  CA        20.3080   19.6160    4.2330 C.3    28  VAL28       0.1561
     14  C         19.9790   19.7090    2.7480 C.2    28  VAL28       0.2260
     15  O         18.8420   20.0370    2.3880 O.2    28  VAL28      -0.2867
     16  CB        19.4760   18.4780    4.8670 C.3    28  VAL28       0.0252
     17  CG1       19.7330   17.1270    4.1610 C.3    28  VAL28       0.0019
     18  CG2       19.7790   18.3980    6.3720 C.3    28  VAL28       0.0019
     19  N         19.9040   17.4020   -0.6320 N.3    30  GLU30      -0.1245
     20  CA        19.9180   16.0210   -1.0950 C.3    30  GLU30       0.1567
     21  C         19.2550   15.9620   -2.4620 C.2    30  GLU30       0.2260
     22  O         18.5930   16.9080   -2.8510 O.2    30  GLU30      -0.2867
     23  CB        19.2200   15.1220   -0.0730 C.3    30  GLU30       0.0388
     24  CG        17.8360   15.6030    0.3290 C.3    30  GLU30       0.1160
     25  CD        17.2820   14.9180    1.5670 C.2    30  GLU30       0.3649
     26  OE1       18.0650   14.3380    2.3490 O.co2  30  GLU30      -0.2457
     27  OE2       16.0490   14.9860    1.7680 O.co2  30  GLU30      -0.2457
     28  N         16.1510   21.2180    2.6770 N.3    35  TYR35      -0.1241
     29  CA        15.3340   21.6270    3.8220 C.3    35  TYR35       0.1605
     30  C         16.2130   22.1240    4.9480 C.2    35  TYR35       0.2264
     31  O         17.4020   21.8230    4.9990 O.2    35  TYR35      -0.2867
     32  CB        14.4130   20.4970    4.2920 C.3    35  TYR35       0.0534
     33  CG        15.0910   19.2990    4.9160 C.ar   35  TYR35      -0.0201
     34  CD1       15.3720   19.2700    6.2710 C.ar   35  TYR35      -0.0009
     35  CD2       15.4360   18.1900    4.1520 C.ar   35  TYR35      -0.0009
     36  CE1       15.9950   18.1560    6.8540 C.ar   35  TYR35       0.0417
     37  CE2       16.0400   17.0840    4.7190 C.ar   35  TYR35       0.0417
     38  CZ        16.3260   17.0760    6.0620 C.ar   35  TYR35       0.1957
     39  OH        16.9320   15.9670    6.6230 O.3    35  TYR35      -0.2866
     40  N         17.0480   10.5960   16.9560 N.3    82  GLN82      -0.1245
     41  CA        17.3600   11.3410   15.7430 C.3    82  GLN82       0.1566
     42  C         17.4780   12.8260   16.0740 C.2    82  GLN82       0.2260
     43  O         16.5420   13.6080   15.8810 O.2    82  GLN82      -0.2867
     44  CB        16.3000   11.1030   14.6680 C.3    82  GLN82       0.0367
     45  CG        16.2970    9.6850   14.1110 C.3    82  GLN82       0.0905
     46  CD        17.5970    9.3310   13.4030 C.2    82  GLN82       0.2608
     47  OE1       18.3780    8.5070   13.8870 O.2    82  GLN82      -0.2717
     48  NE2       17.8330    9.9510   12.2500 N.am   82  GLN82      -0.0878
     49  N         19.6570   14.7090   14.6840 N.3    84  LEU84      -0.1245
     50  CA        20.1260   15.3790   13.4850 C.3    84  LEU84       0.1561
     51  C         21.3450   16.2670   13.8040 C.2    84  LEU84       0.2260
     52  O         21.6260   17.1780   13.0400 O.2    84  LEU84      -0.2867
     53  CB        19.0100   16.2300   12.8380 C.3    84  LEU84       0.0270
     54  CG        17.6270   15.5980   12.5920 C.3    84  LEU84       0.0019
     55  CD1       16.7730   16.5120   11.7170 C.3    84  LEU84       0.0001
     56  CD2       17.7350   14.2130   11.9620 C.3    84  LEU84       0.0001
     57  N         24.8290   17.4270   13.5000 N.3    86  PRO86      -0.2116
     58  CA        25.9390   17.1350   12.5820 C.3    86  PRO86       0.1372
     59  C         27.2570   16.7380   13.2800 C.2    86  PRO86       0.2244
     60  O         28.0790   15.9750   12.7190 O.2    86  PRO86      -0.2868
     61  CB        26.1110   18.4530   11.8200 C.3    86  PRO86       0.0268
     62  CG        24.8140   19.1830   11.9800 C.3    86  PRO86       0.0207
     63  CD        24.2720   18.7820   13.2970 C.3    86  PRO86       0.0892
     64  N         28.5210   12.9380   13.7420 N.3    89  TRP89      -0.1241
     65  CA        29.2060   12.1530   12.7160 C.3    89  TRP89       0.1605
     66  C         30.6760   11.9430   13.0280 C.2    89  TRP89       0.2264
     67  O         31.2860   10.9930   12.5450 O.2    89  TRP89      -0.2867
     68  CB        29.0240   12.7650   11.3230 C.3    89  TRP89       0.0550
     69  CG        27.6270   12.5880   10.8400 C.ar   89  TRP89       0.0003
     70  CD1       26.6440   13.5350   10.8100 C.ar   89  TRP89       0.0946
     71  CD2       27.0370   11.3810   10.3340 C.ar   89  TRP89       0.0152
     72  NE1       25.4820   13.0000   10.3110 N.ar   89  TRP89      -0.2442
     73  CE2       25.6920   11.6790   10.0150 C.ar   89  TRP89       0.0810
     74  CE3       27.5130   10.0830   10.1060 C.ar   89  TRP89       0.0012
     75  CZ2       24.8260   10.7300    9.4830 C.ar   89  TRP89       0.0191
     76  CZ3       26.6380    9.1400    9.5970 C.ar   89  TRP89       0.0001
     77  CH2       25.3180    9.4730    9.2820 C.ar   89  TRP89       0.0015
     78  N         27.7160   13.1250    3.3720 N.3   142  LEU142     -0.1245
     79  CA        27.5030   11.6830    3.5220 C.3   142  LEU142      0.1561
     80  C         27.4520   11.0070    2.1500 C.2   142  LEU142      0.2260
     81  O         26.6770   11.4370    1.2700 O.2   142  LEU142     -0.2867
     82  CB        26.1850   11.4070    4.2610 C.3   142  LEU142      0.0270
     83  CG        25.9410   12.1600    5.5760 C.3   142  LEU142      0.0019
     84  CD1       24.5190   11.8960    6.1410 C.3   142  LEU142      0.0001
     85  CD2       27.0130   11.8040    6.6080 C.3   142  LEU142      0.0001
     86  N         24.6670   13.3970    0.2680 N.3   150  THR150     -0.1218
     87  CA        23.8620   14.2540    1.1340 C.3   150  THR150      0.1862
     88  C         24.7750   15.3020    1.7640 C.2   150  THR150      0.2287
     89  O         25.8150   14.9440    2.3230 O.2   150  THR150     -0.2866
     90  CB        23.1610   13.4510    2.2350 C.3   150  THR150      0.1770
     91  OG1       22.2140   12.5630    1.6340 O.3   150  THR150     -0.2211
     92  CG2       22.4280   14.3620    3.2200 C.3   150  THR150      0.0375
     93  N         25.1460   18.3760    4.5650 N.3   152  ILE152     -0.1245
     94  CA        24.6220   19.1070    5.7140 C.3   152  ILE152      0.1561
     95  C         25.4870   20.3400    5.9410 C.2   152  ILE152      0.2260
     96  O         26.6880   20.2140    6.1870 O.2   152  ILE152     -0.2867
     97  CB        24.6420   18.2400    6.9940 C.3   152  ILE152      0.0252
     98  CG1       23.8710   16.9300    6.7700 C.3   152  ILE152      0.0019
     99  CG2       24.0390   18.9920    8.1660 C.3   152  ILE152      0.0019
    100  CD1       24.2550   15.8370    7.7080 C.3   152  ILE152      0.0001
@<TRIPOS>BOND
     1    22    21    2
     2    21    20    1
     3    20    19    1
     4    20    23    1
     5    23    24    1
     6    86    87    1
     7    24    25    1
     8    87    88    1
     9    87    90    1
    10    81    80    2
    11    25    27   ar
    12    25    26   ar
    13    91    90    1
    14    88    89    2
    15    80    79    1
    16    90    92    1
    17    15    14    2
    18    28    29    1
    19    14    13    1
    20    78    79    1
    21    79    82    1
    22    29    32    1
    23    29    30    1
    24    35    37   ar
    25    35    33   ar
    26    17    16    1
    27    13    12    1
    28    13    16    1
    29    82    83    1
    30    32    33    1
    31    93    94    1
    32    37    38   ar
    33    16    18    1
    34    33    34   ar
    35    30    31    2
    36    83    84    1
    37    83    85    1
    38    94    95    1
    39    94    97    1
    40    95    96    2
    41    38    39    1
    42    38    36   ar
    43    34    36   ar
    44    98    97    1
    45    98   100    1
    46    97    99    1
    47     3     4    2
    48     3     2    1
    49    77    75   ar
    50    77    76   ar
    51     7     9   ar
    52     7     6   ar
    53     2     5    1
    54     2     1    1
    55    75    73   ar
    56    76    74   ar
    57     9    11   ar
    58     5     6    1
    59    73    72   ar
    60    73    71   ar
    61    74    71   ar
    62    72    70   ar
    63    71    69   ar
    64     6     8   ar
    65    70    69   ar
    66    69    68    1
    67    11    10   ar
    68    68    65    1
    69     8    10   ar
    70    55    54    1
    71    61    62    1
    72    61    58    1
    73    56    54    1
    74    62    63    1
    75    48    46   am
    76    67    66    2
    77    58    59    1
    78    58    57    1
    79    54    53    1
    80    65    66    1
    81    65    64    1
    82    60    59    2
    83    53    50    1
    84    52    51    2
    85    63    57    1
    86    46    47    2
    87    46    45    1
    88    50    51    1
    89    50    49    1
    90    45    44    1
    91    44    41    1
    92    41    42    1
    93    41    40    1
    94    43    42    2
