@<TRIPOS>MOLECULE
tmp/4mxtA01.pdb
 82 80 0 0 0
SMALL
GASTEIGER

@<TRIPOS>ATOM
      1  N         17.4040    7.4380   18.6480 N.3    81  LEU81      -0.1231
      2  CA        17.3060    8.8900   18.6450 C.3    81  LEU81       0.1693
      3  C         17.6740    9.4690   17.2870 C.2    81  LEU81       0.2592
      4  O         18.4900    8.8990   16.5570 O.2    81  LEU81      -0.2718
      5  CB        18.2000    9.4910   19.7360 C.3    81  LEU81       0.0284
      6  CG        17.7140    9.2810   21.1700 C.3    81  LEU81       0.0019
      7  CD1       18.7470    9.7800   22.1610 C.3    81  LEU81       0.0001
      8  CD2       16.3860    9.9830   21.3990 C.3    81  LEU81       0.0001
      9  N         17.0480   10.5960   16.9560 N.am   82  GLN82      -0.1966
     10  CA        17.3600   11.3410   15.7430 C.3    82  GLN82       0.1733
     11  C         17.4780   12.8260   16.0740 C.2    82  GLN82       0.2617
     12  O         16.5420   13.6080   15.8810 O.2    82  GLN82      -0.2715
     13  CB        16.3000   11.1030   14.6680 C.3    82  GLN82       0.0408
     14  CG        16.2970    9.6850   14.1110 C.3    82  GLN82       0.0908
     15  CD        17.5970    9.3310   13.4030 C.2    82  GLN82       0.2608
     16  OE1       18.3780    8.5070   13.8870 O.2    82  GLN82      -0.2717
     17  NE2       17.8330    9.9510   12.2500 N.am   82  GLN82      -0.0878
     18  N         18.6460   13.2010   16.5810 N.am   83  THR83      -0.1937
     19  CA        18.9210   14.5740   16.9680 C.3    83  THR83       0.2028
     20  C         19.2010   15.3890   15.7280 C.2    83  THR83       0.2642
     21  O         19.0290   16.6030   15.7180 O.2    83  THR83      -0.2714
     22  CB        20.1680   14.6510   17.8670 C.3    83  THR83       0.1808
     23  OG1       21.3360   14.3400   17.0970 O.3    83  THR83      -0.2208
     24  CG2       20.0520   13.6630   18.9930 C.3    83  THR83       0.0379
     25  N         19.6570   14.7090   14.6840 N.am   84  LEU84      -0.1963
     26  CA        20.1260   15.3790   13.4850 C.3    84  LEU84       0.1728
     27  C         21.3450   16.2670   13.8040 C.2    84  LEU84       0.2616
     28  O         21.6260   17.1780   13.0400 O.2    84  LEU84      -0.2715
     29  CB        19.0100   16.2300   12.8380 C.3    84  LEU84       0.0311
     30  CG        17.6270   15.5980   12.5920 C.3    84  LEU84       0.0022
     31  CD1       16.7730   16.5120   11.7170 C.3    84  LEU84       0.0001
     32  CD2       17.7350   14.2130   11.9620 C.3    84  LEU84       0.0001
     33  N         22.0590   15.9980   14.9010 N.am   85  ASN85      -0.1972
     34  CA        23.2610   16.7860   15.2570 C.3    85  ASN85       0.1688
     35  C         24.4310   16.4610   14.3310 C.2    85  ASN85       0.2292
     36  O         24.9860   15.3500   14.3700 O.2    85  ASN85      -0.2864
     37  CB        23.7130   16.5700   16.7090 C.3    85  ASN85       0.1181
     38  CG        24.9500   17.4110   17.0770 C.2    85  ASN85       0.2629
     39  OD1       25.3880   18.2630   16.3090 O.2    85  ASN85      -0.2716
     40  ND2       25.5000   17.1730   18.2650 N.am   85  ASN85      -0.0877
     41  N         27.6160   14.7300   15.6080 N.3    88  ALA88      -0.1231
     42  CA        27.5950   13.3070   15.9620 C.3    88  ALA88       0.1694
     43  C         28.3730   12.4450   14.9670 C.2    88  ALA88       0.2592
     44  O         28.8280   11.3390   15.3070 O.2    88  ALA88      -0.2718
     45  CB        26.1660   12.8200   16.0470 C.3    88  ALA88       0.0304
     46  N         28.5210   12.9380   13.7420 N.am   89  TRP89      -0.1976
     47  CA        29.2060   12.1530   12.7160 C.3    89  TRP89       0.1640
     48  C         30.6760   11.9430   13.0280 C.2    89  TRP89       0.2290
     49  O         31.2860   10.9930   12.5450 O.2    89  TRP89      -0.2864
     50  CB        29.0240   12.7650   11.3230 C.3    89  TRP89       0.0576
     51  CG        27.6270   12.5880   10.8400 C.ar   89  TRP89       0.0006
     52  CD1       26.6440   13.5350   10.8100 C.ar   89  TRP89       0.0946
     53  CD2       27.0370   11.3810   10.3340 C.ar   89  TRP89       0.0152
     54  NE1       25.4820   13.0000   10.3110 N.ar   89  TRP89      -0.2442
     55  CE2       25.6920   11.6790   10.0150 C.ar   89  TRP89       0.0810
     56  CE3       27.5130   10.0830   10.1060 C.ar   89  TRP89       0.0012
     57  CZ2       24.8260   10.7300    9.4830 C.ar   89  TRP89       0.0191
     58  CZ3       26.6380    9.1400    9.5970 C.ar   89  TRP89       0.0001
     59  CH2       25.3180    9.4730    9.2820 C.ar   89  TRP89       0.0015
     60  N         31.8010   10.7460   15.6020 N.3    91  SER91      -0.1202
     61  CA        31.9060    9.5120   16.3910 C.3    91  SER91       0.2020
     62  C         32.2080    8.2670   15.5630 C.2    91  SER91       0.2618
     63  O         32.5600    7.2330   16.1240 O.2    91  SER91      -0.2717
     64  CB        30.6290    9.2800   17.2100 C.3    91  SER91       0.2103
     65  OG        29.5240    8.9370   16.3900 O.3    91  SER91      -0.2182
     66  N         32.0640    8.3540   14.2410 N.am   92  LEU92      -0.1979
     67  CA        32.3650    7.2080   13.3730 C.3    92  LEU92       0.1596
     68  C         33.8120    6.7740   13.4140 C.2    92  LEU92       0.2287
     69  O         34.1200    5.6380   13.0750 O.2    92  LEU92      -0.2864
     70  CB        31.9530    7.4560   11.9120 C.3    92  LEU92       0.0297
     71  CG        30.4550    7.4340   11.6090 C.3    92  LEU92       0.0022
     72  CD1       30.2680    7.6380   10.1240 C.3    92  LEU92       0.0001
     73  CD2       29.7560    6.1860   12.0810 C.3    92  LEU92       0.0001
     74  N         34.1320    3.7160   15.2690 N.3    95  GLN95      -0.1245
     75  CA        33.3030    2.5930   14.8170 C.3    95  GLN95       0.1566
     76  C         33.8320    1.9950   13.5250 C.2    95  GLN95       0.2260
     77  O         33.0580    1.4740   12.7320 O.2    95  GLN95      -0.2867
     78  CB        31.8580    3.0550   14.5830 C.3    95  GLN95       0.0367
     79  CG        31.2420    3.7350   15.7880 C.3    95  GLN95       0.0905
     80  CD        29.8090    4.1540   15.5720 C.2    95  GLN95       0.2608
     81  OE1       29.1700    3.8200   14.5690 O.2    95  GLN95      -0.2717
     82  NE2       29.2920    4.8900   16.5220 N.am   95  GLN95      -0.0878
@<TRIPOS>BOND
     1    59    57   ar
     2    59    58   ar
     3    57    55   ar
     4    58    56   ar
     5    55    54   ar
     6    55    53   ar
     7    56    53   ar
     8    72    71    1
     9    54    52   ar
    10    53    51   ar
    11    52    51   ar
    12    51    50    1
    13    50    47    1
    14    71    70    1
    15    71    73    1
    16    31    30    1
    17    70    67    1
    18    32    30    1
    19    17    15   am
    20    49    48    2
    21    30    29    1
    22    47    48    1
    23    47    46    1
    24    77    76    2
    25    29    26    1
    26    28    27    2
    27    69    68    2
    28    67    68    1
    29    67    66    1
    30    15    16    2
    31    15    14    1
    32    26    27    1
    33    26    25    1
    34    76    75    1
    35    46    43   am
    36    27    33   am
    37    14    13    1
    38    66    62   am
    39    35    36    2
    40    35    34    1
    41    81    80    2
    42    78    75    1
    43    78    79    1
    44    13    10    1
    45    25    20   am
    46    75    74    1
    47    33    34    1
    48    43    44    2
    49    43    42    1
    50    34    37    1
    51    62    63    2
    52    62    61    1
    53    80    79    1
    54    80    82   am
    55    60    61    1
    56    41    42    1
    57    21    20    2
    58    20    19    1
    59    10    11    1
    60    10     9    1
    61    12    11    2
    62    42    45    1
    63    11    18   am
    64    39    38    2
    65    65    64    1
    66    61    64    1
    67     4     3    2
    68    18    19    1
    69    37    38    1
    70     9     3   am
    71    19    22    1
    72    38    40   am
    73    23    22    1
    74     3     2    1
    75    22    24    1
    76     2     1    1
    77     2     5    1
    78     5     6    1
    79     6     8    1
    80     6     7    1
