@<TRIPOS>MOLECULE
tmp/4mxzA00.pdb
 177 166 0 0 0
SMALL
GASTEIGER

@<TRIPOS>ATOM
      1  N         12.5090  -44.4290   -9.3390 N.3    17  LEU17      -0.1231
      2  CA        12.5030  -43.7820   -8.0280 C.3    17  LEU17       0.1696
      3  C         11.3010  -44.1460   -7.1440 C.2    17  LEU17       0.2631
      4  O         11.4000  -44.1090   -5.9110 O.2    17  LEU17      -0.2714
      5  CB        12.6360  -42.2620   -8.1810 C.3    17  LEU17       0.0284
      6  CG        13.9870  -41.7540   -8.7010 C.3    17  LEU17       0.0019
      7  CD1       13.9270  -40.2610   -9.0480 C.3    17  LEU17       0.0001
      8  CD2       15.1140  -42.0410   -7.7080 C.3    17  LEU17       0.0001
      9  N         10.1750  -44.4950   -7.7670 N.am   18  GLY18      -0.1732
     10  CA         8.9870  -44.8940   -7.0240 C.2    18  GLY18       0.1340
     11  C          7.8320  -45.4010   -7.8750 C.2    18  GLY18       0.2521
     12  O          7.8850  -45.3610   -9.1080 O.2    18  GLY18      -0.2816
     13  N          7.8570  -42.6800  -10.5910 N.3    25  VAL25      -0.1245
     14  CA         8.7580  -41.5360  -10.6680 C.3    25  VAL25       0.1561
     15  C         10.1580  -42.0130  -11.0760 C.2    25  VAL25       0.2260
     16  O         10.6660  -42.9840  -10.5200 O.2    25  VAL25      -0.2867
     17  CB         8.8510  -40.7930   -9.3300 C.3    25  VAL25       0.0252
     18  CG1       10.0820  -39.9020   -9.3200 C.3    25  VAL25       0.0019
     19  CG2        7.5790  -39.9810   -9.0760 C.3    25  VAL25       0.0019
     20  N         13.1690  -35.1510  -13.6170 N.3    37  ALA37      -0.1231
     21  CA        12.4290  -36.1960  -12.9450 C.3    37  ALA37       0.1694
     22  C         11.1200  -36.3440  -13.7090 C.2    37  ALA37       0.2592
     23  O         10.5780  -35.3500  -14.2030 O.2    37  ALA37      -0.2718
     24  CB        12.1670  -35.8080  -11.5040 C.3    37  ALA37       0.0304
     25  N         10.6180  -37.5710  -13.8320 N.am   38  ILE38      -0.1966
     26  CA         9.3520  -37.7900  -14.5330 C.3    38  ILE38       0.1727
     27  C          8.3270  -38.5260  -13.6790 C.2    38  ILE38       0.2616
     28  O          8.5700  -39.6570  -13.2570 O.2    38  ILE38      -0.2715
     29  CB         9.5310  -38.6140  -15.8320 C.3    38  ILE38       0.0290
     30  CG1       10.4750  -37.9190  -16.8230 C.3    38  ILE38       0.0022
     31  CG2        8.1780  -38.8820  -16.4700 C.3    38  ILE38       0.0023
     32  CD1       11.8680  -38.5080  -16.8640 C.3    38  ILE38       0.0001
     33  N          7.1860  -37.8890  -13.4320 N.am   39  LYS39      -0.1977
     34  CA         6.0380  -38.5880  -12.8700 C.3    39  LYS39       0.1596
     35  C          5.3320  -39.2870  -14.0240 C.2    39  LYS39       0.2287
     36  O          4.9420  -38.6500  -14.9990 O.2    39  LYS39      -0.2864
     37  CB         5.0790  -37.6260  -12.1760 C.3    39  LYS39       0.0298
     38  CG         4.2130  -38.3010  -11.1170 C.3    39  LYS39       0.0038
     39  CD         3.0990  -37.4000  -10.6070 C.3    39  LYS39       0.0206
     40  CE         2.3870  -38.0610   -9.4290 C.3    39  LYS39       0.1093
     41  NZ         1.0440  -37.4710   -9.1430 N.3    39  LYS39      -0.1314
     42  N         -2.8790  -31.3810  -13.0330 N.3    54  GLU54      -0.1245
     43  CA        -1.7800  -30.9630  -12.1480 C.3    54  GLU54       0.1567
     44  C         -0.7490  -30.1840  -12.9720 C.2    54  GLU54       0.2260
     45  O          0.0470  -29.4030  -12.4330 O.2    54  GLU54      -0.2867
     46  CB        -1.1070  -32.1650  -11.4630 C.3    54  GLU54       0.0388
     47  CG         0.4350  -32.0720  -11.4270 C.3    54  GLU54       0.1160
     48  CD         1.0540  -32.4740  -10.0890 C.2    54  GLU54       0.3649
     49  OE1        0.5630  -33.4480   -9.4750 O.co2  54  GLU54      -0.2457
     50  OE2        2.0420  -31.8230   -9.6590 O.co2  54  GLU54      -0.2457
     51  N          0.3960  -26.3340  -12.4850 N.3    58  LEU58      -0.1245
     52  CA         1.8420  -26.1760  -12.4570 C.3    58  LEU58       0.1561
     53  C          2.3810  -25.3380  -13.6100 C.2    58  LEU58       0.2260
     54  O          3.5480  -24.9260  -13.5900 O.2    58  LEU58      -0.2867
     55  CB         2.5220  -27.5460  -12.4700 C.3    58  LEU58       0.0270
     56  CG         3.2330  -27.9470  -11.1750 C.3    58  LEU58       0.0019
     57  CD1        2.2500  -28.5760  -10.1830 C.3    58  LEU58       0.0001
     58  CD2        4.3850  -28.8980  -11.4820 C.3    58  LEU58       0.0001
     59  N          8.4210  -26.6860   -6.8160 N.3    67  VAL67      -0.1245
     60  CA         9.0470  -27.5370   -7.8280 C.3    67  VAL67       0.1561
     61  C          8.5950  -27.1170   -9.2460 C.2    67  VAL67       0.2260
     62  O          7.4100  -26.8550   -9.4900 O.2    67  VAL67      -0.2867
     63  CB         8.7780  -29.0260   -7.5480 C.3    67  VAL67       0.0252
     64  CG1        9.4750  -29.8830   -8.5730 C.3    67  VAL67       0.0019
     65  CG2        9.2820  -29.3670   -6.1610 C.3    67  VAL67       0.0019
     66  N          4.9050  -36.5380  -17.0580 N.3    80  ILE80      -0.1245
     67  CA         5.0020  -35.1640  -16.5640 C.3    80  ILE80       0.1561
     68  C          6.4580  -34.8530  -16.1980 C.2    80  ILE80       0.2260
     69  O          7.0130  -35.4290  -15.2590 O.2    80  ILE80      -0.2867
     70  CB         4.1050  -34.9200  -15.3310 C.3    80  ILE80       0.0252
     71  CG1        2.7010  -34.5090  -15.7670 C.3    80  ILE80       0.0019
     72  CG2        4.6940  -33.8330  -14.4420 C.3    80  ILE80       0.0019
     73  CD1        1.8440  -34.0050  -14.6270 C.3    80  ILE80       0.0001
     74  N          9.6760  -32.7340  -14.8740 N.3    82  MET82      -0.1230
     75  CA         9.9340  -31.6880  -13.8930 C.3    82  MET82       0.1702
     76  C         11.3780  -31.5700  -13.4450 C.2    82  MET82       0.2592
     77  O         12.2050  -32.4450  -13.6960 O.2    82  MET82      -0.2718
     78  CB         9.0340  -31.8870  -12.6730 C.3    82  MET82       0.0401
     79  CG         7.5710  -31.9330  -13.0550 C.3    82  MET82       0.0596
     80  SD         6.4680  -31.6150  -11.6840 S.3    82  MET82      -0.1393
     81  CE         7.4020  -30.3310  -10.8320 C.3    82  MET82       0.0692
     82  N         11.6560  -30.4500  -12.7860 N.am   83  GLU83      -0.1966
     83  CA        12.9290  -30.1650  -12.1340 C.3    83  GLU83       0.1733
     84  C         13.3190  -31.2780  -11.1650 C.2    83  GLU83       0.2616
     85  O         12.4710  -31.7750  -10.4130 O.2    83  GLU83      -0.2715
     86  CB        12.7610  -28.8570  -11.3760 C.3    83  GLU83       0.0429
     87  CG        13.7130  -28.6470  -10.2330 C.3    83  GLU83       0.1163
     88  CD        13.4630  -27.3170   -9.5420 C.2    83  GLU83       0.3649
     89  OE1       14.4230  -26.7700   -8.9630 O.co2  83  GLU83      -0.2457
     90  OE2       12.3080  -26.8220   -9.5710 O.co2  83  GLU83      -0.2457
     91  N         14.5930  -31.6680  -11.1660 N.am   84  TYR84      -0.1960
     92  CA        15.0410  -32.8250  -10.3700 C.3    84  TYR84       0.1771
     93  C         15.5880  -32.4640   -8.9930 C.2    84  TYR84       0.2619
     94  O         16.6300  -31.8070   -8.8870 O.2    84  TYR84      -0.2715
     95  CB        16.1050  -33.6310  -11.1290 C.3    84  TYR84       0.0574
     96  CG        16.6770  -34.7850  -10.3270 C.ar   84  TYR84      -0.0198
     97  CD1       16.0470  -36.0250  -10.3130 C.ar   84  TYR84      -0.0009
     98  CD2       17.8370  -34.6330   -9.5720 C.ar   84  TYR84      -0.0009
     99  CE1       16.5580  -37.0870   -9.5760 C.ar   84  TYR84       0.0417
    100  CE2       18.3570  -35.6940   -8.8260 C.ar   84  TYR84       0.0417
    101  CZ        17.7120  -36.9170   -8.8350 C.ar   84  TYR84       0.1957
    102  OH        18.2150  -37.9740   -8.1060 O.3    84  TYR84      -0.2866
    103  N         14.9190  -32.9350   -7.9410 N.am   85  MET85      -0.1963
    104  CA        15.3410  -32.6280   -6.5700 C.3    85  MET85       0.1736
    105  C         16.2350  -33.7090   -5.9360 C.2    85  MET85       0.2617
    106  O         15.7660  -34.8060   -5.6030 O.2    85  MET85      -0.2715
    107  CB        14.1210  -32.3560   -5.7130 C.3    85  MET85       0.0427
    108  CG        13.2440  -31.2680   -6.2970 C.3    85  MET85       0.0599
    109  SD        14.0750  -29.6500   -6.3160 S.3    85  MET85      -0.1393
    110  CE        14.1880  -29.3210   -4.5410 C.3    85  MET85       0.0692
    111  N         17.5110  -33.3720   -5.7430 N.am   86  SER86      -0.1936
    112  CA        18.5440  -34.3510   -5.4020 C.3    86  SER86       0.2055
    113  C         18.3230  -35.1820   -4.1240 C.2    86  SER86       0.2643
    114  O         18.6920  -36.3550   -4.0870 O.2    86  SER86      -0.2714
    115  CB        19.9310  -33.6820   -5.3670 C.3    86  SER86       0.2130
    116  OG        20.0990  -32.8550   -4.2270 O.3    86  SER86      -0.2179
    117  N         17.7380  -34.5950   -3.0840 N.am   87  LYS87      -0.1963
    118  CA        17.6410  -35.3060   -1.8010 C.3    87  LYS87       0.1728
    119  C         16.2570  -35.8940   -1.5230 C.2    87  LYS87       0.2617
    120  O         15.9700  -36.2900   -0.3940 O.2    87  LYS87      -0.2715
    121  CB        18.0730  -34.4040   -0.6340 C.3    87  LYS87       0.0311
    122  CG        19.3940  -33.6500   -0.8510 C.3    87  LYS87       0.0038
    123  CD        20.6480  -34.5010   -0.5550 C.3    87  LYS87       0.0206
    124  CE        21.2980  -35.0290   -1.8440 C.3    87  LYS87       0.1093
    125  NZ        22.7950  -35.0960   -1.7790 N.3    87  LYS87      -0.1314
    126  N         15.4080  -35.9430   -2.5460 N.am   88  GLY88      -0.1940
    127  CA        14.0900  -36.5370   -2.4230 C.3    88  GLY88       0.2014
    128  C         13.1950  -35.8550   -1.4040 C.2    88  GLY88       0.2639
    129  O         13.4940  -34.7670   -0.9090 O.2    88  GLY88      -0.2714
    130  N         12.0860  -36.5220   -1.1010 N.am   89  SER89      -0.1949
    131  CA        11.0690  -36.0940   -0.1360 C.3    89  SER89       0.1924
    132  C         11.5900  -35.5560    1.2010 C.2    89  SER89       0.2314
    133  O         12.4770  -36.1470    1.8100 O.2    89  SER89      -0.2863
    134  CB        10.1560  -37.2950    0.1550 C.3    89  SER89       0.2116
    135  OG         9.2200  -36.9970    1.1780 O.3    89  SER89      -0.2180
    136  N         11.2870  -38.3960    3.7890 N.3    92  ASP92      -0.1239
    137  CA        12.4290  -39.3100    3.7640 C.3    92  ASP92       0.1674
    138  C         13.6630  -38.5990    4.3160 C.2    92  ASP92       0.2266
    139  O         14.4540  -39.1780    5.0610 O.2    92  ASP92      -0.2867
    140  CB        12.6770  -39.8430    2.3480 C.3    92  ASP92       0.1410
    141  CG        11.4940  -40.6830    1.8220 C.2    92  ASP92       0.3668
    142  OD1       10.6260  -41.1120    2.6340 O.co2  92  ASP92      -0.2456
    143  OD2       11.4300  -40.9190    0.5920 O.co2  92  ASP92      -0.2456
    144  N          5.6090  -35.0250    2.9010 N.3   134  ALA134     -0.1231
    145  CA         5.8060  -36.0240    1.8420 C.3   134  ALA134      0.1694
    146  C          5.7680  -35.3660    0.4680 C.2   134  ALA134      0.2592
    147  O          6.3750  -35.8600   -0.4990 O.2   134  ALA134     -0.2718
    148  CB         4.7600  -37.1310    1.9330 C.3   134  ALA134      0.0304
    149  N          5.0340  -34.2600    0.3860 N.am  135  ASN135     -0.1974
    150  CA         4.9580  -33.4760   -0.8410 C.3   135  ASN135      0.1688
    151  C          5.8760  -32.2540   -0.7850 C.2   135  ASN135      0.2292
    152  O          5.6210  -31.2300   -1.4510 O.2   135  ASN135     -0.2864
    153  CB         3.5140  -33.0680   -1.1430 C.3   135  ASN135      0.1181
    154  CG         2.5600  -34.2610   -1.1640 C.2   135  ASN135      0.2629
    155  OD1        1.3670  -34.1260   -0.8770 O.2   135  ASN135     -0.2716
    156  ND2        3.0870  -35.4360   -1.4900 N.am  135  ASN135     -0.0877
    157  N          9.8450  -31.4910   -1.6210 N.3   137  LEU137     -0.1245
    158  CA        11.1290  -31.9970   -2.0890 C.3   137  LEU137      0.1561
    159  C         12.2910  -31.1500   -1.5660 C.2   137  LEU137      0.2260
    160  O         12.1710  -29.9310   -1.3960 O.2   137  LEU137     -0.2867
    161  CB        11.1270  -32.1420   -3.6130 C.3   137  LEU137      0.0270
    162  CG        10.2540  -33.3340   -4.0330 C.3   137  LEU137      0.0019
    163  CD1        9.6200  -33.1260   -5.3910 C.3   137  LEU137      0.0001
    164  CD2       11.0550  -34.6400   -3.9860 C.3   137  LEU137      0.0001
    165  N          5.6420  -29.3870   -3.9150 N.3   147  ALA147     -0.1231
    166  CA         5.4490  -30.2160   -5.0920 C.3   147  ALA147      0.1694
    167  C          4.1030  -30.9090   -4.9780 C.2   147  ALA147      0.2592
    168  O          3.4610  -30.8530   -3.9270 O.2   147  ALA147     -0.2718
    169  CB         6.5800  -31.2450   -5.2080 C.3   147  ALA147      0.0304
    170  N          3.6890  -31.5550   -6.0650 N.am  148  ASP148     -0.1974
    171  CA         2.5090  -32.4130   -6.0780 C.3   148  ASP148      0.1709
    172  C          1.2150  -31.6720   -5.7800 C.2   148  ASP148      0.2293
    173  O          0.4780  -32.0380   -4.8610 O.2   148  ASP148     -0.2864
    174  CB         2.6870  -33.5890   -5.1130 C.3   148  ASP148      0.1436
    175  CG         1.8070  -34.7750   -5.4740 C.2   148  ASP148      0.3671
    176  OD1        0.5730  -34.5890   -5.6390 O.co2 148  ASP148     -0.2456
    177  OD2        2.3550  -35.8950   -5.6050 O.co2 148  ASP148     -0.2456
@<TRIPOS>BOND
     1    66    67    1
     2    32    30    1
     3    30    29    1
     4    67    68    1
     5    67    70    1
     6    31    29    1
     7    68    69    2
     8    29    26    1
     9    71    70    1
    10    71    73    1
    11    70    72    1
    12    36    35    2
    13    74    75    1
    14    26    25    1
    15    26    27    1
    16    23    22    2
    17    35    34    1
    18    75    76    1
    19    75    78    1
    20    25    22   am
    21    22    21    1
    22    77    76    2
    23    27    33   am
    24    27    28    2
    25    20    21    1
    26    53    54    2
    27    53    52    1
    28    76    82   am
    29    33    34    1
    30    79    78    1
    31    79    80    1
    32    42    43    1
    33    44    45    2
    34    44    43    1
    35    21    24    1
    36    34    37    1
    37    82    83    1
    38    51    52    1
    39    55    52    1
    40    55    56    1
    41    37    38    1
    42    43    46    1
    43    83    86    1
    44    83    84    1
    45    80    81    1
    46    58    56    1
    47    46    47    1
    48    47    48    1
    49    86    87    1
    50    56    57    1
    51    91    84   am
    52    91    92    1
    53    84    85    2
    54    95    92    1
    55    95    96    1
    56    38    39    1
    57    15    14    1
    58    15    16    2
    59    14    13    1
    60    14    17    1
    61    39    40    1
    62    92    93    1
    63    96    97   ar
    64    96    98   ar
    65    97    99   ar
    66    87    88    1
    67    48    50   ar
    68    48    49   ar
    69    99   101   ar
    70    98   100   ar
    71    90    88   ar
    72    88    89   ar
    73    62    61    2
    74    40    41    1
    75     1     2    1
    76    17    18    1
    77    17    19    1
    78    61    60    1
    79    12    11    2
    80     7     6    1
    81    93    94    2
    82    93   103   am
    83   101   100   ar
    84   101   102    1
    85     6     5    1
    86     6     8    1
    87    64    63    1
    88     5     2    1
    89     2     3    1
    90   103   104    1
    91    11    10    1
    92    60    63    1
    93    60    59    1
    94     9     3    1
    95     9    10    2
    96    63    65    1
    97     3     4    2
    98   104   105    1
    99   104   107    1
   100   109   108    1
   101   109   110    1
   102   108   107    1
   103   171   170    1
   104   171   172    1
   105   171   174    1
   106   170   167   am
   107   105   111   am
   108   105   106    2
   109   172   173    2
   110   111   112    1
   111   176   175   ar
   112   177   175   ar
   113   175   174    1
   114   112   115    1
   115   112   113    1
   116   163   162    1
   117   115   116    1
   118   169   166    1
   119   166   167    1
   120   166   165    1
   121   167   168    2
   122   113   114    2
   123   113   117   am
   124   162   164    1
   125   162   161    1
   126   161   158    1
   127   117   118    1
   128   126   127    1
   129   126   119   am
   130   127   128    1
   131   158   157    1
   132   158   159    1
   133   124   125    1
   134   124   123    1
   135   118   119    1
   136   118   121    1
   137   159   160    2
   138   119   120    2
   139   156   154   am
   140   152   151    2
   141   128   130   am
   142   128   129    2
   143   154   153    1
   144   154   155    2
   145   153   150    1
   146   130   131    1
   147   122   121    1
   148   122   123    1
   149   150   151    1
   150   150   149    1
   151   147   146    2
   152   131   134    1
   153   131   132    1
   154   134   135    1
   155   149   146   am
   156   146   145    1
   157   143   141   ar
   158   132   133    2
   159   141   140    1
   160   141   142   ar
   161   145   148    1
   162   145   144    1
   163   140   137    1
   164   137   136    1
   165   137   138    1
   166   138   139    2
