@<TRIPOS>MOLECULE
tmp/4my0C00.pdb
 161 160 0 0 0
SMALL
GASTEIGER

@<TRIPOS>ATOM
      1  N         17.6100   36.9430   38.6710 N.3    28  SER28      -0.1202
      2  CA        16.5810   36.6660   37.6740 C.3    28  SER28       0.2020
      3  C         16.7580   35.2910   37.0160 C.2    28  SER28       0.2618
      4  O         15.8020   34.5190   36.9180 O.2    28  SER28      -0.2717
      5  CB        16.5870   37.7540   36.6020 C.3    28  SER28       0.2103
      6  OG        16.2270   38.9900   37.1720 O.3    28  SER28      -0.2182
      7  N         17.9810   34.9920   36.5880 N.am   29  PHE29      -0.1975
      8  CA        18.2600   33.7750   35.8260 C.3    29  PHE29       0.1639
      9  C         19.1200   32.7790   36.5680 C.2    29  PHE29       0.2290
     10  O         19.0910   31.5960   36.2520 O.2    29  PHE29      -0.2864
     11  CB        18.9710   34.1080   34.5050 C.3    29  PHE29       0.0560
     12  CG        18.1220   34.8920   33.5400 C.ar   29  PHE29      -0.0200
     13  CD1       18.7080   35.7300   32.6050 C.ar   29  PHE29      -0.0042
     14  CD2       16.7390   34.7840   33.5650 C.ar   29  PHE29      -0.0042
     15  CE1       17.9230   36.4560   31.7020 C.ar   29  PHE29      -0.0003
     16  CE2       15.9450   35.5080   32.6590 C.ar   29  PHE29      -0.0003
     17  CZ        16.5450   36.3370   31.7330 C.ar   29  PHE29      -0.0000
     18  N         15.8810   39.8920   29.2730 N.3    87  VAL87      -0.1231
     19  CA        14.9270   40.7830   29.9310 C.3    87  VAL87       0.1692
     20  C         14.8740   40.4670   31.4250 C.2    87  VAL87       0.2592
     21  O         14.4280   39.3850   31.8050 O.2    87  VAL87      -0.2718
     22  CB        13.5190   40.6630   29.3260 C.3    87  VAL87       0.0266
     23  CG1       12.5820   41.7560   29.9180 C.3    87  VAL87       0.0020
     24  CG2       13.6000   40.8150   27.8150 C.3    87  VAL87       0.0020
     25  N         15.3310   41.3980   32.2740 N.am   88  VAL88      -0.1966
     26  CA        15.4040   41.1460   33.7260 C.3    88  VAL88       0.1727
     27  C         14.9210   42.3410   34.5480 C.2    88  VAL88       0.2616
     28  O         15.1900   43.4840   34.1980 O.2    88  VAL88      -0.2715
     29  CB        16.8370   40.7530   34.1770 C.3    88  VAL88       0.0290
     30  CG1       17.2800   39.4690   33.4640 C.3    88  VAL88       0.0023
     31  CG2       17.8210   41.8660   33.8800 C.3    88  VAL88       0.0023
     32  N         14.1900   42.0710   35.6270 N.am   89  VAL89      -0.1977
     33  CA        13.7560   43.1230   36.5560 C.3    89  VAL89       0.1596
     34  C         14.0930   42.6740   37.9850 C.2    89  VAL89       0.2287
     35  O         13.8760   41.4970   38.3320 O.2    89  VAL89      -0.2864
     36  CB        12.2470   43.3910   36.4340 C.3    89  VAL89       0.0276
     37  CG1       11.7940   44.4580   37.4580 C.3    89  VAL89       0.0022
     38  CG2       11.8680   43.8090   34.9800 C.3    89  VAL89       0.0022
     39  N          9.4250   43.9390   40.5630 N.3    94  ARG94      -0.1231
     40  CA         8.5120   43.2330   39.6500 C.3    94  ARG94       0.1694
     41  C          7.0410   43.4500   40.0050 C.2    94  ARG94       0.2593
     42  O          6.7100   43.7090   41.1600 O.2    94  ARG94      -0.2718
     43  CB         8.8190   41.7250   39.6620 C.3    94  ARG94       0.0321
     44  CG        10.2630   41.3920   39.2860 C.3    94  ARG94       0.0489
     45  CD        10.6150   39.9060   39.5130 C.3    94  ARG94       0.2205
     46  NE        12.0290   39.6610   39.2100 N.pl3  94  ARG94      -0.0865
     47  CZ        12.7540   38.6500   39.6880 C.cat  94  ARG94       0.5346
     48  NH1       14.0270   38.5430   39.3330 N.pl3  94  ARG94       0.1354
     49  NH2       12.2200   37.7540   40.5260 N.pl3  94  ARG94       0.1354
     50  N          6.1540   43.3330   39.0170 N.am   95  GLY95      -0.1942
     51  CA         4.7170   43.4310   39.2700 C.3    95  GLY95       0.2014
     52  C          4.2590   44.8530   39.5420 C.2    95  GLY95       0.2639
     53  O          3.2280   45.0730   40.1790 O.2    95  GLY95      -0.2714
     54  N          5.0330   45.8130   39.0400 N.am   96  ARG96      -0.1963
     55  CA         4.7970   47.2340   39.2880 C.3    96  ARG96       0.1729
     56  C          4.8460   48.0630   38.0030 C.2    96  ARG96       0.2617
     57  O          4.8810   49.2980   38.0630 O.2    96  ARG96      -0.2715
     58  CB         5.8600   47.7580   40.2570 C.3    96  ARG96       0.0348
     59  CG         5.8370   47.0200   41.5840 C.3    96  ARG96       0.0492
     60  CD         6.9920   47.3760   42.4960 C.3    96  ARG96       0.2205
     61  NE         7.1860   46.2950   43.4580 N.pl3  96  ARG96      -0.0865
     62  CZ         6.5060   46.1580   44.5960 C.cat  96  ARG96       0.5346
     63  NH1        6.7450   45.1210   45.3930 N.pl3  96  ARG96       0.1354
     64  NH2        5.5910   47.0480   44.9410 N.pl3  96  ARG96       0.1354
     65  N          4.8610   47.3990   36.8450 N.am   97  GLY97      -0.1940
     66  CA         4.9190   48.1220   35.5710 C.3    97  GLY97       0.2014
     67  C          6.3210   48.4390   35.0510 C.2    97  GLY97       0.2639
     68  O          6.4610   49.0360   33.9820 O.2    97  GLY97      -0.2714
     69  N          7.3630   48.0370   35.7790 N.am   98  VAL98      -0.1963
     70  CA         8.7350   48.3130   35.3430 C.3    98  VAL98       0.1727
     71  C          9.1450   47.5720   34.0450 C.2    98  VAL98       0.2617
     72  O          9.6740   48.1820   33.1020 O.2    98  VAL98      -0.2715
     73  CB         9.7400   48.0670   36.4840 C.3    98  VAL98       0.0290
     74  CG1       11.1930   48.2400   35.9960 C.3    98  VAL98       0.0023
     75  CG2        9.4340   49.0160   37.6540 C.3    98  VAL98       0.0023
     76  N          8.8940   46.2730   33.9900 N.am   99  GLY99      -0.1940
     77  CA         9.1730   45.5020   32.7840 C.3    99  GLY99       0.2014
     78  C          8.4690   46.0410   31.5450 C.2    99  GLY99       0.2639
     79  O          9.0260   46.0160   30.4470 O.2    99  GLY99      -0.2714
     80  N          7.2450   46.5320   31.7210 N.am  100  SER100     -0.1949
     81  CA         6.4740   47.1100   30.6220 C.3   100  SER100      0.1924
     82  C          7.0600   48.4420   30.1740 C.2   100  SER100      0.2314
     83  O          7.0690   48.7660   28.9810 O.2   100  SER100     -0.2863
     84  CB         5.0120   47.3130   31.0520 C.3   100  SER100      0.2116
     85  OG         4.3670   46.0660   31.2410 O.3   100  SER100     -0.2180
     86  N         11.4310   37.1240   20.1650 N.3   118  LEU118     -0.1231
     87  CA        12.0290   36.7040   21.4290 C.3   118  LEU118      0.1693
     88  C         11.4310   35.3740   21.8810 C.2   118  LEU118      0.2592
     89  O         10.3290   34.9960   21.4460 O.2   118  LEU118     -0.2718
     90  CB        11.7850   37.7580   22.5180 C.3   118  LEU118      0.0284
     91  CG        10.3190   38.1630   22.7820 C.3   118  LEU118      0.0019
     92  CD1        9.6270   37.2770   23.8140 C.3   118  LEU118      0.0001
     93  CD2       10.2200   39.6480   23.1920 C.3   118  LEU118      0.0001
     94  N         12.1690   34.6840   22.7500 N.am  119  TYR119     -0.1963
     95  CA        11.7100   33.4980   23.4580 C.3   119  TYR119      0.1756
     96  C         11.2680   33.9440   24.8460 C.2   119  TYR119      0.2461
     97  O         12.1070   34.2910   25.6840 O.2   119  TYR119     -0.2730
     98  CB        12.8680   32.5060   23.6270 C.3   119  TYR119      0.0574
     99  CG        13.2160   31.7330   22.3700 C.ar  119  TYR119     -0.0198
    100  CD1       12.6340   30.4940   22.1120 C.ar  119  TYR119     -0.0009
    101  CD2       14.1240   32.2370   21.4480 C.ar  119  TYR119     -0.0009
    102  CE1       12.9540   29.7750   20.9500 C.ar  119  TYR119      0.0417
    103  CE2       14.4480   31.5370   20.2890 C.ar  119  TYR119      0.0417
    104  CZ        13.8600   30.3100   20.0490 C.ar  119  TYR119      0.1957
    105  OH        14.1830   29.6260   18.8970 O.3   119  TYR119     -0.2866
    106  N          9.9550   33.9330   25.1020 N.am  120  PRO120     -0.2716
    107  CA         9.4250   34.4860   26.3590 C.3   120  PRO120      0.1536
    108  C          9.4610   33.4760   27.5030 C.2   120  PRO120      0.2598
    109  O          9.1350   32.2980   27.2870 O.2   120  PRO120     -0.2715
    110  CB         7.9620   34.7830   26.0020 C.3   120  PRO120      0.0310
    111  CG         7.5980   33.6520   25.0190 C.3   120  PRO120      0.0237
    112  CD         8.8870   33.4440   24.2030 C.3   120  PRO120      0.0939
    113  N          9.8400   33.9150   28.7060 N.am  121  ALA121     -0.1964
    114  CA         9.7880   33.0170   29.8680 C.3   121  ALA121      0.1728
    115  C          8.3610   32.9830   30.4130 C.2   121  ALA121      0.2616
    116  O          7.9290   31.9970   30.9870 O.2   121  ALA121     -0.2715
    117  CB        10.7530   33.4710   30.9390 C.3   121  ALA121      0.0334
    118  N          7.6540   34.0950   30.2510 N.am  122  THR122     -0.1951
    119  CA         6.2490   34.1890   30.5990 C.3   122  THR122      0.1897
    120  C          5.5840   34.9650   29.4770 C.2   122  THR122      0.2313
    121  O          6.1130   35.9790   29.0220 O.2   122  THR122     -0.2863
    122  CB         6.0270   34.9230   31.9370 C.3   122  THR122      0.1794
    123  OG1        4.6620   35.3540   32.0220 O.3   122  THR122     -0.2208
    124  CG2        6.9490   36.1530   32.0570 C.3   122  THR122      0.0378
    125  N          2.6580   36.5580   29.4530 N.3   124  VAL124     -0.1231
    126  CA         1.6790   37.6160   29.7750 C.3   124  VAL124      0.1692
    127  C          2.1620   39.0160   29.3970 C.2   124  VAL124      0.2592
    128  O          1.4730   39.7210   28.6510 O.2   124  VAL124     -0.2718
    129  CB         1.2250   37.5950   31.2500 C.3   124  VAL124      0.0266
    130  CG1        0.1690   38.6870   31.5090 C.3   124  VAL124      0.0020
    131  CG2        0.6630   36.2200   31.6230 C.3   124  VAL124      0.0020
    132  N          3.3510   39.4090   29.8710 N.am  125  ILE125     -0.1966
    133  CA         3.8570   40.7480   29.5750 C.3   125  ILE125      0.1727
    134  C          4.0070   40.9690   28.0690 C.2   125  ILE125      0.2616
    135  O          3.6860   42.0370   27.5470 O.2   125  ILE125     -0.2715
    136  CB         5.1920   41.0580   30.3080 C.3   125  ILE125      0.0290
    137  CG1        5.7180   42.4380   29.9020 C.3   125  ILE125      0.0022
    138  CG2        6.2680   39.9910   30.0210 C.3   125  ILE125      0.0023
    139  CD1        6.8220   42.9640   30.8380 C.3   125  ILE125      0.0001
    140  N          4.4610   39.9460   27.3580 N.am  126  TYR126     -0.1974
    141  CA         4.7220   40.1090   25.9290 C.3   126  TYR126      0.1639
    142  C          3.4430   40.1920   25.0970 C.2   126  TYR126      0.2290
    143  O          3.3690   40.9850   24.1510 O.2   126  TYR126     -0.2864
    144  CB         5.7020   39.0390   25.4310 C.3   126  TYR126      0.0560
    145  CG         7.0130   39.1190   26.1850 C.ar  126  TYR126     -0.0198
    146  CD1        7.8250   40.2470   26.0790 C.ar  126  TYR126     -0.0009
    147  CD2        7.4140   38.0930   27.0440 C.ar  126  TYR126     -0.0009
    148  CE1        9.0280   40.3420   26.7860 C.ar  126  TYR126      0.0417
    149  CE2        8.6130   38.1700   27.7500 C.ar  126  TYR126      0.0417
    150  CZ         9.4140   39.3010   27.6150 C.ar  126  TYR126      0.1957
    151  OH        10.6080   39.3920   28.3120 O.3   126  TYR126     -0.2866
    152  N          0.6210   41.4100   26.2260 N.3   128  HIS128     -0.1241
    153  CA         0.1540   42.7520   26.5770 C.3   128  HIS128      0.1621
    154  C          0.8350   43.8240   25.7140 C.2   128  HIS128      0.2264
    155  O          0.2430   44.8540   25.4150 O.2   128  HIS128     -0.2867
    156  CB         0.4140   43.0020   28.0740 C.3   128  HIS128      0.0745
    157  CG         0.0340   44.3720   28.5540 C.ar  128  HIS128      0.0817
    158  ND1        0.8810   45.1530   29.3130 N.ar  128  HIS128     -0.2268
    159  CD2       -1.1050   45.0890   28.4080 C.ar  128  HIS128      0.1154
    160  CE1        0.2850   46.2960   29.6030 C.ar  128  HIS128      0.1986
    161  NE2       -0.9210   46.2830   29.0620 N.ar  128  HIS128     -0.2212
@<TRIPOS>BOND
     1   105   104    1
     2   104   103   ar
     3   104   102   ar
     4    86    87    1
     5   103   101   ar
     6   102   100   ar
     7    87    88    1
     8    87    90    1
     9    89    88    2
    10   101    99   ar
    11    88    94   am
    12   100    99   ar
    13    99    98    1
    14    90    91    1
    15    94    95    1
    16    91    93    1
    17    91    92    1
    18    95    98    1
    19    95    96    1
    20   143   142    2
    21   112   111    1
    22   112   106    1
    23    96   106   am
    24    96    97    2
    25   111   110    1
    26   142   141    1
    27   106   107    1
    28   155   154    2
    29   144   141    1
    30   144   145    1
    31   154   153    1
    32   141   140    1
    33   110   107    1
    34   146   145   ar
    35   146   148   ar
    36   145   147   ar
    37   152   153    1
    38   107   108    1
    39   153   156    1
    40   148   150   ar
    41   147   149   ar
    42   109   108    2
    43   140   134   am
    44   108   113   am
    45   135   134    2
    46   150   149   ar
    47   150   151    1
    48    24    22    1
    49   134   133    1
    50   156   157    1
    51   159   157   ar
    52   159   161   ar
    53   157   158   ar
    54   128   127    2
    55   113   114    1
    56    83    82    2
    57   121   120    2
    58   161   160   ar
    59    18    19    1
    60   158   160   ar
    61    22    23    1
    62    22    19    1
    63   127   126    1
    64   127   132   am
    65   125   126    1
    66   120   119    1
    67   133   132    1
    68   133   136    1
    69   126   129    1
    70   114   115    1
    71   114   117    1
    72   137   136    1
    73   137   139    1
    74    19    20    1
    75   138   136    1
    76    82    81    1
    77   118   115   am
    78   118   119    1
    79   115   116    2
    80    79    78    2
    81   119   122    1
    82    81    84    1
    83    81    80    1
    84    84    85    1
    85   129   130    1
    86   129   131    1
    87    20    21    2
    88    20    25   am
    89    78    80   am
    90    78    77    1
    91    15    17   ar
    92    15    13   ar
    93    17    16   ar
    94   122   123    1
    95   122   124    1
    96    25    26    1
    97    13    12   ar
    98    16    14   ar
    99    77    76    1
   100    72    71    2
   101    30    29    1
   102    12    14   ar
   103    12    11    1
   104    26    29    1
   105    26    27    1
   106    31    29    1
   107    68    67    2
   108    76    71   am
   109    71    70    1
   110    28    27    2
   111    11     8    1
   112    27    32   am
   113    38    36    1
   114    67    66    1
   115    67    69   am
   116    70    69    1
   117    70    73    1
   118    66    65    1
   119    32    33    1
   120     8     9    1
   121     8     7    1
   122    74    73    1
   123    10     9    2
   124    36    33    1
   125    36    37    1
   126    73    75    1
   127    33    34    1
   128     7     3   am
   129     5     6    1
   130     5     2    1
   131    65    56   am
   132     4     3    2
   133     3     2    1
   134     2     1    1
   135    34    35    2
   136    56    57    2
   137    56    55    1
   138    50    51    1
   139    50    41   am
   140    54    55    1
   141    54    52   am
   142    46    45    1
   143    46    47    2
   144    51    52    1
   145    44    45    1
   146    44    43    1
   147    55    58    1
   148    48    47    1
   149    52    53    2
   150    40    43    1
   151    40    41    1
   152    40    39    1
   153    47    49    1
   154    41    42    2
   155    58    59    1
   156    59    60    1
   157    60    61    1
   158    61    62    2
   159    62    64    1
   160    62    63    1
