@<TRIPOS>MOLECULE
tmp/4my0A00.pdb
 147 143 0 0 0
SMALL
GASTEIGER

@<TRIPOS>ATOM
      1  N         36.9530   11.3820   55.5600 N.3    22  SER22      -0.1202
      2  CA        35.7390   11.2380   56.3670 C.3    22  SER22       0.2020
      3  C         34.4680   11.7060   55.6610 C.2    22  SER22       0.2618
      4  O         33.4890   10.9540   55.5960 O.2    22  SER22      -0.2717
      5  CB        35.9010   11.9690   57.7010 C.3    22  SER22       0.2103
      6  OG        36.9460   11.3920   58.4580 O.3    22  SER22      -0.2182
      7  N         34.4770   12.9340   55.1390 N.am   23  PHE23      -0.1975
      8  CA        33.2880   13.4970   54.4920 C.3    23  PHE23       0.1639
      9  C         33.3960   13.5360   52.9750 C.2    23  PHE23       0.2290
     10  O         32.3840   13.5980   52.2850 O.2    23  PHE23      -0.2864
     11  CB        33.0290   14.9400   54.9700 C.3    23  PHE23       0.0560
     12  CG        32.7530   15.0590   56.4420 C.ar   23  PHE23      -0.0200
     13  CD1       33.2070   16.1670   57.1580 C.ar   23  PHE23      -0.0042
     14  CD2       32.0310   14.0790   57.1100 C.ar   23  PHE23      -0.0042
     15  CE1       32.9570   16.2910   58.5180 C.ar   23  PHE23      -0.0003
     16  CE2       31.7740   14.1900   58.4710 C.ar   23  PHE23      -0.0003
     17  CZ        32.2350   15.2960   59.1790 C.ar   23  PHE23      -0.0000
     18  N         33.0820   16.4990   63.1350 N.3    81  VAL81      -0.1245
     19  CA        33.6800   15.4440   63.9450 C.3    81  VAL81       0.1561
     20  C         34.2210   14.3730   63.0080 C.2    81  VAL81       0.2260
     21  O         33.4520   13.7040   62.3100 O.2    81  VAL81      -0.2867
     22  CB        32.6420   14.8190   64.8930 C.3    81  VAL81       0.0252
     23  CG1       33.2690   13.6610   65.6880 C.3    81  VAL81       0.0019
     24  CG2       32.0780   15.8920   65.8320 C.3    81  VAL81       0.0019
     25  N         37.3770   11.2060   62.3710 N.3    83  VAL83      -0.1245
     26  CA        38.4530   10.3470   62.8600 C.3    83  VAL83       0.1561
     27  C         39.0860    9.6300   61.6580 C.2    83  VAL83       0.2260
     28  O         38.3650    9.1390   60.7810 O.2    83  VAL83      -0.2867
     29  CB        37.9250    9.2730   63.8450 C.3    83  VAL83       0.0252
     30  CG1       39.0400    8.2870   64.2140 C.3    83  VAL83       0.0019
     31  CG2       37.3380    9.9120   65.0960 C.3    83  VAL83       0.0019
     32  N         39.5760    4.4790   63.5970 N.3    88  ARG88      -0.1231
     33  CA        38.1640    4.4120   63.9860 C.3    88  ARG88       0.1694
     34  C         37.9040    3.1270   64.7650 C.2    88  ARG88       0.2593
     35  O         38.7010    2.1940   64.7040 O.2    88  ARG88      -0.2718
     36  CB        37.2510    4.4700   62.7570 C.3    88  ARG88       0.0321
     37  CG        37.1980    5.8360   62.1060 C.3    88  ARG88       0.0489
     38  CD        36.5010    5.8080   60.7480 C.3    88  ARG88       0.2205
     39  NE        36.6900    7.0760   60.0340 N.pl3  88  ARG88      -0.0865
     40  CZ        36.6030    7.2140   58.7150 C.cat  88  ARG88       0.5346
     41  NH1       36.3300    6.1610   57.9500 N.pl3  88  ARG88       0.1354
     42  NH2       36.7940    8.4030   58.1540 N.pl3  88  ARG88       0.1354
     43  N         36.8090    3.0740   65.5170 N.am   89  GLY89      -0.1942
     44  CA        36.4290    1.8190   66.1630 C.3    89  GLY89       0.2014
     45  C         37.3350    1.4250   67.3100 C.2    89  GLY89       0.2639
     46  O         37.3470    0.2650   67.7220 O.2    89  GLY89      -0.2714
     47  N         38.0980    2.3860   67.8310 N.am   90  ARG90      -0.1963
     48  CA        39.0440    2.1040   68.9130 C.3    90  ARG90       0.1729
     49  C         38.8880    3.0950   70.0670 C.2    90  ARG90       0.2617
     50  O         39.7710    3.2070   70.9060 O.2    90  ARG90      -0.2715
     51  CB        40.4940    2.1560   68.3980 C.3    90  ARG90       0.0348
     52  CG        40.8530    1.1300   67.3170 C.3    90  ARG90       0.0492
     53  CD        42.2590    1.3880   66.7570 C.3    90  ARG90       0.2205
     54  NE        43.1210    2.0320   67.7520 N.pl3  90  ARG90      -0.0865
     55  CZ        44.4040    2.3450   67.5670 C.cat  90  ARG90       0.5346
     56  NH1       45.0010    2.0670   66.4150 N.pl3  90  ARG90       0.1354
     57  NH2       45.0950    2.9360   68.5400 N.pl3  90  ARG90       0.1354
     58  N         37.7810    3.8310   70.0990 N.am   91  GLY91      -0.1940
     59  CA        37.5310    4.7730   71.1850 C.3    91  GLY91       0.2014
     60  C         38.1080    6.1740   71.0100 C.2    91  GLY91       0.2639
     61  O         37.9900    7.0250   71.9010 O.2    91  GLY91      -0.2714
     62  N         38.7340    6.4220   69.8640 N.am   92  VAL92      -0.1963
     63  CA        39.3440    7.7230   69.6050 C.3    92  VAL92       0.1727
     64  C         38.2830    8.8200   69.5130 C.2    92  VAL92       0.2617
     65  O         38.4370    9.9010   70.0960 O.2    92  VAL92      -0.2715
     66  CB        40.2190    7.6960   68.3460 C.3    92  VAL92       0.0290
     67  CG1       40.6690    9.1200   67.9680 C.3    92  VAL92       0.0023
     68  CG2       41.4320    6.7900   68.5760 C.3    92  VAL92       0.0023
     69  N         37.1910    8.5260   68.8140 N.am   93  GLY93      -0.1940
     70  CA        36.1120    9.4830   68.6480 C.3    93  GLY93       0.2014
     71  C         35.5170    9.8720   69.9900 C.2    93  GLY93       0.2639
     72  O         35.1910   11.0400   70.2140 O.2    93  GLY93      -0.2714
     73  N         35.3750    8.8850   70.8770 N.am   94  SER94      -0.1949
     74  CA        34.8130    9.1030   72.2100 C.3    94  SER94       0.1924
     75  C         35.7380    9.9450   73.0960 C.2    94  SER94       0.2314
     76  O         35.2850   10.8300   73.8280 O.2    94  SER94      -0.2863
     77  CB        34.5030    7.7530   72.8740 C.3    94  SER94       0.2116
     78  OG        33.5660    7.0190   72.0970 O.3    94  SER94      -0.2180
     79  N         24.0130   19.0620   68.1250 N.3   112  LEU112     -0.1231
     80  CA        24.7160   18.6760   66.8930 C.3   112  LEU112      0.1693
     81  C         23.8180   17.8330   65.9890 C.2   112  LEU112      0.2592
     82  O         22.8200   17.2830   66.4580 O.2   112  LEU112     -0.2718
     83  CB        25.9890   17.8870   67.2330 C.3   112  LEU112      0.0284
     84  CG        25.7630   16.6110   68.0580 C.3   112  LEU112      0.0019
     85  CD1       25.4570   15.4010   67.1890 C.3   112  LEU112      0.0001
     86  CD2       26.9740   16.3340   68.9270 C.3   112  LEU112      0.0001
     87  N         24.1920   17.7070   64.7130 N.am  113  TYR113     -0.1976
     88  CA        23.4900   16.8420   63.7660 C.3   113  TYR113      0.1639
     89  C         24.3580   15.6110   63.5650 C.2   113  TYR113      0.2290
     90  O         25.4580   15.7030   63.0100 O.2   113  TYR113     -0.2864
     91  CB        23.3370   17.5330   62.4090 C.3   113  TYR113      0.0560
     92  CG        22.2450   18.5820   62.3050 C.ar  113  TYR113     -0.0198
     93  CD1       20.9720   18.2470   61.8380 C.ar  113  TYR113     -0.0009
     94  CD2       22.4970   19.9030   62.6200 C.ar  113  TYR113     -0.0009
     95  CE1       19.9800   19.2080   61.7140 C.ar  113  TYR113      0.0417
     96  CE2       21.5150   20.8720   62.5060 C.ar  113  TYR113      0.0417
     97  CZ        20.2580   20.5150   62.0490 C.ar  113  TYR113      0.1957
     98  OH        19.2820   21.4710   61.9180 O.3   113  TYR113     -0.2866
     99  N         25.8520   12.0090   62.2370 N.3   115  ALA115     -0.1231
    100  CA        25.8420   11.0860   61.0970 C.3   115  ALA115      0.1694
    101  C         25.5180    9.6750   61.5720 C.2   115  ALA115      0.2592
    102  O         24.9400    8.8900   60.8340 O.2   115  ALA115     -0.2718
    103  CB        27.1750   11.0980   60.3630 C.3   115  ALA115      0.0304
    104  N         25.9490    9.3470   62.7880 N.am  116  THR116     -0.1953
    105  CA        25.6000    8.0840   63.4200 C.3   116  THR116      0.1897
    106  C         25.1780    8.4120   64.8380 C.2   116  THR116      0.2313
    107  O         25.8090    9.2400   65.4870 O.2   116  THR116     -0.2863
    108  CB        26.7970    7.0810   63.4250 C.3   116  THR116      0.1794
    109  OG1       26.4880    5.9640   64.2640 O.3   116  THR116     -0.2208
    110  CG2       28.0700    7.7470   63.9250 C.3   116  THR116      0.0378
    111  N         25.0050    6.3310   67.4660 N.3   118  VAL118     -0.1231
    112  CA        25.5120    5.4740   68.5460 C.3   118  VAL118      0.1692
    113  C         26.5060    6.1920   69.4590 C.2   118  VAL118      0.2592
    114  O         26.3120    6.2390   70.6860 O.2   118  VAL118     -0.2718
    115  CB        26.1240    4.1520   68.0300 C.3   118  VAL118      0.0266
    116  CG1       26.5990    3.2690   69.2090 C.3   118  VAL118      0.0020
    117  CG2       25.1020    3.3920   67.1920 C.3   118  VAL118      0.0020
    118  N         27.5590    6.7580   68.8750 N.am  119  ILE119     -0.1966
    119  CA        28.5950    7.3940   69.6890 C.3   119  ILE119      0.1727
    120  C         28.0010    8.5300   70.5300 C.2   119  ILE119      0.2616
    121  O         28.3450    8.6900   71.6970 O.2   119  ILE119     -0.2715
    122  CB        29.7930    7.8960   68.8320 C.3   119  ILE119      0.0290
    123  CG1       30.8960    8.4580   69.7390 C.3   119  ILE119      0.0022
    124  CG2       29.3450    8.9620   67.7920 C.3   119  ILE119      0.0023
    125  CD1       32.1750    8.8730   69.0070 C.3   119  ILE119      0.0001
    126  N         27.0790    9.3000   69.9580 N.am  120  TYR120     -0.1974
    127  CA        26.5490   10.4480   70.6940 C.3   120  TYR120      0.1639
    128  C         25.5680   10.0440   71.8060 C.2   120  TYR120      0.2290
    129  O         25.5610   10.6530   72.8840 O.2   120  TYR120     -0.2864
    130  CB        25.9580   11.4990   69.7380 C.3   120  TYR120      0.0560
    131  CG        26.9640   11.9570   68.6980 C.ar  120  TYR120     -0.0198
    132  CD1       28.0470   12.7490   69.0650 C.ar  120  TYR120     -0.0009
    133  CD2       26.8470   11.5730   67.3630 C.ar  120  TYR120     -0.0009
    134  CE1       28.9880   13.1610   68.1370 C.ar  120  TYR120      0.0417
    135  CE2       27.7800   11.9900   66.4140 C.ar  120  TYR120      0.0417
    136  CZ        28.8520   12.7860   66.8150 C.ar  120  TYR120      0.1957
    137  OH        29.7880   13.2120   65.8960 O.3   120  TYR120     -0.2866
    138  N         25.8070    7.2280   73.5210 N.3   122  HIS122     -0.1241
    139  CA        26.7250    6.7840   74.5820 C.3   122  HIS122      0.1621
    140  C         27.2620    7.9850   75.3580 C.2   122  HIS122      0.2264
    141  O         27.5320    7.8780   76.5460 O.2   122  HIS122     -0.2867
    142  CB        27.9180    5.9960   74.0150 C.3   122  HIS122      0.0745
    143  CG        27.5990    4.5850   73.6180 C.ar  122  HIS122      0.0817
    144  ND1       26.6750    3.8080   74.2840 N.ar  122  HIS122     -0.2268
    145  CD2       28.1040    3.8050   72.6290 C.ar  122  HIS122      0.1154
    146  CE1       26.6160    2.6150   73.7160 C.ar  122  HIS122      0.1986
    147  NE2       27.4720    2.5890   72.7080 N.ar  122  HIS122     -0.2212
@<TRIPOS>BOND
     1    10     9    2
     2     9     8    1
     3     8    11    1
     4     8     7    1
     5    11    12    1
     6     7     3   am
     7     1     2    1
     8     4     3    2
     9     3     2    1
    10     2     5    1
    11    12    14   ar
    12    12    13   ar
    13    14    16   ar
    14    13    15   ar
    15     5     6    1
    16    41    40    1
    17    42    40    1
    18    16    17   ar
    19    15    17   ar
    20    40    39    2
    21    39    38    1
    22   103   100    1
    23    38    37    1
    24    28    27    2
    25   102   101    2
    26   100   101    1
    27   100    99    1
    28   101   104   am
    29    27    26    1
    30    95    93   ar
    31    95    97   ar
    32    93    92   ar
    33    98    97    1
    34    97    96   ar
    35    37    36    1
    36    92    91    1
    37    92    94   ar
    38    21    20    2
    39    25    26    1
    40    91    88    1
    41    96    94   ar
    42    36    33    1
    43   104   105    1
    44    26    29    1
    45    20    19    1
    46    90    89    2
    47    18    19    1
    48   105   108    1
    49   105   106    1
    50   108   110    1
    51   108   109    1
    52    89    88    1
    53    32    33    1
    54    88    87    1
    55    29    30    1
    56    29    31    1
    57    19    22    1
    58    33    34    1
    59    35    34    2
    60    87    81   am
    61    34    43   am
    62   106   107    2
    63    22    23    1
    64    22    24    1
    65    43    44    1
    66   137   136    1
    67    81    82    2
    68    81    80    1
    69    44    45    1
    70   135   136   ar
    71   135   133   ar
    72    56    55    1
    73    53    52    1
    74    53    54    1
    75   136   134   ar
    76    80    83    1
    77    80    79    1
    78    85    84    1
    79   117   115    1
    80    83    84    1
    81    45    46    2
    82    45    47   am
    83    52    51    1
    84   133   131   ar
    85   111   112    1
    86    55    54    2
    87    55    57    1
    88   124   122    1
    89    47    48    1
    90    67    66    1
    91   115   112    1
    92   115   116    1
    93    84    86    1
    94   134   132   ar
    95    66    68    1
    96    66    63    1
    97    51    48    1
    98   112   113    1
    99    70    69    1
   100    70    71    1
   101   131   132   ar
   102   131   130    1
   103    69    64   am
   104   122   119    1
   105   122   123    1
   106   118   113   am
   107   118   119    1
   108    48    49    1
   109   125   123    1
   110   113   114    2
   111    64    63    1
   112    64    65    2
   113    63    62    1
   114   119   120    1
   115   130   127    1
   116    62    60   am
   117   126   120   am
   118   126   127    1
   119    71    72    2
   120    71    73   am
   121    49    58   am
   122    49    50    2
   123    58    59    1
   124   120   121    2
   125   127   128    1
   126    73    74    1
   127    60    59    1
   128    60    61    2
   129   128   129    2
   130    78    77    1
   131    74    77    1
   132    74    75    1
   133   145   147   ar
   134   145   143   ar
   135   147   146   ar
   136    75    76    2
   137   138   139    1
   138   143   142    1
   139   143   144   ar
   140   146   144   ar
   141   142   139    1
   142   139   140    1
   143   140   141    2
