@<TRIPOS>MOLECULE
tmp/4my0C01.pdb
 102 103 0 0 0
SMALL
GASTEIGER

@<TRIPOS>ATOM
      1  N         17.9810   34.9920   36.5880 N.3    29  PHE29      -0.1241
      2  CA        18.2600   33.7750   35.8260 C.3    29  PHE29       0.1605
      3  C         19.1200   32.7790   36.5680 C.2    29  PHE29       0.2264
      4  O         19.0910   31.5960   36.2520 O.2    29  PHE29      -0.2867
      5  CB        18.9710   34.1080   34.5050 C.3    29  PHE29       0.0534
      6  CG        18.1220   34.8920   33.5400 C.ar   29  PHE29      -0.0203
      7  CD1       18.7080   35.7300   32.6050 C.ar   29  PHE29      -0.0042
      8  CD2       16.7390   34.7840   33.5650 C.ar   29  PHE29      -0.0042
      9  CE1       17.9230   36.4560   31.7020 C.ar   29  PHE29      -0.0003
     10  CE2       15.9450   35.5080   32.6590 C.ar   29  PHE29      -0.0003
     11  CZ        16.5450   36.3370   31.7330 C.ar   29  PHE29      -0.0000
     12  N         15.0070   40.3310   21.0780 N.3    84  ILE84      -0.1231
     13  CA        15.0520   40.8220   22.4520 C.3    84  ILE84       0.1692
     14  C         15.6000   39.7310   23.3740 C.2    84  ILE84       0.2592
     15  O         15.1290   38.5880   23.3380 O.2    84  ILE84      -0.2718
     16  CB        13.6470   41.2910   22.9410 C.3    84  ILE84       0.0266
     17  CG1       12.9410   42.1170   21.8570 C.3    84  ILE84       0.0019
     18  CG2       13.7610   42.0980   24.2690 C.3    84  ILE84       0.0020
     19  CD1       13.7860   43.2910   21.2460 C.3    84  ILE84       0.0001
     20  N         16.6090   40.0700   24.1840 N.am   85  ALA85      -0.1966
     21  CA        17.2530   39.0870   25.0660 C.3    85  ALA85       0.1728
     22  C         17.5590   39.6460   26.4480 C.2    85  ALA85       0.2617
     23  O         17.6490   40.8650   26.6370 O.2    85  ALA85      -0.2715
     24  CB        18.5420   38.5520   24.4350 C.3    85  ALA85       0.0334
     25  N         17.7480   38.7430   27.4040 N.am   86  GLY86      -0.1940
     26  CA        18.1310   39.1100   28.7560 C.3    86  GLY86       0.2014
     27  C         17.1870   40.1080   29.4030 C.2    86  GLY86       0.2638
     28  O         17.6400   41.0800   30.0050 O.2    86  GLY86      -0.2714
     29  N         15.8810   39.8920   29.2730 N.am   87  VAL87      -0.1977
     30  CA        14.9270   40.7830   29.9310 C.3    87  VAL87       0.1596
     31  C         14.8740   40.4670   31.4250 C.2    87  VAL87       0.2287
     32  O         14.4280   39.3850   31.8050 O.2    87  VAL87      -0.2864
     33  CB        13.5190   40.6630   29.3260 C.3    87  VAL87       0.0276
     34  CG1       12.5820   41.7560   29.9180 C.3    87  VAL87       0.0022
     35  CG2       13.6000   40.8150   27.8150 C.3    87  VAL87       0.0022
     36  N         11.4310   37.1240   20.1650 N.3   118  LEU118     -0.1231
     37  CA        12.0290   36.7040   21.4290 C.3   118  LEU118      0.1693
     38  C         11.4310   35.3740   21.8810 C.2   118  LEU118      0.2592
     39  O         10.3290   34.9960   21.4460 O.2   118  LEU118     -0.2718
     40  CB        11.7850   37.7580   22.5180 C.3   118  LEU118      0.0284
     41  CG        10.3190   38.1630   22.7820 C.3   118  LEU118      0.0019
     42  CD1        9.6270   37.2770   23.8140 C.3   118  LEU118      0.0001
     43  CD2       10.2200   39.6480   23.1920 C.3   118  LEU118      0.0001
     44  N         12.1690   34.6840   22.7500 N.am  119  TYR119     -0.1963
     45  CA        11.7100   33.4980   23.4580 C.3   119  TYR119      0.1756
     46  C         11.2680   33.9440   24.8460 C.2   119  TYR119      0.2461
     47  O         12.1070   34.2910   25.6840 O.2   119  TYR119     -0.2730
     48  CB        12.8680   32.5060   23.6270 C.3   119  TYR119      0.0574
     49  CG        13.2160   31.7330   22.3700 C.ar  119  TYR119     -0.0198
     50  CD1       12.6340   30.4940   22.1120 C.ar  119  TYR119     -0.0009
     51  CD2       14.1240   32.2370   21.4480 C.ar  119  TYR119     -0.0009
     52  CE1       12.9540   29.7750   20.9500 C.ar  119  TYR119      0.0417
     53  CE2       14.4480   31.5370   20.2890 C.ar  119  TYR119      0.0417
     54  CZ        13.8600   30.3100   20.0490 C.ar  119  TYR119      0.1957
     55  OH        14.1830   29.6260   18.8970 O.3   119  TYR119     -0.2866
     56  N          9.9550   33.9330   25.1020 N.am  120  PRO120     -0.2716
     57  CA         9.4250   34.4860   26.3590 C.3   120  PRO120      0.1536
     58  C          9.4610   33.4760   27.5030 C.2   120  PRO120      0.2598
     59  O          9.1350   32.2980   27.2870 O.2   120  PRO120     -0.2715
     60  CB         7.9620   34.7830   26.0020 C.3   120  PRO120      0.0310
     61  CG         7.5980   33.6520   25.0190 C.3   120  PRO120      0.0237
     62  CD         8.8870   33.4440   24.2030 C.3   120  PRO120      0.0939
     63  N          9.8400   33.9150   28.7060 N.am  121  ALA121     -0.1978
     64  CA         9.7880   33.0170   29.8680 C.3   121  ALA121      0.1597
     65  C          8.3610   32.9830   30.4130 C.2   121  ALA121      0.2287
     66  O          7.9290   31.9970   30.9870 O.2   121  ALA121     -0.2864
     67  CB        10.7530   33.4710   30.9390 C.3   121  ALA121      0.0319
     68  N          4.4610   39.9460   27.3580 N.3   126  TYR126     -0.1241
     69  CA         4.7220   40.1090   25.9290 C.3   126  TYR126      0.1605
     70  C          3.4430   40.1920   25.0970 C.2   126  TYR126      0.2264
     71  O          3.3690   40.9850   24.1510 O.2   126  TYR126     -0.2867
     72  CB         5.7020   39.0390   25.4310 C.3   126  TYR126      0.0534
     73  CG         7.0130   39.1190   26.1850 C.ar  126  TYR126     -0.0201
     74  CD1        7.8250   40.2470   26.0790 C.ar  126  TYR126     -0.0009
     75  CD2        7.4140   38.0930   27.0440 C.ar  126  TYR126     -0.0009
     76  CE1        9.0280   40.3420   26.7860 C.ar  126  TYR126      0.0417
     77  CE2        8.6130   38.1700   27.7500 C.ar  126  TYR126      0.0417
     78  CZ         9.4140   39.3010   27.6150 C.ar  126  TYR126      0.1957
     79  OH        10.6080   39.3920   28.3120 O.3   126  TYR126     -0.2866
     80  N         18.4440   29.3520   20.0440 N.3   386  TYR386     -0.1227
     81  CA        17.7450   30.0040   21.1390 C.3   386  TYR386      0.1736
     82  C         18.5410   31.2540   21.4880 C.2   386  TYR386      0.2595
     83  O         19.7660   31.2590   21.3370 O.2   386  TYR386     -0.2718
     84  CB        17.7030   29.0710   22.3520 C.3   386  TYR386      0.0548
     85  CG        17.1460   29.7270   23.5870 C.ar  386  TYR386     -0.0200
     86  CD1       15.7820   29.7560   23.8170 C.ar  386  TYR386     -0.0009
     87  CD2       17.9850   30.3410   24.5150 C.ar  386  TYR386     -0.0009
     88  CE1       15.2580   30.3680   24.9520 C.ar  386  TYR386      0.0417
     89  CE2       17.4760   30.9530   25.6430 C.ar  386  TYR386      0.0417
     90  CZ        16.1070   30.9670   25.8550 C.ar  386  TYR386      0.1957
     91  OH        15.5830   31.5860   26.9820 O.3   386  TYR386     -0.2866
     92  N         17.8650   32.3110   21.9440 N.am  387  PHE387     -0.1976
     93  CA        18.5690   33.4950   22.4670 C.3   387  PHE387      0.1639
     94  C         17.7450   34.1530   23.5610 C.2   387  PHE387      0.2290
     95  O         16.5320   33.9150   23.6340 O.2   387  PHE387     -0.2864
     96  CB        18.8870   34.5100   21.3570 C.3   387  PHE387      0.0560
     97  CG        17.6580   35.0620   20.6590 C.ar  387  PHE387     -0.0200
     98  CD1       17.0830   34.3730   19.6010 C.ar  387  PHE387     -0.0042
     99  CD2       17.0790   36.2590   21.0740 C.ar  387  PHE387     -0.0042
    100  CE1       15.9460   34.8670   18.9490 C.ar  387  PHE387     -0.0003
    101  CE2       15.9380   36.7710   20.4300 C.ar  387  PHE387     -0.0003
    102  CZ        15.3770   36.0720   19.3670 C.ar  387  PHE387     -0.0000
@<TRIPOS>BOND
     1    55    54    1
     2   100   102   ar
     3   100    98   ar
     4   102   101   ar
     5    98    97   ar
     6    80    81    1
     7    54    53   ar
     8    54    52   ar
     9    36    37    1
    10    53    51   ar
    11   101    99   ar
    12    97    99   ar
    13    97    96    1
    14    52    50   ar
    15    12    13    1
    16    81    82    1
    17    81    84    1
    18    19    17    1
    19    83    82    2
    20    96    93    1
    21    37    38    1
    22    37    40    1
    23    39    38    2
    24    51    49   ar
    25    82    92   am
    26    17    16    1
    27    38    44   am
    28    92    93    1
    29    50    49   ar
    30    84    85    1
    31    49    48    1
    32    13    16    1
    33    13    14    1
    34    93    94    1
    35    40    41    1
    36    44    45    1
    37    41    43    1
    38    41    42    1
    39    16    18    1
    40    15    14    2
    41    14    20   am
    42    45    48    1
    43    45    46    1
    44    94    95    2
    45    85    86   ar
    46    85    87   ar
    47    86    88   ar
    48    71    70    2
    49    20    21    1
    50    62    61    1
    51    62    56    1
    52    24    21    1
    53    87    89   ar
    54    46    56   am
    55    46    47    2
    56    88    90   ar
    57    61    60    1
    58    21    22    1
    59    70    69    1
    60    56    57    1
    61    72    69    1
    62    72    73    1
    63    89    90   ar
    64    90    91    1
    65    69    68    1
    66    60    57    1
    67    74    73   ar
    68    74    76   ar
    69    73    75   ar
    70    57    58    1
    71    22    23    2
    72    22    25   am
    73    76    78   ar
    74    75    77   ar
    75    59    58    2
    76    25    26    1
    77    58    63   am
    78    78    77   ar
    79    78    79    1
    80    35    33    1
    81    63    64    1
    82    26    27    1
    83    29    27   am
    84    29    30    1
    85    33    34    1
    86    33    30    1
    87    27    28    2
    88    64    65    1
    89    64    67    1
    90    30    31    1
    91    65    66    2
    92    31    32    2
    93     9    11   ar
    94     9     7   ar
    95    11    10   ar
    96     7     6   ar
    97    10     8   ar
    98     6     8   ar
    99     6     5    1
   100     5     2    1
   101     2     3    1
   102     2     1    1
   103     4     3    2
