@<TRIPOS>MOLECULE
tmp/4my1D02.pdb
 95 90 0 0 0
SMALL
GASTEIGER

@<TRIPOS>ATOM
      1  N        -24.0250   21.6620  -19.7320 N.3    76  LYS76      -0.1245
      2  CA       -24.3920   23.0680  -19.8820 C.3    76  LYS76       0.1561
      3  C        -23.3890   23.8120  -20.7390 C.2    76  LYS76       0.2260
      4  O        -23.4790   25.0330  -20.8800 O.2    76  LYS76      -0.2867
      5  CB       -24.4360   23.7450  -18.5170 C.3    76  LYS76       0.0271
      6  CG       -23.1240   23.6280  -17.7510 C.3    76  LYS76       0.0035
      7  CD       -22.9370   24.7790  -16.7660 C.3    76  LYS76       0.0206
      8  CE       -21.8830   24.4500  -15.7190 C.3    76  LYS76       0.1093
      9  NZ       -22.3880   23.4180  -14.7730 N.3    76  LYS76      -0.1314
     10  N        -24.8300   22.0330  -10.7500 N.3   126  ASP126     -0.1225
     11  CA       -23.5170   21.4750  -10.4820 C.3   126  ASP126      0.1805
     12  C        -22.5180   22.5860  -10.2270 C.2   126  ASP126      0.2598
     13  O        -22.5230   23.6200  -10.8960 O.2   126  ASP126     -0.2718
     14  CB       -23.0510   20.5720  -11.6350 C.3   126  ASP126      0.1424
     15  CG       -22.6610   19.1870  -11.1550 C.2   126  ASP126      0.3668
     16  OD1      -22.9950   18.8610   -9.9960 O.co2 126  ASP126     -0.2456
     17  OD2      -22.0270   18.4290  -11.9140 O.co2 126  ASP126     -0.2456
     18  N        -21.6840   22.3680   -9.2220 N.am  127  THR127     -0.1939
     19  CA       -20.5720   23.2560   -8.9410 C.3   127  THR127      0.2028
     20  C        -19.4950   22.4320   -8.2720 C.2   127  THR127      0.2642
     21  O        -19.7440   21.3180   -7.8270 O.2   127  THR127     -0.2714
     22  CB       -20.9740   24.4110   -8.0090 C.3   127  THR127      0.1808
     23  OG1      -19.7930   25.0750   -7.5170 O.3   127  THR127     -0.2208
     24  CG2      -21.7880   23.8690   -6.8350 C.3   127  THR127      0.0379
     25  N        -18.2960   22.9880   -8.2220 N.am  128  ALA128     -0.1963
     26  CA       -17.1700   22.3310   -7.5900 C.3   128  ALA128      0.1728
     27  C        -17.4380   22.1570   -6.1050 C.2   128  ALA128      0.2616
     28  O        -17.1430   21.1210   -5.5270 O.2   128  ALA128     -0.2715
     29  CB       -15.8960   23.1530   -7.8110 C.3   128  ALA128      0.0334
     30  N        -18.0120   23.1830   -5.4980 N.am  129  HIS129     -0.1973
     31  CA       -18.1430   23.2200   -4.0580 C.3   129  HIS129      0.1656
     32  C        -19.5810   23.5480   -3.7230 C.2   129  HIS129      0.2291
     33  O        -19.9330   24.7110   -3.5620 O.2   129  HIS129     -0.2864
     34  CB       -17.1870   24.2730   -3.4880 C.3   129  HIS129      0.0771
     35  CG       -17.0510   24.2490   -1.9940 C.ar  129  HIS129      0.0820
     36  ND1      -17.3510   23.1420   -1.2290 N.ar  129  HIS129     -0.2267
     37  CD2      -16.6360   25.2030   -1.1240 C.ar  129  HIS129      0.1154
     38  CE1      -17.1250   23.4140    0.0460 C.ar  129  HIS129      0.1986
     39  NE2      -16.6960   24.6600    0.1370 N.ar  129  HIS129     -0.2212
     40  N        -10.4140   13.5410  -12.8530 N.3   183  CYS183     -0.1235
     41  CA       -10.3600   14.6420  -11.8880 C.3   183  CYS183      0.1677
     42  C         -8.9710   14.8820  -11.2710 C.2   183  CYS183      0.2270
     43  O         -8.2640   13.9310  -10.9140 O.2   183  CYS183     -0.2867
     44  CB       -11.3940   14.3860  -10.7970 C.3   183  CYS183      0.0956
     45  SG       -11.3690   15.5580   -9.4400 S.3   183  CYS183     -0.0801
     46  N         -8.7100   17.6050   -8.9270 N.3   185  THR185     -0.1218
     47  CA        -9.0620   18.3960   -7.7420 C.3   185  THR185      0.1862
     48  C         -8.2150   18.0330   -6.5220 C.2   185  THR185      0.2287
     49  O         -7.6900   18.9090   -5.8250 O.2   185  THR185     -0.2866
     50  CB       -10.5780   18.2380   -7.3810 C.3   185  THR185      0.1770
     51  OG1      -11.3810   18.9710   -8.3110 O.3   185  THR185     -0.2211
     52  CG2      -10.8820   18.7510   -5.9850 C.3   185  THR185      0.0375
     53  N        -14.9140   18.3360  -17.2550 N.3   266  MET266     -0.1230
     54  CA       -15.5100   19.6230  -17.5960 C.3   266  MET266      0.1702
     55  C        -14.6260   20.7600  -17.1280 C.2   266  MET266      0.2592
     56  O        -14.7640   21.8870  -17.5880 O.2   266  MET266     -0.2718
     57  CB       -16.9070   19.7620  -16.9980 C.3   266  MET266      0.0401
     58  CG       -17.9470   18.8690  -17.6510 C.3   266  MET266      0.0596
     59  SD       -18.3380   19.3370  -19.3450 S.3   266  MET266     -0.1393
     60  CE       -19.2850   20.8470  -19.0900 C.3   266  MET266      0.0692
     61  N        -13.7250   20.4520  -16.2030 N.am  267  GLY267     -0.1957
     62  CA       -12.7910   21.4260  -15.6660 C.3   267  GLY267      0.1869
     63  C        -11.4550   21.3910  -16.3850 C.2   267  GLY267      0.2309
     64  O        -10.5030   22.0430  -15.9740 O.2   267  GLY267     -0.2863
     65  N        -13.1010   23.8170  -21.0120 N.3   272  MET272     -0.1245
     66  CA       -13.2290   25.2410  -20.7310 C.3   272  MET272      0.1570
     67  C        -12.8690   26.1600  -21.9120 C.2   272  MET272      0.2261
     68  O        -13.4790   27.2090  -22.0720 O.2   272  MET272     -0.2867
     69  CB       -12.3980   25.6090  -19.5030 C.3   272  MET272      0.0387
     70  CG       -12.8190   24.8770  -18.2470 C.3   272  MET272      0.0595
     71  SD       -11.7160   25.1680  -16.8490 S.3   272  MET272     -0.1393
     72  CE       -11.4380   26.9360  -17.0460 C.3   272  MET272      0.0692
     73  N         -6.6980   27.8730  -14.2160 N.3   276  VAL276     -0.1231
     74  CA        -6.1660   26.6990  -13.5220 C.3   276  VAL276      0.1678
     75  C         -7.2070   25.5900  -13.5140 C.2   276  VAL276      0.2434
     76  O         -8.2330   25.6920  -12.8420 O.2   276  VAL276     -0.2733
     77  CB        -5.7540   27.0420  -12.0760 C.3   276  VAL276      0.0265
     78  CG1       -5.2390   25.8050  -11.3510 C.3   276  VAL276      0.0020
     79  CG2       -4.7010   28.1180  -12.0840 C.3   276  VAL276      0.0020
     80  N         -6.9550   24.5330  -14.2910 N.am  277  PRO277     -0.2718
     81  CA        -7.9190   23.4400  -14.4440 C.3   277  PRO277      0.1535
     82  C         -7.9170   22.4650  -13.2610 C.2   277  PRO277      0.2598
     83  O         -6.9540   22.4070  -12.5010 O.2   277  PRO277     -0.2715
     84  CB        -7.4360   22.7390  -15.7140 C.3   277  PRO277      0.0310
     85  CG        -5.9630   22.9840  -15.7180 C.3   277  PRO277      0.0237
     86  CD        -5.7840   24.3700  -15.1640 C.3   277  PRO277      0.0939
     87  N         -9.0050   21.7170  -13.1090 N.am  278  GLU278     -0.1978
     88  CA        -9.1120   20.7050  -12.0590 C.3   278  GLU278      0.1602
     89  C         -9.4650   19.3670  -12.6950 C.2   278  GLU278      0.2287
     90  O        -10.1500   18.5200  -12.0720 O.2   278  GLU278     -0.2864
     91  CB       -10.1610   21.0940  -11.0050 C.3   278  GLU278      0.0415
     92  CG        -9.7130   22.1640  -10.0260 C.3   278  GLU278      0.1163
     93  CD       -10.7940   22.5190   -9.0060 C.2   278  GLU278      0.3649
     94  OE1      -10.8070   23.6910   -8.5690 O.co2 278  GLU278     -0.2457
     95  OE2      -11.6210   21.6370   -8.6300 O.co2 278  GLU278     -0.2457
@<TRIPOS>BOND
     1    68    67    2
     2    67    66    1
     3    65    66    1
     4     4     3    2
     5     3     2    1
     6    66    69    1
     7     2     1    1
     8     2     5    1
     9    69    70    1
    10    59    60    1
    11    59    58    1
    12     5     6    1
    13    70    71    1
    14     6     7    1
    15    58    57    1
    16    54    53    1
    17    54    55    1
    18    54    57    1
    19    56    55    2
    20    55    61   am
    21    72    71    1
    22     7     8    1
    23    63    64    2
    24    63    62    1
    25    61    62    1
    26     8     9    1
    27    85    84    1
    28    85    86    1
    29    84    81    1
    30    86    80    1
    31    81    80    1
    32    81    82    1
    33    80    75   am
    34    73    74    1
    35    74    75    1
    36    74    77    1
    37    75    76    2
    38    82    87   am
    39    82    83    2
    40    87    88    1
    41    40    41    1
    42    89    90    2
    43    89    88    1
    44    79    77    1
    45    77    78    1
    46    88    91    1
    47    17    15   ar
    48    41    42    1
    49    41    44    1
    50    14    15    1
    51    14    11    1
    52    42    43    2
    53    15    16   ar
    54    91    92    1
    55    13    12    2
    56    44    45    1
    57    10    11    1
    58    11    12    1
    59    12    18   am
    60    92    93    1
    61    18    19    1
    62    93    95   ar
    63    93    94   ar
    64    19    20    1
    65    19    22    1
    66    46    47    1
    67    51    50    1
    68    20    25   am
    69    20    21    2
    70    25    26    1
    71    22    23    1
    72    22    24    1
    73    29    26    1
    74    47    50    1
    75    47    48    1
    76    26    27    1
    77    50    52    1
    78    48    49    2
    79    27    28    2
    80    27    30   am
    81    30    31    1
    82    31    32    1
    83    31    34    1
    84    32    33    2
    85    34    35    1
    86    35    36   ar
    87    35    37   ar
    88    36    38   ar
    89    37    39   ar
    90    38    39   ar
