@<TRIPOS>MOLECULE
tmp/4my8A01.pdb
 120 111 0 0 0
SMALL
GASTEIGER

@<TRIPOS>ATOM
      1  N          5.5510   -7.3770   37.5900 N.3    76  LYS76      -0.1245
      2  CA         4.7780   -7.2890   38.8190 C.3    76  LYS76       0.1561
      3  C          3.7360   -8.3970   38.9930 C.2    76  LYS76       0.2260
      4  O          2.9970   -8.3950   39.9770 O.2    76  LYS76      -0.2867
      5  CB         4.0860   -5.9310   38.9000 C.3    76  LYS76       0.0271
      6  CG         2.9850   -5.7580   37.8700 C.3    76  LYS76       0.0035
      7  CD         2.4520   -4.3350   37.8750 C.3    76  LYS76       0.0206
      8  CE         1.3480   -4.1310   36.8450 C.3    76  LYS76       0.1093
      9  NZ         0.0800   -4.7920   37.2590 N.3    76  LYS76      -0.1314
     10  N          3.5900    1.8980   35.2630 N.3   126  ASP126     -0.1225
     11  CA         3.0040    1.9420   33.9360 C.3   126  ASP126      0.1805
     12  C          1.6920    1.2010   33.8260 C.2   126  ASP126      0.2598
     13  O          1.5140    0.1250   34.3850 O.2   126  ASP126     -0.2718
     14  CB         4.0160    1.5770   32.8200 C.3   126  ASP126      0.1424
     15  CG         3.9330    0.1200   32.3740 C.2   126  ASP126      0.3668
     16  OD1        3.0260   -0.2240   31.5770 O.co2 126  ASP126     -0.2456
     17  OD2        4.8070   -0.6750   32.7830 O.co2 126  ASP126     -0.2456
     18  N          0.7660    1.8360   33.1240 N.am  127  THR127     -0.1939
     19  CA        -0.5250    1.2660   32.8240 C.3   127  THR127      0.2028
     20  C         -0.7120    1.3830   31.3240 C.2   127  THR127      0.2642
     21  O          0.0980    2.0050   30.6420 O.2   127  THR127     -0.2714
     22  CB        -1.6400    2.0610   33.5150 C.3   127  THR127      0.1808
     23  OG1       -1.3130    3.4580   33.4600 O.3   127  THR127     -0.2208
     24  CG2       -1.7990    1.6220   34.9780 C.3   127  THR127      0.0379
     25  N         -1.7850    0.7920   30.8170 N.am  128  ALA128     -0.1963
     26  CA        -2.1280    0.9350   29.4250 C.3   128  ALA128      0.1728
     27  C         -2.2810    2.4090   29.0740 C.2   128  ALA128      0.2616
     28  O         -1.7830    2.8650   28.0380 O.2   128  ALA128     -0.2715
     29  CB        -3.4030    0.1780   29.1260 C.3   128  ALA128      0.0334
     30  N         -2.9440    3.1660   29.9430 N.am  129  HIS129     -0.1973
     31  CA        -3.2030    4.5750   29.6670 C.3   129  HIS129      0.1656
     32  C         -2.4630    5.4590   30.6430 C.2   129  HIS129      0.2291
     33  O         -2.9050    5.6470   31.7660 O.2   129  HIS129     -0.2864
     34  CB        -4.7050    4.8830   29.7440 C.3   129  HIS129      0.0771
     35  CG        -5.0890    6.1870   29.1050 C.ar  129  HIS129      0.0820
     36  ND1       -4.2540    6.8730   28.2480 N.ar  129  HIS129     -0.2267
     37  CD2       -6.2250    6.9210   29.1850 C.ar  129  HIS129      0.1154
     38  CE1       -4.8540    7.9760   27.8350 C.ar  129  HIS129      0.1986
     39  NE2       -6.0530    8.0270   28.3850 N.ar  129  HIS129     -0.2212
     40  N         -3.7470    9.4250   32.5440 N.3   132  SER132     -0.1202
     41  CA        -4.9310    9.3110   33.3880 C.3   132  SER132      0.2020
     42  C         -4.6790    9.9390   34.7490 C.2   132  SER132      0.2619
     43  O         -3.5440    9.9920   35.2050 O.2   132  SER132     -0.2717
     44  CB        -5.3350    7.8450   33.5440 C.3   132  SER132      0.2103
     45  OG        -4.2910    7.1010   34.1370 O.3   132  SER132     -0.2182
     46  N         -5.7370   10.4230   35.3910 N.am  133  GLN133     -0.1965
     47  CA        -5.6170   11.0760   36.6990 C.3   133  GLN133      0.1733
     48  C         -5.0360   10.1360   37.7530 C.2   133  GLN133      0.2616
     49  O         -4.2620   10.5590   38.6140 O.2   133  GLN133     -0.2715
     50  CB        -6.9790   11.5780   37.1780 C.3   133  GLN133      0.0408
     51  CG        -6.9000   12.5650   38.3330 C.3   133  GLN133      0.0908
     52  CD        -5.9880   13.7310   38.0000 C.2   133  GLN133      0.2608
     53  OE1       -6.1310   14.3730   36.9530 O.2   133  GLN133     -0.2717
     54  NE2       -5.0260   13.9930   38.8760 N.am  133  GLN133     -0.0878
     55  N         -5.4200    8.8650   37.6750 N.am  134  GLY134     -0.1955
     56  CA        -4.8800    7.8390   38.5450 C.3   134  GLY134      0.1869
     57  C         -3.3690    7.7720   38.5150 C.2   134  GLY134      0.2309
     58  O         -2.7230    7.7530   39.5560 O.2   134  GLY134     -0.2863
     59  N          0.1920   -6.7440   20.8320 N.3   183  CYS183     -0.1235
     60  CA        -0.8200   -5.7830   21.2300 C.3   183  CYS183      0.1677
     61  C         -2.0320   -5.8200   20.2960 C.2   183  CYS183      0.2270
     62  O         -1.8770   -5.7470   19.0790 O.2   183  CYS183     -0.2867
     63  CB        -0.1880   -4.3920   21.2340 C.3   183  CYS183      0.0956
     64  SG        -1.3290   -3.0300   21.4090 S.3   183  CYS183     -0.0801
     65  N         -4.7430   -3.7010   20.9980 N.3   185  THR185     -0.1218
     66  CA        -5.4040   -2.4450   21.3230 C.3   185  THR185      0.1862
     67  C         -6.0510   -1.7480   20.1250 C.2   185  THR185      0.2287
     68  O         -7.1960   -1.3110   20.1970 O.2   185  THR185     -0.2866
     69  CB        -4.4080   -1.4590   21.9710 C.3   185  THR185      0.1770
     70  OG1       -3.9580   -1.9900   23.2220 O.3   185  THR185     -0.2211
     71  CG2       -5.0530   -0.1320   22.2090 C.3   185  THR185      0.0375
     72  N         -9.8760   -1.6200   20.6800 N.3   189  ALA189     -0.1245
     73  CA       -10.2440   -0.2640   21.0630 C.3   189  ALA189      0.1562
     74  C        -10.2470    0.7550   19.9220 C.2   189  ALA189      0.2260
     75  O        -10.9120    1.7820   20.0230 O.2   189  ALA189     -0.2867
     76  CB        -9.3230    0.2150   22.1320 C.3   189  ALA189      0.0290
     77  N          0.8170   -8.5650   28.4990 N.3   266  MET266     -0.1230
     78  CA         0.3830   -8.5080   29.8860 C.3   266  MET266      0.1702
     79  C         -1.1220   -8.2290   29.9850 C.2   266  MET266      0.2592
     80  O         -1.7330   -8.3770   31.0540 O.2   266  MET266     -0.2718
     81  CB         1.2150   -7.4860   30.6620 C.3   266  MET266      0.0401
     82  CG         2.6520   -7.9420   30.9180 C.3   266  MET266      0.0596
     83  SD         2.7370   -9.3240   32.0870 S.3   266  MET266     -0.1393
     84  CE         2.7750   -8.4810   33.6720 C.3   266  MET266      0.0692
     85  N         -1.7140   -7.8590   28.8520 N.am  267  GLY267     -0.1957
     86  CA        -3.1540   -7.7120   28.7370 C.3   267  GLY267      0.1869
     87  C         -3.8100   -8.8800   28.0060 C.2   267  GLY267      0.2309
     88  O         -4.9340   -8.7700   27.5040 O.2   267  GLY267     -0.2863
     89  N         -3.5740  -11.5820   32.5360 N.3   272  MET272     -0.1245
     90  CA        -4.5850  -10.9500   33.3800 C.3   272  MET272      0.1570
     91  C         -5.0770  -11.9020   34.4660 C.2   272  MET272      0.2261
     92  O         -5.3850  -11.4790   35.5730 O.2   272  MET272     -0.2867
     93  CB        -5.7720  -10.4600   32.5400 C.3   272  MET272      0.0387
     94  CG        -5.6530   -9.0200   32.0440 C.3   272  MET272      0.0595
     95  SD        -6.8090   -8.6010   30.7100 S.3   272  MET272     -0.1393
     96  CE        -8.2630   -9.5500   31.1570 C.3   272  MET272      0.0692
     97  N        -12.1670   -6.4930   32.1590 N.3   278  LEU278     -0.1231
     98  CA       -11.7740   -5.8140   30.9250 C.3   278  LEU278      0.1693
     99  C        -11.6410   -6.8260   29.7820 C.2   278  LEU278      0.2591
    100  O        -11.3210   -7.9910   30.0090 O.2   278  LEU278     -0.2718
    101  CB       -10.4470   -5.0730   31.1090 C.3   278  LEU278      0.0284
    102  CG       -10.4370   -3.6650   31.7030 C.3   278  LEU278      0.0019
    103  CD1       -9.0180   -3.2360   31.9990 C.3   278  LEU278      0.0001
    104  CD2      -11.0900   -2.6770   30.7560 C.3   278  LEU278      0.0001
    105  N        -11.8940   -6.3840   28.5580 N.am  279  VAL279     -0.1980
    106  CA       -11.6960   -7.2330   27.3920 C.3   279  VAL279      0.1595
    107  C        -10.1910   -7.2990   27.1100 C.2   279  VAL279      0.2287
    108  O         -9.4910   -6.3030   27.2730 O.2   279  VAL279     -0.2864
    109  CB       -12.5070   -6.7020   26.1750 C.3   279  VAL279      0.0276
    110  CG1      -11.9120   -7.1510   24.8440 C.3   279  VAL279      0.0022
    111  CG2      -13.9590   -7.1290   26.2860 C.3   279  VAL279      0.0022
    112  N         -6.5410   -7.1680   25.5400 N.3   281  GLU281     -0.1245
    113  CA        -5.9110   -6.3100   24.5500 C.3   281  GLU281      0.1567
    114  C         -4.5240   -6.8160   24.1490 C.2   281  GLU281      0.2260
    115  O         -3.7230   -6.0710   23.5800 O.2   281  GLU281     -0.2867
    116  CB        -5.8440   -4.8620   25.0470 C.3   281  GLU281      0.0388
    117  CG        -7.1490   -4.1000   24.8610 C.3   281  GLU281      0.1160
    118  CD        -7.1110   -2.7140   25.4600 C.2   281  GLU281      0.3649
    119  OE1       -8.0240   -2.3860   26.2390 O.co2 281  GLU281     -0.2457
    120  OE2       -6.1790   -1.9470   25.1580 O.co2 281  GLU281     -0.2457
@<TRIPOS>BOND
     1    62    61    2
     2    74    75    2
     3    74    73    1
     4    67    68    2
     5    67    66    1
     6    61    60    1
     7    72    73    1
     8    59    60    1
     9    65    66    1
    10    73    76    1
    11    60    63    1
    12    63    64    1
    13    66    69    1
    14    69    71    1
    15    69    70    1
    16   115   114    2
    17   114   113    1
    18   113   116    1
    19   113   112    1
    20   110   109    1
    21   117   116    1
    22   117   118    1
    23   120   118   ar
    24   118   119   ar
    25   109   111    1
    26   109   106    1
    27   107   108    2
    28   107   106    1
    29   106   105    1
    30    88    87    2
    31    38    36   ar
    32    38    39   ar
    33    87    86    1
    34    28    27    2
    35    36    35   ar
    36    39    37   ar
    37    77    78    1
    38   105    99   am
    39    86    85    1
    40    85    79   am
    41    27    26    1
    42    27    30   am
    43    35    37   ar
    44    35    34    1
    45    29    26    1
    46    26    25    1
    47    31    34    1
    48    31    30    1
    49    31    32    1
    50    99   100    2
    51    99    98    1
    52    78    79    1
    53    78    81    1
    54    79    80    2
    55    21    20    2
    56    32    33    2
    57    81    82    1
    58    95    96    1
    59    95    94    1
    60   104   102    1
    61    25    20   am
    62    82    83    1
    63    98   101    1
    64    98    97    1
    65   101   102    1
    66    20    19    1
    67    16    15   ar
    68   102   103    1
    69    94    93    1
    70    83    84    1
    71    15    17   ar
    72    15    14    1
    73    89    90    1
    74    93    90    1
    75    40    41    1
    76    14    11    1
    77    19    18    1
    78    19    22    1
    79    18    12   am
    80    90    91    1
    81    41    44    1
    82    41    42    1
    83    23    22    1
    84    22    24    1
    85    44    45    1
    86    12    11    1
    87    12    13    2
    88    11    10    1
    89    91    92    2
    90    42    43    2
    91    42    46   am
    92    46    47    1
    93    47    50    1
    94    47    48    1
    95     8     9    1
    96     8     7    1
    97    53    52    2
    98    50    51    1
    99     1     2    1
   100    55    48   am
   101    55    56    1
   102    48    49    2
   103     6     7    1
   104     6     5    1
   105    52    51    1
   106    52    54   am
   107    57    56    1
   108    57    58    2
   109     2     5    1
   110     2     3    1
   111     3     4    2
