@<TRIPOS>MOLECULE
tmp/4my9E01.pdb
 94 86 0 0 0
SMALL
GASTEIGER

@<TRIPOS>ATOM
      1  N         16.0830   28.8440   63.4780 N.3    77  LYS77      -0.1245
      2  CA        16.2980   30.2850   63.6110 C.3    77  LYS77       0.1561
      3  C         16.1970   30.8030   65.0460 C.2    77  LYS77       0.2260
      4  O         16.3560   31.9990   65.2900 O.2    77  LYS77      -0.2867
      5  CB        15.3450   31.0620   62.6910 C.3    77  LYS77       0.0271
      6  CG        13.8630   30.8290   62.9600 C.3    77  LYS77       0.0035
      7  CD        13.0380   31.1150   61.7130 C.3    77  LYS77       0.0206
      8  CE        11.5460   31.0160   61.9830 C.3    77  LYS77       0.1093
      9  NZ        11.0450   32.2040   62.7280 N.3    77  LYS77      -0.1314
     10  N          7.3650   30.2130   57.5230 N.3   128  THR128     -0.1203
     11  CA         6.2360   30.9540   58.0580 C.3   128  THR128      0.1994
     12  C          5.0640   29.9990   58.2320 C.2   128  THR128      0.2618
     13  O          5.0510   28.9100   57.6590 O.2   128  THR128     -0.2717
     14  CB         5.8150   32.0880   57.1190 C.3   128  THR128      0.1784
     15  OG1        4.7180   32.8080   57.6980 O.3   128  THR128     -0.2211
     16  CG2        5.3880   31.5190   55.7820 C.3   128  THR128      0.0376
     17  N          4.0820   30.4070   59.0260 N.am  129  ALA129     -0.1965
     18  CA         2.9070   29.5800   59.2600 C.3   129  ALA129      0.1728
     19  C          1.9870   29.6110   58.0480 C.2   129  ALA129      0.2616
     20  O          1.3180   28.6280   57.7360 O.2   129  ALA129     -0.2715
     21  CB         2.1690   30.0480   60.5040 C.3   129  ALA129      0.0334
     22  N          1.9630   30.7480   57.3640 N.am  130  HIS130     -0.1973
     23  CA         1.0920   30.9250   56.2110 C.3   130  HIS130      0.1656
     24  C          1.8980   31.3830   55.0050 C.2   130  HIS130      0.2291
     25  O          2.1300   32.5780   54.8260 O.2   130  HIS130     -0.2864
     26  CB        -0.0000   31.9470   56.5260 C.3   130  HIS130      0.0771
     27  CG        -1.1770   31.8780   55.6050 C.ar  130  HIS130      0.0820
     28  ND1       -1.3380   30.8720   54.6760 N.ar  130  HIS130     -0.2267
     29  CD2       -2.2540   32.6870   55.4710 C.ar  130  HIS130      0.1154
     30  CE1       -2.4630   31.0650   54.0120 C.ar  130  HIS130      0.1986
     31  NE2       -3.0380   32.1610   54.4750 N.ar  130  HIS130     -0.2212
     32  N          0.5910   34.0860   52.5070 N.3   133  SER133     -0.1217
     33  CA         0.4060   35.4620   52.9580 C.3   133  SER133      0.1889
     34  C          1.2660   36.4020   52.1260 C.2   133  SER133      0.2288
     35  O          2.3100   36.0030   51.6080 O.2   133  SER133     -0.2866
     36  CB         0.7340   35.6110   54.4450 C.3   133  SER133      0.2089
     37  OG         2.1190   35.4480   54.6820 O.3   133  SER133     -0.2183
     38  N          1.8520   19.5460   66.4280 N.3   184  CYS184     -0.1235
     39  CA         1.0860   20.6950   65.9500 C.3   184  CYS184      0.1677
     40  C         -0.3640   20.7290   66.4350 C.2   184  CYS184      0.2270
     41  O         -1.0350   19.7010   66.4800 O.2   184  CYS184     -0.2867
     42  CB         1.0980   20.7040   64.4190 C.3   184  CYS184      0.0956
     43  SG        -0.0280   21.8970   63.6520 S.3   184  CYS184     -0.0801
     44  N         -2.3180   23.5760   65.2410 N.3   186  THR186     -0.1218
     45  CA        -2.8540   24.6170   64.3630 C.3   186  THR186      0.1862
     46  C         -4.2670   24.3080   63.8720 C.2   186  THR186      0.2287
     47  O         -5.1370   25.1770   63.8780 O.2   186  THR186     -0.2866
     48  CB        -1.9230   24.8650   63.1500 C.3   186  THR186      0.1770
     49  OG1       -0.7460   25.5580   63.5830 O.3   186  THR186     -0.2211
     50  CG2       -2.6170   25.6970   62.0800 C.3   186  THR186      0.0375
     51  N          7.6940   24.7480   67.2730 N.3   267  MET267     -0.1230
     52  CA         8.2910   26.0780   67.2420 C.3   267  MET267      0.1702
     53  C          7.2660   27.1460   67.6200 C.2   267  MET267      0.2592
     54  O          7.6220   28.2510   68.0300 O.2   267  MET267     -0.2718
     55  CB         8.8960   26.3550   65.8680 C.3   267  MET267      0.0401
     56  CG        10.0910   25.4730   65.5490 C.3   267  MET267      0.0596
     57  SD        11.5270   25.8570   66.5750 S.3   267  MET267     -0.1393
     58  CE        12.1270   27.3440   65.7800 C.3   267  MET267      0.0692
     59  N          5.9900   26.7990   67.4890 N.am  268  GLY268     -0.1957
     60  CA         4.9090   27.6550   67.9330 C.3   268  GLY268      0.1869
     61  C          4.3330   27.2230   69.2730 C.2   268  GLY268      0.2309
     62  O          3.1620   27.4730   69.5650 O.2   268  GLY268     -0.2863
     63  N          8.4850   29.8390   71.7890 N.3   273  MET273     -0.1245
     64  CA         8.2500   31.2600   71.5510 C.3   273  MET273      0.1570
     65  C          9.0030   32.1230   72.5550 C.2   273  MET273      0.2261
     66  O          9.5960   33.1360   72.1890 O.2   273  MET273     -0.2867
     67  CB         6.7590   31.5810   71.6140 C.3   273  MET273      0.0387
     68  CG         5.9360   30.9540   70.5110 C.3   273  MET273      0.0595
     69  SD         4.1770   31.2060   70.8050 S.3   273  MET273     -0.1393
     70  CE         3.4790   30.6620   69.2540 C.3   273  MET273      0.0692
     71  N          0.8010   36.4970   70.2780 N.3   276  LEU276     -0.1231
     72  CA         0.1890   35.4490   69.4670 C.3   276  LEU276      0.1693
     73  C         -0.0110   34.1550   70.2480 C.2   276  LEU276      0.2591
     74  O          0.8320   33.7560   71.0520 O.2   276  LEU276     -0.2718
     75  CB         1.0080   35.1790   68.2020 C.3   276  LEU276      0.0284
     76  CG         0.6060   35.9640   66.9500 C.3   276  LEU276      0.0019
     77  CD1        0.7590   37.4640   67.1710 C.3   276  LEU276      0.0001
     78  CD2        1.4120   35.5070   65.7430 C.3   276  LEU276      0.0001
     79  N         -1.1390   33.5040   69.9870 N.am  277  VAL277     -0.1980
     80  CA        -1.5390   32.2870   70.6840 C.3   277  VAL277      0.1595
     81  C         -0.7770   31.0690   70.1510 C.2   277  VAL277      0.2287
     82  O         -0.5260   30.9690   68.9480 O.2   277  VAL277     -0.2864
     83  CB        -3.0720   32.0980   70.5670 C.3   277  VAL277      0.0276
     84  CG1       -3.4360   30.6800   70.1610 C.3   277  VAL277      0.0022
     85  CG2       -3.7520   32.4920   71.8660 C.3   277  VAL277      0.0022
     86  N          0.4320   27.4190   68.8100 N.3   279  GLU279     -0.1245
     87  CA        -0.1310   26.5000   67.8280 C.3   279  GLU279      0.1567
     88  C          0.6700   25.2050   67.8190 C.2   279  GLU279      0.2260
     89  O          0.6100   24.4220   66.8690 O.2   279  GLU279     -0.2867
     90  CB        -0.1360   27.1370   66.4360 C.3   279  GLU279      0.0388
     91  CG        -0.9560   28.4140   66.3450 C.3   279  GLU279      0.1160
     92  CD        -0.9790   29.0050   64.9490 C.2   279  GLU279      0.3649
     93  OE1       -1.0210   30.2500   64.8340 O.co2 279  GLU279     -0.2457
     94  OE2       -0.9610   28.2280   63.9690 O.co2 279  GLU279     -0.2457
@<TRIPOS>BOND
     1    35    34    2
     2    34    33    1
     3    32    33    1
     4    33    36    1
     5    30    31   ar
     6    30    28   ar
     7    36    37    1
     8    31    29   ar
     9    28    27   ar
    10    25    24    2
    11    24    23    1
    12    29    27   ar
    13    27    26    1
    14    16    14    1
    15    23    26    1
    16    23    22    1
    17    14    15    1
    18    14    11    1
    19    22    19   am
    20    10    11    1
    21    13    12    2
    22    20    19    2
    23    19    18    1
    24    11    12    1
    25    12    17   am
    26    17    18    1
    27    18    21    1
    28     7     8    1
    29     7     6    1
    30     8     9    1
    31    50    48    1
    32     5     6    1
    33     5     2    1
    34    48    49    1
    35    48    45    1
    36     1     2    1
    37     2     3    1
    38    43    42    1
    39    46    47    2
    40    46    45    1
    41    94    92   ar
    42    45    44    1
    43    42    39    1
    44    93    92   ar
    45    92    91    1
    46     3     4    2
    47    56    55    1
    48    56    57    1
    49    78    76    1
    50    58    57    1
    51    55    52    1
    52    39    38    1
    53    39    40    1
    54    91    90    1
    55    40    41    2
    56    90    87    1
    57    89    88    2
    58    76    77    1
    59    76    75    1
    60    52    51    1
    61    52    53    1
    62    59    53   am
    63    59    60    1
    64    53    54    2
    65    88    87    1
    66    87    86    1
    67    60    61    1
    68    75    72    1
    69    82    81    2
    70    70    69    1
    71    61    62    2
    72    72    73    1
    73    72    71    1
    74    79    73   am
    75    79    80    1
    76    81    80    1
    77    84    83    1
    78    73    74    2
    79    68    69    1
    80    68    67    1
    81    83    80    1
    82    83    85    1
    83    64    67    1
    84    64    63    1
    85    64    65    1
    86    66    65    2
