@<TRIPOS>MOLECULE
tmp/4myaB01.pdb
 114 104 0 0 0
SMALL
GASTEIGER

@<TRIPOS>ATOM
      1  N         18.8410   47.1660  -34.6820 N.3    76  LYS76      -0.1245
      2  CA        17.5380   47.7970  -34.5390 C.3    76  LYS76       0.1561
      3  C         17.2220   48.7950  -35.6540 C.2    76  LYS76       0.2260
      4  O         16.2210   49.4980  -35.5790 O.2    76  LYS76      -0.2867
      5  CB        17.4430   48.4940  -33.1790 C.3    76  LYS76       0.0271
      6  CG        18.3370   49.7190  -33.0540 C.3    76  LYS76       0.0035
      7  CD        18.4450   50.1880  -31.6050 C.3    76  LYS76       0.0206
      8  CE        19.4080   51.3550  -31.4620 C.3    76  LYS76       0.1093
      9  NZ        18.9590   52.5320  -32.2490 N.3    76  LYS76      -0.1314
     10  N         22.6260   51.4710  -26.0970 N.3   127  THR127     -0.1203
     11  CA        22.7290   52.9270  -26.0940 C.3   127  THR127      0.1994
     12  C         24.1880   53.3450  -26.0770 C.2   127  THR127      0.2618
     13  O         25.0550   52.5850  -25.6340 O.2   127  THR127     -0.2717
     14  CB        22.0640   53.5470  -24.8550 C.3   127  THR127      0.1784
     15  OG1       22.8210   53.2040  -23.6860 O.3   127  THR127     -0.2211
     16  CG2       20.6630   53.0320  -24.6950 C.3   127  THR127      0.0376
     17  N         24.4530   54.5550  -26.5570 N.am  128  ALA128     -0.1965
     18  CA        25.8090   55.1020  -26.5060 C.3   128  ALA128      0.1728
     19  C         26.2570   55.3130  -25.0660 C.2   128  ALA128      0.2616
     20  O         27.4280   55.1500  -24.7580 O.2   128  ALA128     -0.2715
     21  CB        25.8820   56.4140  -27.2610 C.3   128  ALA128      0.0334
     22  N         25.3210   55.6840  -24.1930 N.am  129  HIS129     -0.1973
     23  CA        25.6500   56.0120  -22.7990 C.3   129  HIS129      0.1656
     24  C         24.6560   55.3580  -21.8330 C.2   129  HIS129      0.2291
     25  O         23.6410   55.9620  -21.4680 O.2   129  HIS129     -0.2864
     26  CB        25.6520   57.5350  -22.6150 C.3   129  HIS129      0.0771
     27  CG        26.2180   57.9970  -21.3090 C.ar  129  HIS129      0.0820
     28  ND1       27.1230   57.2550  -20.5790 N.ar  129  HIS129     -0.2267
     29  CD2       26.0020   59.1260  -20.5960 C.ar  129  HIS129      0.1154
     30  CE1       27.4470   57.9130  -19.4820 C.ar  129  HIS129      0.1986
     31  NE2       26.7750   59.0500  -19.4650 N.ar  129  HIS129     -0.2212
     32  N         22.5080   56.3320  -17.6950 N.3   132  SER132     -0.1217
     33  CA        21.4950   57.3770  -17.6770 C.3   132  SER132      0.1889
     34  C         20.3490   56.9190  -16.8010 C.2   132  SER132      0.2288
     35  O         20.1380   55.7140  -16.6420 O.2   132  SER132     -0.2866
     36  CB        20.9760   57.6430  -19.0890 C.3   132  SER132      0.2089
     37  OG        22.0190   58.0550  -19.9580 O.3   132  SER132     -0.2183
     38  N         25.8170   50.8050  -23.2980 N.3   155  ASN155     -0.1240
     39  CA        27.1520   50.4250  -22.8420 C.3   155  ASN155      0.1653
     40  C         27.6450   51.2750  -21.6860 C.2   155  ASN155      0.2266
     41  O         27.3000   52.4560  -21.5640 O.2   155  ASN155     -0.2867
     42  CB        28.1710   50.5170  -23.9870 C.3   155  ASN155      0.1155
     43  CG        28.1670   49.2900  -24.8660 C.2   155  ASN155      0.2627
     44  OD1       27.1630   48.5850  -24.9530 O.2   155  ASN155     -0.2716
     45  ND2       29.3050   49.0110  -25.5070 N.am  155  ASN155     -0.0877
     46  N         33.0480   51.9390  -23.9020 N.3   177  ILE177     -0.1231
     47  CA        32.7720   53.3090  -24.3460 C.3   177  ILE177      0.1692
     48  C         34.0230   53.7840  -25.0590 C.2   177  ILE177      0.2592
     49  O         35.0690   54.0060  -24.4300 O.2   177  ILE177     -0.2718
     50  CB        32.4300   54.2660  -23.1760 C.3   177  ILE177      0.0266
     51  CG1       31.1360   53.8450  -22.4660 C.3   177  ILE177      0.0019
     52  CG2       32.3090   55.7220  -23.6940 C.3   177  ILE177      0.0020
     53  CD1       29.9300   53.9320  -23.3330 C.3   177  ILE177      0.0001
     54  N         33.9380   53.8670  -26.3840 N.am  178  GLY178     -0.1957
     55  CA        35.0610   54.3070  -27.1940 C.3   178  GLY178      0.1869
     56  C         36.0950   53.3590  -27.8060 C.2   178  GLY178      0.2309
     57  O         36.9720   53.8370  -28.5250 O.2   178  GLY178     -0.2863
     58  N         34.8690   53.5390  -34.2240 N.3   183  CYS183     -0.1235
     59  CA        34.3620   54.5230  -33.2740 C.3   183  CYS183      0.1677
     60  C         35.1750   55.8260  -33.3090 C.2   183  CYS183      0.2270
     61  O         36.4040   55.7900  -33.3400 O.2   183  CYS183     -0.2867
     62  CB        34.4040   53.9210  -31.8720 C.3   183  CYS183      0.0956
     63  SG        34.0160   55.0720  -30.5480 S.3   183  CYS183     -0.0801
     64  N         34.0490   58.4010  -31.0620 N.3   185  THR185     -0.1218
     65  CA        33.6430   59.0240  -29.7910 C.3   185  THR185      0.1862
     66  C         34.8220   59.6690  -29.0520 C.2   185  THR185      0.2287
     67  O         34.7160   60.7850  -28.5620 O.2   185  THR185     -0.2866
     68  CB        32.9670   57.9910  -28.8570 C.3   185  THR185      0.1770
     69  OG1       31.7950   57.4710  -29.5020 O.3   185  THR185     -0.2211
     70  CG2       32.5570   58.6250  -27.4930 C.3   185  THR185      0.0375
     71  N         27.4360   52.5120  -36.1220 N.3   266  MET266     -0.1230
     72  CA        26.0060   52.7890  -36.0840 C.3   266  MET266      0.1702
     73  C         25.7720   54.2850  -35.8370 C.2   266  MET266      0.2592
     74  O         24.6560   54.7870  -35.9860 O.2   266  MET266     -0.2718
     75  CB        25.3140   51.9130  -35.0320 C.3   266  MET266      0.0401
     76  CG        25.2140   50.4360  -35.4450 C.3   266  MET266      0.0596
     77  SD        24.0910   50.1880  -36.8450 S.3   266  MET266     -0.1393
     78  CE        22.5100   50.0200  -36.0280 C.3   266  MET266      0.0692
     79  N         26.8450   54.9900  -35.4830 N.am  267  GLY267     -0.1957
     80  CA        26.8030   56.4360  -35.3240 C.3   267  GLY267      0.1869
     81  C         27.4190   57.1840  -36.4960 C.2   267  GLY267      0.2309
     82  O         27.6780   58.3880  -36.4090 O.2   267  GLY267     -0.2863
     83  N         23.0830   56.3970  -39.5180 N.3   272  MET272     -0.1245
     84  CA        22.1400   57.3320  -38.9170 C.3   272  MET272      0.1570
     85  C         21.0580   57.7980  -39.8960 C.2   272  MET272      0.2261
     86  O         19.9510   58.1390  -39.4870 O.2   272  MET272     -0.2867
     87  CB        22.8720   58.5180  -38.3000 C.3   272  MET272      0.0387
     88  CG        23.7520   58.1150  -37.1110 C.3   272  MET272      0.0595
     89  SD        24.1850   59.5070  -36.0570 S.3   272  MET272     -0.1393
     90  CE        22.7440   59.5980  -34.9940 C.3   272  MET272      0.0692
     91  N         22.9000   65.6340  -33.6290 N.3   276  LEU276     -0.1231
     92  CA        24.1070   64.9250  -33.2230 C.3   276  LEU276      0.1693
     93  C         25.1110   64.8210  -34.3590 C.2   276  LEU276      0.2591
     94  O         24.7530   64.5060  -35.4920 O.2   276  LEU276     -0.2718
     95  CB        23.7600   63.5110  -32.7500 C.3   276  LEU276      0.0284
     96  CG        22.8000   63.3230  -31.5740 C.3   276  LEU276      0.0019
     97  CD1       22.3160   61.8760  -31.5350 C.3   276  LEU276      0.0001
     98  CD2       23.4620   63.6970  -30.2600 C.3   276  LEU276      0.0001
     99  N         26.3770   65.0690  -34.0480 N.am  277  VAL277     -0.1980
    100  CA        27.4350   64.8750  -35.0280 C.3   277  VAL277      0.1595
    101  C         27.8120   63.4020  -34.9790 C.2   277  VAL277      0.2287
    102  O         27.6650   62.7650  -33.9380 O.2   277  VAL277     -0.2864
    103  CB        28.6600   65.7670  -34.7300 C.3   277  VAL277      0.0276
    104  CG1       28.2800   67.2370  -34.8430 C.3   277  VAL277      0.0022
    105  CG2       29.2180   65.4690  -33.3490 C.3   277  VAL277      0.0022
    106  N         29.5660   59.8240  -34.5820 N.3   279  GLU279     -0.1245
    107  CA        30.5560   59.2840  -33.6510 C.3   279  GLU279      0.1567
    108  C         31.0780   57.9440  -34.1570 C.2   279  GLU279      0.2260
    109  O         31.6230   57.1330  -33.3960 O.2   279  GLU279     -0.2867
    110  CB        29.9610   59.1260  -32.2580 C.3   279  GLU279      0.0388
    111  CG        29.7740   60.4360  -31.5250 C.3   279  GLU279      0.1160
    112  CD        29.2960   60.2250  -30.0960 C.2   279  GLU279      0.3649
    113  OE1       28.4110   60.9830  -29.6610 O.co2 279  GLU279     -0.2457
    114  OE2       29.8030   59.3070  -29.4060 O.co2 279  GLU279     -0.2457
@<TRIPOS>BOND
     1    85    86    2
     2    85    84    1
     3    83    84    1
     4    84    87    1
     5    87    88    1
     6    88    89    1
     7    77    78    1
     8    77    76    1
     9    81    82    2
    10    81    80    1
    11    71    72    1
    12    72    73    1
    13    72    75    1
    14    89    90    1
    15    74    73    2
    16    73    79   am
    17     3     4    2
    18     3     2    1
    19    94    93    2
    20    79    80    1
    21    76    75    1
    22   100   101    1
    23   100   103    1
    24   100    99    1
    25   101   102    2
    26   104   103    1
    27   103   105    1
    28     1     2    1
    29   106   107    1
    30     2     5    1
    31    93    99   am
    32    93    92    1
    33    58    59    1
    34   108   107    1
    35   108   109    2
    36   107   110    1
    37    91    92    1
    38    61    60    2
    39    60    59    1
    40    59    62    1
    41    92    95    1
    42     5     6    1
    43     6     7    1
    44    95    96    1
    45   110   111    1
    46     9     8    1
    47    62    63    1
    48     7     8    1
    49    96    97    1
    50    96    98    1
    51   111   112    1
    52    64    65    1
    53   112   113   ar
    54   112   114   ar
    55    65    66    1
    56    65    68    1
    57    69    68    1
    58    66    67    2
    59    68    70    1
    60    57    56    2
    61    56    55    1
    62    21    18    1
    63    55    54    1
    64    17    18    1
    65    17    12   am
    66    18    19    1
    67    54    48   am
    68    10    11    1
    69    11    12    1
    70    11    14    1
    71    12    13    2
    72    45    43   am
    73    19    20    2
    74    19    22   am
    75    48    49    2
    76    48    47    1
    77    44    43    2
    78    43    42    1
    79    14    16    1
    80    14    15    1
    81    47    46    1
    82    47    50    1
    83    22    23    1
    84    42    39    1
    85    52    50    1
    86    53    51    1
    87    38    39    1
    88    50    51    1
    89    39    40    1
    90    23    26    1
    91    23    24    1
    92    26    27    1
    93    24    25    2
    94    40    41    2
    95    27    29   ar
    96    27    28   ar
    97    29    31   ar
    98    28    30   ar
    99    37    36    1
   100    30    31   ar
   101    36    33    1
   102    32    33    1
   103    33    34    1
   104    34    35    2
