@<TRIPOS>MOLECULE
tmp/4myhC00.pdb
 117 108 0 0 0
SMALL
GASTEIGER

@<TRIPOS>ATOM
      1  N         55.6580  -52.8870  -94.5570 N.3   180  THR180     -0.1218
      2  CA        54.3320  -52.4270  -94.1660 C.3   180  THR180      0.1862
      3  C         54.2590  -50.8820  -94.1130 C.2   180  THR180      0.2287
      4  O         53.2530  -50.2700  -94.5240 O.2   180  THR180     -0.2866
      5  CB        53.8970  -53.1440  -92.8430 C.3   180  THR180      0.1770
      6  OG1       52.5040  -53.4980  -92.9090 O.3   180  THR180     -0.2211
      7  CG2       54.2360  -52.3170  -91.5700 C.3   180  THR180      0.0375
      8  N         53.9030  -49.8400  -97.5760 N.3   183  ARG183     -0.1245
      9  CA        52.6690  -50.1560  -98.2820 C.3   183  ARG183      0.1563
     10  C         51.4220  -49.4230  -97.7540 C.2   183  ARG183      0.2260
     11  O         50.3140  -49.5940  -98.2920 O.2   183  ARG183     -0.2867
     12  CB        52.4260  -51.6770  -98.3190 C.3   183  ARG183      0.0307
     13  CG        51.8270  -52.2990  -97.0390 C.3   183  ARG183      0.0489
     14  CD        51.4160  -53.7650  -97.3030 C.3   183  ARG183      0.2205
     15  NE        49.9930  -54.0330  -97.0360 N.pl3 183  ARG183     -0.0865
     16  CZ        49.0500  -54.0910  -97.9770 C.cat 183  ARG183      0.5346
     17  NH1       49.3660  -53.8570  -99.2400 N.pl3 183  ARG183      0.1354
     18  NH2       47.7860  -54.3420  -97.6550 N.pl3 183  ARG183      0.1354
     19  N         46.6140  -47.4300  -98.9040 N.3   187  ARG187     -0.1245
     20  CA        45.3200  -47.3270  -98.2180 C.3   187  ARG187      0.1563
     21  C         45.0280  -45.8560  -97.8920 C.2   187  ARG187      0.2260
     22  O         43.8750  -45.4110  -97.9920 O.2   187  ARG187     -0.2867
     23  CB        45.2680  -48.1910  -96.9580 C.3   187  ARG187      0.0307
     24  CG        46.2930  -47.8330  -95.8800 C.3   187  ARG187      0.0489
     25  CD        45.8790  -48.4530  -94.5550 C.3   187  ARG187      0.2205
     26  NE        45.7990  -49.9200  -94.6400 N.pl3 187  ARG187     -0.0865
     27  CZ        44.8110  -50.6520  -94.1150 C.cat 187  ARG187      0.5346
     28  NH1       43.7940  -50.0540  -93.4840 N.pl3 187  ARG187      0.1354
     29  NH2       44.8190  -51.9770  -94.2390 N.pl3 187  ARG187      0.1354
     30  N         46.8600  -52.1510 -103.2260 N.3   238  VAL238     -0.1245
     31  CA        46.7680  -52.5450 -101.8340 C.3   238  VAL238      0.1561
     32  C         46.8480  -54.0710 -101.8050 C.2   238  VAL238      0.2260
     33  O         47.6640  -54.6400 -101.0760 O.2   238  VAL238     -0.2867
     34  CB        45.4610  -52.0710 -101.1680 C.3   238  VAL238      0.0252
     35  CG1       45.3350  -52.6990  -99.7760 C.3   238  VAL238      0.0019
     36  CG2       45.4300  -50.5370 -101.0810 C.3   238  VAL238      0.0019
     37  N         49.9540  -56.4840 -100.5780 N.3   242  LEU242     -0.1245
     38  CA        49.6720  -57.4030  -99.4870 C.3   242  LEU242      0.1561
     39  C         50.1780  -58.7940  -99.8490 C.2   242  LEU242      0.2260
     40  O         50.7990  -59.4690  -99.0190 O.2   242  LEU242     -0.2867
     41  CB        48.1780  -57.4780  -99.2090 C.3   242  LEU242      0.0270
     42  CG        47.8690  -58.4320  -98.0550 C.3   242  LEU242      0.0019
     43  CD1       48.3320  -57.8420  -96.7270 C.3   242  LEU242      0.0001
     44  CD2       46.4040  -58.7940  -98.0060 C.3   242  LEU242      0.0001
     45  N         53.7170  -59.0810  -99.2670 N.3   245  LEU245     -0.1231
     46  CA        54.0220  -59.2130  -97.8440 C.3   245  LEU245      0.1693
     47  C         53.8510  -60.6460  -97.3130 C.2   245  LEU245      0.2592
     48  O         54.7280  -61.1800  -96.6330 O.2   245  LEU245     -0.2718
     49  CB        53.1530  -58.2720  -97.0160 C.3   245  LEU245      0.0284
     50  CG        53.4140  -58.4460  -95.5100 C.3   245  LEU245      0.0019
     51  CD1       54.7440  -57.7710  -95.0300 C.3   245  LEU245      0.0001
     52  CD2       52.1960  -58.0430  -94.6540 C.3   245  LEU245      0.0001
     53  N         52.7130  -61.2610  -97.6070 N.am  246  ASN246     -0.1974
     54  CA        52.4460  -62.6030  -97.1080 C.3   246  ASN246      0.1688
     55  C         53.3640  -63.6350  -97.7720 C.2   246  ASN246      0.2292
     56  O         53.7570  -64.6260  -97.1550 O.2   246  ASN246     -0.2864
     57  CB        50.9670  -62.9630  -97.3090 C.3   246  ASN246      0.1181
     58  CG        50.0190  -62.0420  -96.5240 C.2   246  ASN246      0.2629
     59  OD1       50.4380  -61.3470  -95.5920 O.2   246  ASN246     -0.2716
     60  ND2       48.7350  -62.0370  -96.9050 N.am  246  ASN246     -0.0877
     61  N         56.8620  -63.0060  -96.3290 N.3   249  GLN249     -0.1245
     62  CA        56.8920  -63.5350  -94.9720 C.3   249  GLN249      0.1566
     63  C         56.9790  -65.0500  -94.9820 C.2   249  GLN249      0.2260
     64  O         57.6930  -65.6480  -94.1690 O.2   249  GLN249     -0.2867
     65  CB        55.6450  -63.1100  -94.1970 C.3   249  GLN249      0.0367
     66  CG        55.7050  -61.7100  -93.6300 C.3   249  GLN249      0.0905
     67  CD        54.4610  -61.3630  -92.8430 C.2   249  GLN249      0.2608
     68  OE1       53.4090  -62.0170  -92.9750 O.2   249  GLN249     -0.2717
     69  NE2       54.5730  -60.3390  -92.0010 N.am  249  GLN249     -0.0878
     70  N         52.3930  -63.2390  -87.3040 N.3   293  ASN293     -0.1225
     71  CA        51.6330  -62.7260  -88.4540 C.3   293  ASN293      0.1785
     72  C         50.7070  -61.5710  -88.0880 C.2   293  ASN293      0.2597
     73  O         50.3760  -60.7190  -88.9330 O.2   293  ASN293     -0.2718
     74  CB        50.8320  -63.8610  -89.1030 C.3   293  ASN293      0.1169
     75  CG        51.7300  -65.0190  -89.5550 C.2   293  ASN293      0.2627
     76  OD1       52.8580  -64.8000  -90.0370 O.2   293  ASN293     -0.2716
     77  ND2       51.2360  -66.2620  -89.3990 N.am  293  ASN293     -0.0877
     78  N         50.2320  -61.6000  -86.8460 N.am  294  PHE294     -0.1976
     79  CA        49.4580  -60.5080  -86.2830 C.3   294  PHE294      0.1639
     80  C         50.4270  -59.3450  -86.0370 C.2   294  PHE294      0.2290
     81  O         50.3120  -58.2870  -86.6750 O.2   294  PHE294     -0.2864
     82  CB        48.8060  -60.9280  -84.9670 C.3   294  PHE294      0.0560
     83  CG        47.8340  -62.0860  -85.0970 C.ar  294  PHE294     -0.0200
     84  CD1       47.2950  -62.6870  -83.9410 C.ar  294  PHE294     -0.0042
     85  CD2       47.4640  -62.5780  -86.3610 C.ar  294  PHE294     -0.0042
     86  CE1       46.3960  -63.7580  -84.0320 C.ar  294  PHE294     -0.0003
     87  CE2       46.5740  -63.6480  -86.4730 C.ar  294  PHE294     -0.0003
     88  CZ        46.0330  -64.2450  -85.3030 C.ar  294  PHE294     -0.0000
     89  N         52.2480  -57.2090  -86.8320 N.3   296  GLY296     -0.1210
     90  CA        52.7010  -56.5260  -88.0340 C.3   296  GLY296      0.1956
     91  C         51.6600  -55.4800  -88.3690 C.2   296  GLY296      0.2612
     92  O         51.8850  -54.5370  -89.1420 O.2   296  GLY296     -0.2717
     93  N         50.4890  -55.6910  -87.7790 N.am  297  SER297     -0.1952
     94  CA        49.4000  -54.7190  -87.7690 C.3   297  SER297      0.1924
     95  C         49.7750  -53.5610  -86.7980 C.2   297  SER297      0.2314
     96  O         49.2790  -52.4260  -86.9190 O.2   297  SER297     -0.2863
     97  CB        48.0930  -55.4200  -87.3600 C.3   297  SER297      0.2116
     98  OG        47.7490  -56.4700  -88.2690 O.3   297  SER297     -0.2180
     99  N         52.8910  -49.0950  -86.1650 N.3   300  ARG300     -0.1231
    100  CA        52.2220  -47.8130  -86.4100 C.3   300  ARG300      0.1694
    101  C         51.1550  -47.5410  -85.3220 C.2   300  ARG300      0.2592
    102  O         51.0000  -46.4010  -84.8420 O.2   300  ARG300     -0.2718
    103  CB        51.5650  -47.7970  -87.7960 C.3   300  ARG300      0.0321
    104  CG        50.6370  -49.0010  -88.0750 C.3   300  ARG300      0.0489
    105  CD        49.3040  -48.4980  -88.6140 C.3   300  ARG300      0.2205
    106  NE        48.5150  -47.8310  -87.5640 N.pl3 300  ARG300     -0.0865
    107  CZ        48.3120  -46.5100  -87.4750 C.cat 300  ARG300      0.5346
    108  NH1       48.8540  -45.6730  -88.3600 N.pl3 300  ARG300      0.1354
    109  NH2       47.5740  -46.0240  -86.4830 N.pl3 300  ARG300      0.1354
    110  N         50.3970  -48.5910  -84.9870 N.am  301  ASP301     -0.1974
    111  CA        49.4180  -48.5160  -83.9210 C.3   301  ASP301      0.1709
    112  C         50.1540  -48.1060  -82.6670 C.2   301  ASP301      0.2293
    113  O         49.7450  -47.1660  -81.9840 O.2   301  ASP301     -0.2864
    114  CB        48.7290  -49.8710  -83.6840 C.3   301  ASP301      0.1436
    115  CG        47.7940  -50.2750  -84.8210 C.2   301  ASP301      0.3671
    116  OD1       47.9570  -49.7690  -85.9570 O.co2 301  ASP301     -0.2456
    117  OD2       46.8920  -51.1110  -84.5730 O.co2 301  ASP301     -0.2456
@<TRIPOS>BOND
     1    30    31    1
     2    31    32    1
     3    31    34    1
     4    32    33    2
     5    34    36    1
     6    34    35    1
     7    37    38    1
     8    39    38    1
     9    39    40    2
    10    38    41    1
    11    45    46    1
    12    17    16    1
    13    41    42    1
    14    19    20    1
    15    12     9    1
    16    12    13    1
    17    11    10    2
    18     9    10    1
    19     9     8    1
    20    20    21    1
    21    20    23    1
    22    42    44    1
    23    42    43    1
    24    22    21    2
    25    16    18    1
    26    16    15    2
    27    46    47    1
    28    46    49    1
    29    55    56    2
    30    55    54    1
    31    53    47   am
    32    53    54    1
    33    47    48    2
    34    57    54    1
    35    57    58    1
    36    14    13    1
    37    14    15    1
    38    49    50    1
    39    23    24    1
    40    60    58   am
    41    58    59    2
    42    61    62    1
    43    24    25    1
    44    50    51    1
    45    50    52    1
    46    63    62    1
    47    63    64    2
    48    62    65    1
    49    26    25    1
    50    26    27    2
    51     1     2    1
    52     4     3    2
    53    29    27    1
    54    65    66    1
    55     2     3    1
    56     2     5    1
    57    27    28    1
    58    66    67    1
    59    68    67    2
    60     6     5    1
    61     5     7    1
    62    67    69   am
    63    76    75    2
    64    75    77   am
    65    75    74    1
    66    92    91    2
    67    74    71    1
    68    73    72    2
    69   105   104    1
    70   105   106    1
    71    71    72    1
    72    71    70    1
    73    91    90    1
    74    91    93   am
    75   108   107    1
    76    98    97    1
    77    72    78   am
    78   104   103    1
    79    90    89    1
    80   103   100    1
    81    93    94    1
    82    94    97    1
    83    94    95    1
    84   106   107    2
    85   107   109    1
    86    96    95    2
    87    78    79    1
    88    81    80    2
    89    87    85   ar
    90    87    88   ar
    91   100    99    1
    92   100   101    1
    93    85    83   ar
    94    79    80    1
    95    79    82    1
    96   116   115   ar
    97   101   110   am
    98   101   102    2
    99    88    86   ar
   100    83    82    1
   101    83    84   ar
   102   110   111    1
   103   115   117   ar
   104   115   114    1
   105    86    84   ar
   106   111   114    1
   107   111   112    1
   108   112   113    2
