@<TRIPOS>MOLECULE
tmp/4mypA00.pdb
 147 144 0 0 0
SMALL
GASTEIGER

@<TRIPOS>ATOM
      1  N        -10.0660   -0.2480   20.4600 N.3    15  LYS15      -0.1231
      2  CA        -9.9690   -0.6290   19.0590 C.3    15  LYS15       0.1693
      3  C        -10.0500   -2.1590   18.9050 C.2    15  LYS15       0.2591
      4  O         -9.8160   -2.8900   19.8630 O.2    15  LYS15      -0.2718
      5  CB        -8.6670   -0.0790   18.4510 C.3    15  LYS15       0.0285
      6  CG        -8.7230    1.4270   18.2720 C.3    15  LYS15       0.0035
      7  CD        -7.6400    1.9060   17.3120 C.3    15  LYS15       0.0206
      8  CE        -7.7910    3.3820   17.0200 C.3    15  LYS15       0.1093
      9  NZ        -7.3380    4.2300   18.1530 N.3    15  LYS15      -0.1314
     10  N        -10.4010   -2.6310   17.7130 N.am   16  ALA16      -0.1980
     11  CA       -10.5120   -4.0680   17.4310 C.3    16  ALA16       0.1597
     12  C         -9.1730   -4.8030   17.5460 C.2    16  ALA16       0.2287
     13  O         -9.1300   -5.8970   18.1130 O.2    16  ALA16      -0.2864
     14  CB       -11.0830   -4.2750   16.0280 C.3    16  ALA16       0.0319
     15  N        -11.0400    3.4810   21.1060 N.3    22  SER22      -0.1202
     16  CA       -11.7140    3.5840   19.8190 C.3    22  SER22       0.2020
     17  C        -12.3300    4.9810   19.7330 C.2    22  SER22       0.2619
     18  O        -12.6930    5.5540   20.7790 O.2    22  SER22      -0.2717
     19  CB       -12.8380    2.5550   19.7710 C.3    22  SER22       0.2103
     20  OG       -13.6610    2.7280   18.6280 O.3    22  SER22      -0.2182
     21  N        -12.5540    5.4860   18.4880 N.am   23  SER23      -0.1937
     22  CA       -13.2840    6.7510   18.3050 C.3    23  SER23       0.2055
     23  C        -14.7430    6.5690   18.8140 C.2    23  SER23       0.2642
     24  O        -15.4090    7.5550   19.1220 O.2    23  SER23      -0.2714
     25  CB       -13.2830    7.1790   16.8370 C.3    23  SER23       0.2130
     26  OG       -11.9800    7.4840   16.3540 O.3    23  SER23      -0.2179
     27  N        -15.2060    5.2990   18.9760 N.am   24  MET24      -0.1976
     28  CA       -16.5520    5.0090   19.5060 C.3    24  MET24       0.1605
     29  C        -16.7160    5.4590   20.9630 C.2    24  MET24       0.2287
     30  O        -17.8490    5.6620   21.4160 O.2    24  MET24      -0.2864
     31  CB       -16.8770    3.5120   19.4040 C.3    24  MET24       0.0413
     32  CG       -17.1360    3.0350   17.9740 C.3    24  MET24       0.0598
     33  SD       -18.1530    4.1620   16.9590 S.3    24  MET24      -0.1393
     34  CE       -19.7000    4.0480   17.8520 C.3    24  MET24       0.0692
     35  N        -19.0780    8.3270   21.6410 N.3    27  TYR27      -0.1241
     36  CA       -20.4850    8.1150   21.2890 C.3    27  TYR27       0.1605
     37  C        -21.3640    7.4450   22.3250 C.2    27  TYR27       0.2264
     38  O        -22.5780    7.3710   22.1320 O.2    27  TYR27      -0.2867
     39  CB       -20.5650    7.3830   19.9290 C.3    27  TYR27       0.0534
     40  CG       -20.1010    8.2900   18.8150 C.ar   27  TYR27      -0.0201
     41  CD1      -20.9790    9.2030   18.2190 C.ar   27  TYR27      -0.0009
     42  CD2      -18.7720    8.2870   18.3960 C.ar   27  TYR27      -0.0009
     43  CE1      -20.5500   10.0740   17.2200 C.ar   27  TYR27       0.0417
     44  CE2      -18.3230    9.1740   17.4180 C.ar   27  TYR27       0.0417
     45  CZ       -19.2200   10.0550   16.8220 C.ar   27  TYR27       0.1957
     46  OH       -18.8230   10.9450   15.8580 O.3    27  TYR27      -0.2866
     47  N        -25.8550    9.4540   13.8670 N.3    52  THR52      -0.1203
     48  CA       -24.5500    9.0070   13.3580 C.3    52  THR52       0.1994
     49  C        -24.3930    7.4950   13.4870 C.2    52  THR52       0.2617
     50  O        -23.8770    6.8660   12.5760 O.2    52  THR52      -0.2717
     51  CB       -23.3980    9.7900   14.0350 C.3    52  THR52       0.1784
     52  OG1      -23.5620   11.1780   13.7380 O.3    52  THR52      -0.2211
     53  CG2      -21.9950    9.3160   13.6030 C.3    52  THR52       0.0376
     54  N        -24.7790    6.9340   14.6350 N.am   53  VAL53      -0.1979
     55  CA       -24.6500    5.5050   14.9190 C.3    53  VAL53       0.1595
     56  C        -25.9150    4.8010   14.4090 C.2    53  VAL53       0.2287
     57  O        -26.9400    4.7610   15.1060 O.2    53  VAL53      -0.2864
     58  CB       -24.3670    5.2750   16.4310 C.3    53  VAL53       0.0276
     59  CG1      -24.1620    3.7860   16.7330 C.3    53  VAL53       0.0022
     60  CG2      -23.1670    6.1140   16.9000 C.3    53  VAL53       0.0022
     61  N        -20.0580   -1.6300   14.3920 N.3    96  VAL96      -0.1245
     62  CA       -20.8950   -0.4450   14.2380 C.3    96  VAL96       0.1561
     63  C        -21.0440   -0.0680   12.7680 C.2    96  VAL96       0.2260
     64  O        -20.0700   -0.1620   12.0100 O.2    96  VAL96      -0.2867
     65  CB       -20.3590    0.7620   15.0790 C.3    96  VAL96       0.0252
     66  CG1      -18.9340    1.1730   14.6680 C.3    96  VAL96       0.0019
     67  CG2      -21.2960    1.9720   14.9960 C.3    96  VAL96       0.0019
     68  N        -22.0670    3.3980   10.7010 N.3    98  TYR98      -0.1241
     69  CA       -22.2400    4.8250   10.9480 C.3    98  TYR98       0.1605
     70  C        -22.4200    5.6290    9.6750 C.2    98  TYR98       0.2264
     71  O        -22.0770    5.1750    8.5810 O.2    98  TYR98      -0.2867
     72  CB       -21.0950    5.3930   11.8220 C.3    98  TYR98       0.0534
     73  CG       -19.7260    5.2610   11.1820 C.ar   98  TYR98      -0.0201
     74  CD1      -18.9430    4.1270   11.3930 C.ar   98  TYR98      -0.0009
     75  CD2      -19.2070    6.2730   10.3860 C.ar   98  TYR98      -0.0009
     76  CE1      -17.6700    4.0120   10.8360 C.ar   98  TYR98       0.0417
     77  CE2      -17.9500    6.1560    9.7930 C.ar   98  TYR98       0.0417
     78  CZ       -17.1750    5.0310   10.0330 C.ar   98  TYR98       0.1957
     79  OH       -15.9130    4.9480    9.4840 O.3    98  TYR98      -0.2866
     80  N        -21.5540    9.5410    8.4130 N.3   100  ALA100     -0.1231
     81  CA       -20.8420   10.7460    8.8240 C.3   100  ALA100      0.1679
     82  C        -21.0260   11.8750    7.8080 C.2   100  ALA100      0.2434
     83  O        -20.8920   11.5910    6.6160 O.2   100  ALA100     -0.2733
     84  CB       -19.3540   10.4100    8.9730 C.3   100  ALA100      0.0304
     85  N        -21.3020   13.1520    8.2070 N.am  101  PRO101     -0.2718
     86  CA       -21.3620   14.2230    7.1960 C.3   101  PRO101      0.1535
     87  C        -19.9640   14.3920    6.6210 C.2   101  PRO101      0.2598
     88  O        -18.9680   14.3390    7.3570 O.2   101  PRO101     -0.2715
     89  CB       -21.7970   15.4640    7.9800 C.3   101  PRO101      0.0310
     90  CG       -21.5470   15.1590    9.4040 C.3   101  PRO101      0.0237
     91  CD       -21.4910   13.6750    9.5840 C.3   101  PRO101      0.0939
     92  N        -19.8860   14.5110    5.3030 N.am  102  PHE102     -0.1974
     93  CA       -18.5950   14.5380    4.6440 C.3   102  PHE102      0.1639
     94  C        -18.5920   15.5430    3.5120 C.2   102  PHE102      0.2290
     95  O        -18.7840   15.1680    2.3610 O.2   102  PHE102     -0.2864
     96  CB       -18.2810   13.1000    4.1740 C.3   102  PHE102      0.0560
     97  CG       -16.9140   12.8380    3.5750 C.ar  102  PHE102     -0.0200
     98  CD1      -15.8250   13.6450    3.8980 C.ar  102  PHE102     -0.0042
     99  CD2      -16.6950   11.7230    2.7740 C.ar  102  PHE102     -0.0042
    100  CE1      -14.5540   13.3730    3.3860 C.ar  102  PHE102     -0.0003
    101  CE2      -15.4150   11.4440    2.2690 C.ar  102  PHE102     -0.0003
    102  CZ       -14.3560   12.2700    2.5870 C.ar  102  PHE102     -0.0000
    103  N        -21.0110    9.9770    4.3210 N.3   107  TYR107     -0.1241
    104  CA       -20.1760    8.8030    4.2190 C.3   107  TYR107      0.1605
    105  C        -20.7910    7.6700    5.0510 C.2   107  TYR107      0.2264
    106  O        -21.0670    7.8600    6.2320 O.2   107  TYR107     -0.2867
    107  CB       -18.7660    9.1240    4.7070 C.3   107  TYR107      0.0534
    108  CG       -17.8920    7.8990    4.7900 C.ar  107  TYR107     -0.0201
    109  CD1      -17.4700    7.2420    3.6360 C.ar  107  TYR107     -0.0009
    110  CD2      -17.5260    7.3630    6.0210 C.ar  107  TYR107     -0.0009
    111  CE1      -16.6870    6.0910    3.7060 C.ar  107  TYR107      0.0417
    112  CE2      -16.7450    6.2150    6.1040 C.ar  107  TYR107      0.0417
    113  CZ       -16.3200    5.5880    4.9430 C.ar  107  TYR107      0.1957
    114  OH       -15.5510    4.4570    5.0040 O.3   107  TYR107     -0.2866
    115  N        -18.2830    1.5060    8.3820 N.3   110  GLN110     -0.1231
    116  CA       -18.4660    0.4310    9.3390 C.3   110  GLN110      0.1698
    117  C        -17.1510    0.1510   10.0310 C.2   110  GLN110      0.2592
    118  O        -16.0750    0.3470    9.4380 O.2   110  GLN110     -0.2718
    119  CB       -19.0570   -0.8350    8.7000 C.3   110  GLN110      0.0381
    120  CG       -18.1830   -1.4910    7.6220 C.3   110  GLN110      0.0905
    121  CD       -18.8440   -2.7270    7.0590 C.2   110  GLN110      0.2608
    122  OE1      -18.3970   -3.8570    7.2880 O.2   110  GLN110     -0.2717
    123  NE2      -19.9200   -2.5420    6.3130 N.am  110  GLN110     -0.0878
    124  N        -17.2090   -0.2870   11.2750 N.am  111  ALA111     -0.1966
    125  CA       -15.9730   -0.6070   11.9790 C.3   111  ALA111      0.1728
    126  C        -16.2510   -1.5880   13.0810 C.2   111  ALA111      0.2616
    127  O        -17.3970   -1.6960   13.5570 O.2   111  ALA111     -0.2715
    128  CB       -15.3730    0.6620   12.5680 C.3   111  ALA111      0.0334
    129  N        -15.2050   -2.2960   13.4920 N.am  112  ASP112     -0.1957
    130  CA       -15.2850   -3.1910   14.6260 C.3   112  ASP112      0.1840
    131  C        -14.5490   -2.5420   15.7830 C.2   112  ASP112      0.2622
    132  O        -13.6370   -1.7370   15.5740 O.2   112  ASP112     -0.2715
    133  CB       -14.6550   -4.5480   14.3020 C.3   112  ASP112      0.1450
    134  CG       -15.4310   -5.2330   13.1900 C.2   112  ASP112      0.3671
    135  OD1      -16.6660   -5.0980   13.1700 O.co2 112  ASP112     -0.2456
    136  OD2      -14.7960   -5.8350   12.3200 O.co2 112  ASP112     -0.2456
    137  N        -14.9660   -2.8740   16.9940 N.am  113  PHE113     -0.1974
    138  CA       -14.3110   -2.3750   18.2160 C.3   113  PHE113      0.1639
    139  C        -14.6120   -3.3740   19.3180 C.2   113  PHE113      0.2290
    140  O        -15.2320   -4.4220   19.0550 O.2   113  PHE113     -0.2864
    141  CB       -14.7350   -0.9230   18.5470 C.3   113  PHE113      0.0560
    142  CG       -16.1840   -0.7700   18.9660 C.ar  113  PHE113     -0.0200
    143  CD1      -17.1960   -0.6820   18.0100 C.ar  113  PHE113     -0.0042
    144  CD2      -16.5270   -0.7010   20.3060 C.ar  113  PHE113     -0.0042
    145  CE1      -18.5310   -0.5560   18.3930 C.ar  113  PHE113     -0.0003
    146  CE2      -17.8640   -0.5600   20.6920 C.ar  113  PHE113     -0.0003
    147  CZ       -18.8510   -0.4810   19.7280 C.ar  113  PHE113     -0.0000
@<TRIPOS>BOND
     1   101   102   ar
     2   101    99   ar
     3    95    94    2
     4   102   100   ar
     5    99    97   ar
     6   100    98   ar
     7    94    93    1
     8    97    98   ar
     9    97    96    1
    10   109   111   ar
    11   109   108   ar
    12   111   113   ar
    13    96    93    1
    14   104   103    1
    15   104   107    1
    16   104   105    1
    17    93    92    1
    18   107   108    1
    19   108   110   ar
    20   113   114    1
    21   113   112   ar
    22   105   106    2
    23    92    87   am
    24   110   112   ar
    25   123   121   am
    26    83    82    2
    27    87    86    1
    28    87    88    2
    29   121   122    2
    30   121   120    1
    31    86    89    1
    32    86    85    1
    33   120   119    1
    34    82    85   am
    35    82    81    1
    36    89    90    1
    37    85    91    1
    38   115   116    1
    39    80    81    1
    40    71    70    2
    41   119   116    1
    42    81    84    1
    43   116   117    1
    44    90    91    1
    45   118   117    2
    46    79    78    1
    47    70    69    1
    48    77    78   ar
    49    77    75   ar
    50   117   124   am
    51    78    76   ar
    52    75    73   ar
    53    68    69    1
    54    76    74   ar
    55    69    72    1
    56    73    74   ar
    57    73    72    1
    58   124   125    1
    59   125   128    1
    60   125   126    1
    61    64    63    2
    62   136   134   ar
    63    50    49    2
    64    63    62    1
    65   126   129   am
    66   126   127    2
    67   135   134   ar
    68   134   133    1
    69    48    49    1
    70    48    47    1
    71    48    51    1
    72    49    54   am
    73   129   130    1
    74    53    51    1
    75    52    51    1
    76    62    61    1
    77    62    65    1
    78   133   130    1
    79    56    55    1
    80    56    57    2
    81   130   131    1
    82    54    55    1
    83    66    65    1
    84    55    58    1
    85    67    65    1
    86   132   131    2
    87   131   137   am
    88    46    45    1
    89    14    11    1
    90    26    25    1
    91    58    59    1
    92    58    60    1
    93    45    43   ar
    94    45    44   ar
    95    25    22    1
    96    33    34    1
    97    33    32    1
    98   137   138    1
    99     8     7    1
   100     8     9    1
   101    43    41   ar
   102     7     6    1
   103    44    42   ar
   104    11    12    1
   105    11    10    1
   106    12    13    2
   107    10     3   am
   108    32    31    1
   109   143   145   ar
   110   143   142   ar
   111   138   141    1
   112   138   139    1
   113    41    40   ar
   114     6     5    1
   115    22    21    1
   116    22    23    1
   117   145   147   ar
   118    42    40   ar
   119     5     2    1
   120    21    17   am
   121   141   142    1
   122    20    19    1
   123    23    27   am
   124    23    24    2
   125    40    39    1
   126     3     2    1
   127     3     4    2
   128   142   144   ar
   129    27    28    1
   130   140   139    2
   131     2     1    1
   132    31    28    1
   133    28    29    1
   134   147   146   ar
   135    17    16    1
   136    17    18    2
   137    19    16    1
   138    16    15    1
   139    39    36    1
   140   144   146   ar
   141    29    30    2
   142    36    35    1
   143    36    37    1
   144    38    37    2
