@<TRIPOS>MOLECULE
tmp/4myqA00.pdb
 193 188 0 0 0
SMALL
GASTEIGER

@<TRIPOS>ATOM
      1  N        -14.4560   30.3270    2.8610 N.3    82  TYR82      -0.1227
      2  CA       -13.7010   29.9270    1.6860 C.3    82  TYR82       0.1736
      3  C        -12.2640   30.3200    1.7270 C.2    82  TYR82       0.2595
      4  O        -11.4020   29.4990    1.4410 O.2    82  TYR82      -0.2718
      5  CB       -14.3860   30.5060    0.4560 C.3    82  TYR82       0.0548
      6  CG       -13.6920   30.1950   -0.8560 C.ar   82  TYR82      -0.0200
      7  CD1      -12.6950   31.0140   -1.3570 C.ar   82  TYR82      -0.0009
      8  CD2      -14.0370   29.0680   -1.5880 C.ar   82  TYR82      -0.0009
      9  CE1      -12.0450   30.7190   -2.5550 C.ar   82  TYR82       0.0417
     10  CE2      -13.3990   28.7760   -2.7700 C.ar   82  TYR82       0.0417
     11  CZ       -12.4100   29.5950   -3.2600 C.ar   82  TYR82       0.1957
     12  OH       -11.8140   29.2720   -4.4680 O.3    82  TYR82      -0.2866
     13  N        -11.9880   31.5970    2.0050 N.am   83  HIS83      -0.1975
     14  CA       -10.6100   32.1400    2.0260 C.3    83  HIS83       0.1656
     15  C         -9.8300   31.7700    3.2660 C.2    83  HIS83       0.2291
     16  O         -9.4160   32.6230    4.0810 O.2    83  HIS83      -0.2864
     17  CB       -10.6460   33.6640    1.8060 C.3    83  HIS83       0.0771
     18  CG       -11.0510   34.0480    0.4160 C.ar   83  HIS83       0.0820
     19  ND1      -12.2310   34.6140    0.1330 N.ar   83  HIS83      -0.2267
     20  CD2      -10.4030   33.8660   -0.7920 C.ar   83  HIS83       0.1154
     21  CE1      -12.3290   34.8010   -1.1870 C.ar   83  HIS83       0.1986
     22  NE2      -11.1990   34.3490   -1.7530 N.ar   83  HIS83      -0.2212
     23  N        -14.8440   41.2710    0.9170 N.3   131  SER131     -0.1202
     24  CA       -14.1930   41.6820   -0.3260 C.3   131  SER131      0.2020
     25  C        -13.5090   43.0640   -0.2430 C.2   131  SER131      0.2618
     26  O        -13.7650   43.8600    0.6950 O.2   131  SER131     -0.2717
     27  CB       -15.2170   41.7110   -1.4600 C.3   131  SER131      0.2103
     28  OG       -16.0760   42.8400   -1.3280 O.3   131  SER131     -0.2182
     29  N        -12.6370   43.3270   -1.2130 N.am  132  ASN132     -0.1974
     30  CA       -12.0080   44.6680   -1.3870 C.3   132  ASN132      0.1688
     31  C        -13.0500   45.7800   -1.3960 C.2   132  ASN132      0.2292
     32  O        -12.8750   46.8240   -0.7480 O.2   132  ASN132     -0.2864
     33  CB       -11.1720   44.7280   -2.6900 C.3   132  ASN132      0.1181
     34  CG        -9.7550   44.1490   -2.5270 C.2   132  ASN132      0.2629
     35  OD1       -9.2330   44.0590   -1.4140 O.2   132  ASN132     -0.2716
     36  ND2       -9.1160   43.7860   -3.6590 N.am  132  ASN132     -0.0877
     37  N         -9.0390   40.0720   -8.3270 N.3   196  MET196     -0.1245
     38  CA       -10.0190   39.6770   -9.3430 C.3   196  MET196      0.1570
     39  C        -10.4750   40.8300  -10.2190 C.2   196  MET196      0.2261
     40  O        -10.9000   40.5980  -11.3360 O.2   196  MET196     -0.2867
     41  CB       -11.2470   39.0660   -8.6660 C.3   196  MET196      0.0387
     42  CG       -10.9640   37.7830   -7.9050 C.3   196  MET196      0.0595
     43  SD       -10.5540   36.4350   -9.0210 S.3   196  MET196     -0.1393
     44  CE       -10.3000   35.1060   -7.8110 C.3   196  MET196      0.0692
     45  N         -6.2240   30.1230   -9.0160 N.3   241  ASP241     -0.1225
     46  CA        -7.1980   30.7830   -8.1020 C.3   241  ASP241      0.1805
     47  C         -8.6630   30.6810   -8.6140 C.2   241  ASP241      0.2597
     48  O         -9.6260   30.8030   -7.8250 O.2   241  ASP241     -0.2718
     49  CB        -6.7540   32.2440   -7.9330 C.3   241  ASP241      0.1424
     50  CG        -7.1800   32.8830   -6.6340 C.2   241  ASP241      0.3668
     51  OD1       -7.4730   32.1780   -5.6400 O.co2 241  ASP241     -0.2456
     52  OD2       -7.1720   34.1470   -6.6340 O.co2 241  ASP241     -0.2456
     53  N         -8.8430   30.4470   -9.9290 N.am  242  LEU242     -0.1979
     54  CA       -10.1460   30.2240  -10.5200 C.3   242  LEU242      0.1596
     55  C        -10.2070   28.8110  -11.1400 C.2   242  LEU242      0.2287
     56  O        -10.7010   28.6180  -12.2670 O.2   242  LEU242     -0.2864
     57  CB       -10.4320   31.2920  -11.5870 C.3   242  LEU242      0.0297
     58  CG       -10.6130   32.7650  -11.1840 C.3   242  LEU242      0.0022
     59  CD1      -10.8920   33.6530  -12.4070 C.3   242  LEU242      0.0001
     60  CD2      -11.7430   32.9010  -10.1790 C.3   242  LEU242      0.0001
     61  N        -11.5110   26.0920   -9.2680 N.3   244  ASN244     -0.1226
     62  CA       -12.5120   25.2350   -8.5940 C.3   244  ASN244      0.1770
     63  C        -13.4680   24.6070   -9.6230 C.2   244  ASN244      0.2439
     64  O        -13.8010   23.4320   -9.5280 O.2   244  ASN244     -0.2733
     65  CB       -13.3590   25.9870   -7.5480 C.3   244  ASN244      0.1168
     66  CG       -12.6010   26.4500   -6.3140 C.2   244  ASN244      0.2627
     67  OD1      -13.1030   27.3460   -5.6330 O.2   244  ASN244     -0.2716
     68  ND2      -11.4130   25.8810   -6.0160 N.am  244  ASN244     -0.0877
     69  N        -13.9320   25.4040  -10.6190 N.am  245  PRO245     -0.2729
     70  CA       -14.8940   24.8280  -11.5510 C.3   245  PRO245      0.1401
     71  C        -14.3030   23.7740  -12.5170 C.2   245  PRO245      0.2269
     72  O        -15.0670   23.1290  -13.2090 O.2   245  PRO245     -0.2865
     73  CB       -15.4330   26.0630  -12.2990 C.3   245  PRO245      0.0296
     74  CG       -15.2330   27.1840  -11.3170 C.3   245  PRO245      0.0237
     75  CD       -13.8520   26.8520  -10.8130 C.3   245  PRO245      0.0939
     76  N        -15.9170   20.7290   -6.8300 N.3   252  TYR252     -0.1241
     77  CA       -16.4640   22.0100   -7.2390 C.3   252  TYR252      0.1605
     78  C        -17.6580   22.3920   -6.3810 C.2   252  TYR252      0.2264
     79  O        -17.7020   23.4970   -5.8560 O.2   252  TYR252     -0.2867
     80  CB       -16.8220   21.9560   -8.7230 C.3   252  TYR252      0.0534
     81  CG       -17.4400   23.1980   -9.3690 C.ar  252  TYR252     -0.0201
     82  CD1      -17.3840   24.4630   -8.7920 C.ar  252  TYR252     -0.0009
     83  CD2      -18.0570   23.0860  -10.6390 C.ar  252  TYR252     -0.0009
     84  CE1      -17.9320   25.5840   -9.4460 C.ar  252  TYR252      0.0417
     85  CE2      -18.5950   24.1860  -11.2690 C.ar  252  TYR252      0.0417
     86  CZ       -18.5400   25.4360  -10.6660 C.ar  252  TYR252      0.1957
     87  OH       -19.0930   26.5140  -11.3370 O.3   252  TYR252     -0.2866
     88  N        -16.5910   23.6250   -3.0440 N.3   255  TRP255     -0.1227
     89  CA       -16.0460   24.9770   -3.1740 C.3   255  TRP255      0.1737
     90  C        -17.1070   26.0270   -3.2950 C.2   255  TRP255      0.2596
     91  O        -17.0580   27.0750   -2.6250 O.2   255  TRP255     -0.2718
     92  CB       -15.1090   25.0680   -4.3580 C.3   255  TRP255      0.0564
     93  CG       -13.8300   24.2880   -4.2130 C.ar  255  TRP255      0.0003
     94  CD1      -13.3510   23.3060   -5.0510 C.ar  255  TRP255      0.0946
     95  CD2      -12.8420   24.3750   -3.1090 C.ar  255  TRP255      0.0152
     96  NE1      -12.1630   22.8200   -4.6070 N.ar  255  TRP255     -0.2442
     97  CE2      -11.7900   23.4390   -3.4400 C.ar  255  TRP255      0.0810
     98  CE3      -12.7280   25.1510   -1.9360 C.ar  255  TRP255      0.0012
     99  CZ2      -10.6750   23.2670   -2.6330 C.ar  255  TRP255      0.0191
    100  CZ3      -11.6010   24.9720   -1.1350 C.ar  255  TRP255      0.0001
    101  CH2      -10.6070   24.0440   -1.4730 C.ar  255  TRP255      0.0015
    102  N        -18.0910   25.7610   -4.1470 N.am  256  THR256     -0.1953
    103  CA       -19.2100   26.6670   -4.3400 C.3   256  THR256      0.1897
    104  C        -19.9660   26.8800   -3.0300 C.2   256  THR256      0.2313
    105  O        -20.2430   28.0160   -2.6620 O.2   256  THR256     -0.2863
    106  CB       -20.1760   26.1260   -5.4330 C.3   256  THR256      0.1794
    107  OG1      -19.4510   25.9540   -6.6690 O.3   256  THR256     -0.2208
    108  CG2      -21.3910   27.0930   -5.6550 C.3   256  THR256      0.0378
    109  N        -17.8190   29.4230   -0.8810 N.3   259  ILE259     -0.1245
    110  CA       -17.7270   30.8130   -1.3180 C.3   259  ILE259      0.1561
    111  C        -19.0930   31.5090   -1.2040 C.2   259  ILE259      0.2260
    112  O        -19.1590   32.7060   -0.8660 O.2   259  ILE259     -0.2867
    113  CB       -17.0780   30.9900   -2.7110 C.3   259  ILE259      0.0252
    114  CG1      -16.6530   32.4750   -2.9320 C.3   259  ILE259      0.0019
    115  CG2      -18.0280   30.5560   -3.8240 C.3   259  ILE259      0.0019
    116  CD1      -15.6360   33.0680   -1.9600 C.3   259  ILE259      0.0001
    117  N        -19.7730   34.8480    0.9800 N.3   263  PHE263     -0.1241
    118  CA       -20.4760   36.0070    0.4360 C.3   263  PHE263      0.1605
    119  C        -21.7220   36.3190    1.2880 C.2   263  PHE263      0.2264
    120  O        -21.9780   37.4650    1.6410 O.2   263  PHE263     -0.2867
    121  CB       -20.9360   35.7460   -1.0080 C.3   263  PHE263      0.0534
    122  CG       -19.8570   35.7080   -2.0660 C.ar  263  PHE263     -0.0203
    123  CD1      -18.5590   36.1950   -1.8640 C.ar  263  PHE263     -0.0042
    124  CD2      -20.1770   35.1950   -3.3340 C.ar  263  PHE263     -0.0042
    125  CE1      -17.6110   36.1640   -2.9070 C.ar  263  PHE263     -0.0003
    126  CE2      -19.2400   35.1660   -4.3630 C.ar  263  PHE263     -0.0003
    127  CZ       -17.9470   35.6570   -4.1410 C.ar  263  PHE263     -0.0000
    128  N        -24.3410   38.8620   -5.1670 N.3   280  MET280     -0.1245
    129  CA       -23.9990   37.4930   -4.7410 C.3   280  MET280      0.1570
    130  C        -24.0560   37.2920   -3.2430 C.2   280  MET280      0.2261
    131  O        -23.9010   36.1750   -2.7800 O.2   280  MET280     -0.2867
    132  CB       -22.6050   37.0500   -5.2570 C.3   280  MET280      0.0387
    133  CG       -22.5410   36.9410   -6.7640 C.3   280  MET280      0.0595
    134  SD       -23.6600   35.6760   -7.3990 S.3   280  MET280     -0.1393
    135  CE       -23.0550   34.2020   -6.6120 C.3   280  MET280      0.0692
    136  N        -25.9440   31.6190  -11.2230 N.3   291  SER291     -0.1202
    137  CA       -24.7250   32.4100  -11.0740 C.3   291  SER291      0.2020
    138  C        -23.4870   31.6180  -11.4320 C.2   291  SER291      0.2618
    139  O        -22.6240   32.1570  -12.0360 O.2   291  SER291     -0.2717
    140  CB       -24.5830   32.9790   -9.6820 C.3   291  SER291      0.2103
    141  OG       -25.6900   33.7650   -9.3900 O.3   291  SER291     -0.2182
    142  N        -23.3980   30.3410  -11.0830 N.am  292  GLN292     -0.1979
    143  CA       -22.2350   29.5240  -11.5050 C.3   292  GLN292      0.1601
    144  C        -22.1620   29.3810  -13.0150 C.2   292  GLN292      0.2287
    145  O        -21.1030   29.4590  -13.5790 O.2   292  GLN292     -0.2864
    146  CB       -22.2590   28.1360  -10.8760 C.3   292  GLN292      0.0394
    147  CG       -21.8750   28.0850   -9.4070 C.3   292  GLN292      0.0908
    148  CD       -20.5610   28.8170   -9.1370 C.2   292  GLN292      0.2608
    149  OE1      -19.5190   28.4870   -9.7110 O.2   292  GLN292     -0.2717
    150  NE2      -20.6220   29.8360   -8.3100 N.am  292  GLN292     -0.0878
    151  N        -20.8480   32.6950  -14.2490 N.3   295  PHE295     -0.1241
    152  CA       -19.4330   32.7100  -13.8530 C.3   295  PHE295      0.1605
    153  C        -18.5520   31.9110  -14.8220 C.2   295  PHE295      0.2264
    154  O        -17.5380   32.4050  -15.3800 O.2   295  PHE295     -0.2867
    155  CB       -19.3390   32.1300  -12.4380 C.3   295  PHE295      0.0534
    156  CG       -17.9410   32.1590  -11.8210 C.ar  295  PHE295     -0.0203
    157  CD1      -17.1880   33.3050  -11.8230 C.ar  295  PHE295     -0.0042
    158  CD2      -17.4430   31.0440  -11.1730 C.ar  295  PHE295     -0.0042
    159  CE1      -15.9340   33.3300  -11.2190 C.ar  295  PHE295     -0.0003
    160  CE2      -16.1830   31.0510  -10.5640 C.ar  295  PHE295     -0.0003
    161  CZ       -15.4410   32.1930  -10.5910 C.ar  295  PHE295     -0.0000
    162  N        -23.5600   42.7300  -11.7860 N.3   338  GLY338     -0.1210
    163  CA       -22.9370   42.3070  -10.5260 C.3   338  GLY338      0.1956
    164  C        -21.8920   41.2090  -10.6910 C.2   338  GLY338      0.2611
    165  O        -20.8960   41.1800   -9.9590 O.2   338  GLY338     -0.2717
    166  N        -22.1190   40.3050  -11.6490 N.am  339  LEU339     -0.1979
    167  CA       -21.1000   39.3060  -12.0070 C.3   339  LEU339      0.1596
    168  C        -19.8600   39.9780  -12.5090 C.2   339  LEU339      0.2287
    169  O        -18.8260   39.9290  -11.8650 O.2   339  LEU339     -0.2864
    170  CB       -21.5860   38.3360  -13.0980 C.3   339  LEU339      0.0297
    171  CG       -20.5710   37.4880  -13.9050 C.3   339  LEU339      0.0022
    172  CD1      -19.7490   36.5850  -13.0060 C.3   339  LEU339      0.0001
    173  CD2      -21.3310   36.6620  -14.9200 C.3   339  LEU339      0.0001
    174  N        -17.1980   42.4170  -10.3350 N.3   342  LYS342     -0.1231
    175  CA       -16.1000   41.8980   -9.4800 C.3   342  LYS342      0.1693
    176  C        -14.8270   41.5640  -10.2790 C.2   342  LYS342      0.2592
    177  O        -13.7770   41.3420   -9.6840 O.2   342  LYS342     -0.2718
    178  CB       -16.4930   40.6130   -8.7460 C.3   342  LYS342      0.0285
    179  CG       -17.6710   40.7090   -7.7910 C.3   342  LYS342      0.0035
    180  CD       -18.0720   39.3030   -7.3190 C.3   342  LYS342      0.0206
    181  CE       -19.4830   39.2810   -6.7160 C.3   342  LYS342      0.1093
    182  NZ       -19.7050   40.2590   -5.5960 N.3   342  LYS342     -0.1314
    183  N        -14.9280   41.4940  -11.6050 N.am  343  PHE343     -0.1976
    184  CA       -13.8350   41.0540  -12.4530 C.3   343  PHE343      0.1639
    185  C        -13.3220   42.0900  -13.4130 C.2   343  PHE343      0.2290
    186  O        -12.5810   41.7600  -14.3270 O.2   343  PHE343     -0.2864
    187  CB       -14.2420   39.7920  -13.2170 C.3   343  PHE343      0.0560
    188  CG       -14.6250   38.6800  -12.3010 C.ar  343  PHE343     -0.0200
    189  CD1      -13.6350   37.9740  -11.5940 C.ar  343  PHE343     -0.0042
    190  CD2      -15.9480   38.3920  -12.0800 C.ar  343  PHE343     -0.0042
    191  CE1      -13.9870   36.9730  -10.7200 C.ar  343  PHE343     -0.0003
    192  CE2      -16.3020   37.3790  -11.2100 C.ar  343  PHE343     -0.0003
    193  CZ       -15.3250   36.6810  -10.5310 C.ar  343  PHE343     -0.0000
@<TRIPOS>BOND
     1   154   153    2
     2   173   171    1
     3   153   152    1
     4   186   185    2
     5   151   152    1
     6   171   170    1
     7   171   172    1
     8   152   155    1
     9   145   144    2
    10   185   184    1
    11   187   184    1
    12   187   188    1
    13    72    71    2
    14   170   167    1
    15   144   143    1
    16    71    70    1
    17   168   167    1
    18   168   169    2
    19   184   183    1
    20   155   156    1
    21    59    58    1
    22   188   190   ar
    23   188   189   ar
    24    73    70    1
    25    73    74    1
    26    56    55    2
    27   190   192   ar
    28   139   138    2
    29   167   166    1
    30   157   156   ar
    31   157   159   ar
    32   156   158   ar
    33   162   163    1
    34   166   164   am
    35   183   176   am
    36   189   191   ar
    37    57    58    1
    38    57    54    1
    39    70    69    1
    40   143   142    1
    41   143   146    1
    42   138   142   am
    43   138   137    1
    44    87    86    1
    45    40    39    2
    46    74    75    1
    47    85    86   ar
    48    85    83   ar
    49   136   137    1
    50   159   161   ar
    51   192   193   ar
    52    58    60    1
    53   158   160   ar
    54    55    54    1
    55   137   140    1
    56   146   147    1
    57    75    69    1
    58   191   193   ar
    59   164   163    1
    60   164   165    2
    61    86    84   ar
    62    83    81   ar
    63    69    63   am
    64   161   160   ar
    65    54    53    1
    66   174   175    1
    67   176   177    2
    68   176   175    1
    69    39    38    1
    70    53    47   am
    71   149   148    2
    72   140   141    1
    73    63    64    2
    74    63    62    1
    75   175   178    1
    76    84    82   ar
    77   147   148    1
    78    81    82   ar
    79    81    80    1
    80    38    41    1
    81    38    37    1
    82    61    62    1
    83   148   150   am
    84    43    42    1
    85    43    44    1
    86    45    46    1
    87   178   179    1
    88    80    77    1
    89    41    42    1
    90    47    46    1
    91    47    48    2
    92    62    65    1
    93    46    49    1
    94    49    50    1
    95   179   180    1
    96    65    66    1
    97   134   133    1
    98   134   135    1
    99   180   181    1
   100    77    76    1
   101    77    78    1
   102   133   132    1
   103   181   182    1
   104   107   106    1
   105    50    52   ar
   106    50    51   ar
   107    78    79    2
   108    66    68   am
   109    66    67    2
   110   108   106    1
   111   106   103    1
   112   132   129    1
   113   128   129    1
   114    94    96   ar
   115    94    93   ar
   116   129   130    1
   117    96    97   ar
   118    12    11    1
   119   126   127   ar
   120   126   124   ar
   121    92    93    1
   122    92    89    1
   123   103   102    1
   124   103   104    1
   125    93    95   ar
   126   102    90   am
   127   127   125   ar
   128   115   113    1
   129    36    34   am
   130    97    95   ar
   131    97    99   ar
   132   124   122   ar
   133    90    89    1
   134    90    91    2
   135    11    10   ar
   136    11     9   ar
   137   130   131    2
   138    89    88    1
   139    95    98   ar
   140   104   105    2
   141   114   113    1
   142   114   116    1
   143   125   123   ar
   144    10     8   ar
   145   113   110    1
   146    33    34    1
   147    33    30    1
   148    99   101   ar
   149     9     7   ar
   150    34    35    2
   151   122   123   ar
   152   122   121    1
   153    98   100   ar
   154    22    21   ar
   155    22    20   ar
   156     8     6   ar
   157   101   100   ar
   158    27    28    1
   159    27    24    1
   160    31    30    1
   161    31    32    2
   162    30    29    1
   163     7     6   ar
   164   110   111    1
   165   110   109    1
   166    29    25   am
   167   111   112    2
   168    21    19   ar
   169   121   118    1
   170     6     5    1
   171    20    18   ar
   172    24    25    1
   173    24    23    1
   174    25    26    2
   175    19    18   ar
   176    18    17    1
   177   118   117    1
   178   118   119    1
   179     5     2    1
   180   119   120    2
   181     4     3    2
   182     2     3    1
   183     2     1    1
   184     3    13   am
   185    17    14    1
   186    13    14    1
   187    14    15    1
   188    15    16    2
