@<TRIPOS>MOLECULE
tmp/4mysA00.pdb
 188 183 0 0 0
SMALL
GASTEIGER

@<TRIPOS>ATOM
      1  N        -15.8250   49.4150   -6.9150 N.3    23  PHE23      -0.1227
      2  CA       -17.1090   49.4360   -6.2280 C.3    23  PHE23       0.1736
      3  C        -17.4750   48.0580   -5.6570 C.2    23  PHE23       0.2596
      4  O        -17.3870   47.0330   -6.3470 O.2    23  PHE23      -0.2718
      5  CB       -18.2220   49.9320   -7.1630 C.3    23  PHE23       0.0547
      6  CG       -19.5460   49.9860   -6.4840 C.ar   23  PHE23      -0.0202
      7  CD1      -19.8130   50.9860   -5.5590 C.ar   23  PHE23      -0.0042
      8  CD2      -20.4950   49.0190   -6.7240 C.ar   23  PHE23      -0.0042
      9  CE1      -21.0400   51.0060   -4.8960 C.ar   23  PHE23      -0.0003
     10  CE2      -21.7240   49.0290   -6.0570 C.ar   23  PHE23      -0.0003
     11  CZ       -21.9790   50.0270   -5.1430 C.ar   23  PHE23      -0.0000
     12  N        -17.8970   48.0830   -4.3810 N.am   24  SER24      -0.1952
     13  CA       -18.2230   46.9220   -3.5180 C.3    24  SER24       0.1924
     14  C        -16.9960   46.1560   -3.0200 C.2    24  SER24       0.2314
     15  O        -17.1570   45.2070   -2.2410 O.2    24  SER24      -0.2863
     16  CB       -19.2160   45.9500   -4.1920 C.3    24  SER24       0.2116
     17  OG       -18.6270   44.9920   -5.0980 O.3    24  SER24      -0.2180
     18  N         -8.3330   50.3150   -9.2420 N.3    85  TYR85      -0.1227
     19  CA        -9.1660   49.4530  -10.0710 C.3    85  TYR85       0.1736
     20  C        -10.5750   50.0050  -10.1730 C.2    85  TYR85       0.2596
     21  O        -11.2200   50.2090   -9.1420 O.2    85  TYR85      -0.2718
     22  CB        -9.1830   48.0200   -9.4960 C.3    85  TYR85       0.0548
     23  CG       -10.3810   47.2020   -9.9740 C.ar   85  TYR85      -0.0200
     24  CD1      -10.4790   46.7900  -11.2960 C.ar   85  TYR85      -0.0009
     25  CD2      -11.4140   46.8330   -9.1030 C.ar   85  TYR85      -0.0009
     26  CE1      -11.5750   46.0660  -11.7470 C.ar   85  TYR85       0.0417
     27  CE2      -12.4970   46.0840   -9.5380 C.ar   85  TYR85       0.0417
     28  CZ       -12.5700   45.7100  -10.8620 C.ar   85  TYR85       0.1957
     29  OH       -13.6510   45.0210  -11.3380 O.3    85  TYR85      -0.2866
     30  N        -11.0310   50.2200  -11.4050 N.am   86  SER86      -0.1938
     31  CA       -12.4250   50.5290  -11.7370 C.3    86  SER86       0.2055
     32  C        -12.8410   51.8100  -10.9740 C.2    86  SER86       0.2642
     33  O        -12.2160   52.8410  -11.2130 O.2    86  SER86      -0.2714
     34  CB       -13.2820   49.2970  -11.4640 C.3    86  SER86       0.2130
     35  OG       -14.3260   49.2270  -12.4490 O.3    86  SER86      -0.2179
     36  N        -13.8450   51.7950  -10.0900 N.am   87  LEU87      -0.1977
     37  CA       -14.1580   53.0150   -9.3320 C.3    87  LEU87       0.1596
     38  C        -12.9110   53.5930   -8.6530 C.2    87  LEU87       0.2287
     39  O        -12.7180   54.8100   -8.6080 O.2    87  LEU87      -0.2864
     40  CB       -15.2340   52.7330   -8.2670 C.3    87  LEU87       0.0297
     41  CG       -15.4540   53.8620   -7.2370 C.3    87  LEU87       0.0022
     42  CD1      -15.9580   55.1460   -7.9100 C.3    87  LEU87       0.0001
     43  CD2      -16.4610   53.3850   -6.1890 C.3    87  LEU87       0.0001
     44  N        -11.0520   55.5890  -11.0510 N.3    90  ARG90      -0.1245
     45  CA       -11.6510   56.9130  -11.2480 C.3    90  ARG90       0.1563
     46  C        -11.3340   57.8460  -10.0860 C.2    90  ARG90       0.2260
     47  O        -11.0190   59.0160  -10.2940 O.2    90  ARG90      -0.2867
     48  CB       -13.1610   56.7890  -11.4660 C.3    90  ARG90       0.0307
     49  CG       -13.4570   55.9590  -12.6970 C.3    90  ARG90       0.0489
     50  CD       -14.9130   56.0800  -13.1600 C.3    90  ARG90       0.2205
     51  NE       -15.9140   55.5350  -12.2320 N.pl3  90  ARG90      -0.0865
     52  CZ       -16.7960   56.2760  -11.5360 C.cat  90  ARG90       0.5346
     53  NH1      -16.7520   57.6190  -11.5440 N.pl3  90  ARG90       0.1354
     54  NH2      -17.7160   55.6780  -10.7910 N.pl3  90  ARG90       0.1354
     55  N         -8.8600   49.6520  -15.7290 N.3   110  GLY110     -0.1225
     56  CA       -10.2770   49.6750  -16.0700 C.3   110  GLY110      0.1811
     57  C        -11.0300   50.8530  -15.4770 C.2   110  GLY110      0.2280
     58  O        -12.2090   50.7210  -15.1750 O.2   110  GLY110     -0.2866
     59  N        -12.7440   54.5190  -15.9480 N.3   112  HIS112     -0.1241
     60  CA       -13.3200   55.3140  -17.0350 C.3   112  HIS112      0.1621
     61  C        -12.8950   56.7730  -16.8980 C.2   112  HIS112      0.2264
     62  O        -13.0840   57.3540  -15.8370 O.2   112  HIS112     -0.2867
     63  CB       -14.8360   55.1920  -16.9840 C.3   112  HIS112      0.0745
     64  CG       -15.5040   55.5310  -18.2680 C.ar  112  HIS112      0.0817
     65  ND1      -15.3690   56.7580  -18.8790 N.ar  112  HIS112     -0.2268
     66  CD2      -16.3380   54.8070  -19.0480 C.ar  112  HIS112      0.1154
     67  CE1      -16.0700   56.7670  -20.0010 C.ar  112  HIS112      0.1986
     68  NE2      -16.6820   55.5990  -20.1190 N.ar  112  HIS112     -0.2212
     69  N        -26.4570   57.0180  -17.3670 N.3   124  ARG124     -0.1245
     70  CA       -25.7380   56.4930  -16.2260 C.3   124  ARG124      0.1563
     71  C        -26.3710   56.9430  -14.9040 C.2   124  ARG124      0.2260
     72  O        -26.4430   56.1700  -13.9650 O.2   124  ARG124     -0.2867
     73  CB       -24.2600   56.9110  -16.3010 C.3   124  ARG124      0.0307
     74  CG       -23.4260   56.4540  -15.1010 C.3   124  ARG124      0.0489
     75  CD       -23.4020   54.9220  -14.9070 C.3   124  ARG124      0.2205
     76  NE       -22.5910   54.2510  -15.9180 N.pl3 124  ARG124     -0.0865
     77  CZ       -21.3580   53.7600  -15.7470 C.cat 124  ARG124      0.5346
     78  NH1      -20.7480   53.2090  -16.7750 N.pl3 124  ARG124      0.1354
     79  NH2      -20.7190   53.8170  -14.5840 N.pl3 124  ARG124      0.1354
     80  N        -27.5780   54.1740  -12.3490 N.3   128  ASP128     -0.1239
     81  CA       -27.0540   54.1300  -10.9910 C.3   128  ASP128      0.1674
     82  C        -28.1730   54.3610   -9.9770 C.2   128  ASP128      0.2266
     83  O        -28.1270   53.7770   -8.8900 O.2   128  ASP128     -0.2867
     84  CB       -25.9300   55.1550  -10.8050 C.3   128  ASP128      0.1410
     85  CG       -24.5980   54.6620  -11.3660 C.2   128  ASP128      0.3668
     86  OD1      -24.4870   53.4650  -11.6840 O.co2 128  ASP128     -0.2456
     87  OD2      -23.6620   55.4770  -11.4950 O.co2 128  ASP128     -0.2456
     88  N        -25.4380   42.1380  -10.6890 N.3   147  TRP147     -0.1227
     89  CA       -24.3070   43.0300  -10.8570 C.3   147  TRP147      0.1737
     90  C        -23.2330   42.3890  -11.7380 C.2   147  TRP147      0.2595
     91  O        -22.6770   43.0120  -12.6500 O.2   147  TRP147     -0.2718
     92  CB       -23.7170   43.3840   -9.4820 C.3   147  TRP147      0.0564
     93  CG       -22.5680   44.3360   -9.5390 C.ar  147  TRP147      0.0003
     94  CD1      -21.2400   44.0220   -9.4740 C.ar  147  TRP147      0.0946
     95  CD2      -22.6520   45.7530   -9.6620 C.ar  147  TRP147      0.0152
     96  NE1      -20.4850   45.1720   -9.5500 N.ar  147  TRP147     -0.2442
     97  CE2      -21.3320   46.2480   -9.6890 C.ar  147  TRP147      0.0810
     98  CE3      -23.7200   46.6530   -9.7950 C.ar  147  TRP147      0.0012
     99  CZ2      -21.0440   47.6080   -9.8300 C.ar  147  TRP147      0.0191
    100  CZ3      -23.4370   48.0080   -9.9220 C.ar  147  TRP147      0.0001
    101  CH2      -22.1010   48.4670   -9.9510 C.ar  147  TRP147      0.0015
    102  N        -22.9420   41.1180  -11.4710 N.am  148  TYR148     -0.1976
    103  CA       -21.8900   40.4080  -12.1900 C.3   148  TYR148      0.1639
    104  C        -22.3650   39.8160  -13.5070 C.2   148  TYR148      0.2290
    105  O        -21.5930   39.0950  -14.1470 O.2   148  TYR148     -0.2864
    106  CB       -21.2290   39.3340  -11.2820 C.3   148  TYR148      0.0560
    107  CG       -20.3060   40.0470  -10.3200 C.ar  148  TYR148     -0.0198
    108  CD1      -19.1800   40.6940  -10.8140 C.ar  148  TYR148     -0.0009
    109  CD2      -20.5950   40.1720   -8.9520 C.ar  148  TYR148     -0.0009
    110  CE1      -18.3450   41.4390   -9.9850 C.ar  148  TYR148      0.0417
    111  CE2      -19.7450   40.8960   -8.1090 C.ar  148  TYR148      0.0417
    112  CZ       -18.6350   41.5260   -8.6340 C.ar  148  TYR148      0.1957
    113  OH       -17.7920   42.2760   -7.8200 O.3   148  TYR148     -0.2866
    114  N        -23.6150   42.2750  -15.6610 N.3   150  GLN150     -0.1245
    115  CA       -23.5290   43.4720  -16.5050 C.3   150  GLN150      0.1566
    116  C        -22.5310   43.2300  -17.6330 C.2   150  GLN150      0.2260
    117  O        -21.6200   42.4080  -17.4790 O.2   150  GLN150     -0.2867
    118  CB       -23.0740   44.6850  -15.7060 C.3   150  GLN150      0.0367
    119  CG       -24.0340   45.1200  -14.6390 C.3   150  GLN150      0.0905
    120  CD       -23.4650   46.2840  -13.8590 C.2   150  GLN150      0.2608
    121  OE1      -23.7720   47.4370  -14.1820 O.2   150  GLN150     -0.2717
    122  NE2      -22.5910   46.0060  -12.8640 N.am  150  GLN150     -0.0878
    123  N        -19.7920   44.6200  -18.6030 N.3   152  VAL152     -0.1231
    124  CA       -18.3770   44.6600  -18.2740 C.3   152  VAL152      0.1692
    125  C        -17.9250   43.3450  -17.6220 C.2   152  VAL152      0.2592
    126  O        -16.7240   43.0400  -17.5940 O.2   152  VAL152     -0.2718
    127  CB       -18.0920   45.8900  -17.3830 C.3   152  VAL152      0.0266
    128  CG1      -18.6450   45.7340  -15.9930 C.3   152  VAL152      0.0020
    129  CG2      -16.6000   46.2100  -17.3510 C.3   152  VAL152      0.0020
    130  N        -18.8760   42.5600  -17.1210 N.am  153  PHE153     -0.1976
    131  CA       -18.5660   41.2640  -16.4950 C.3   153  PHE153      0.1639
    132  C        -19.0790   40.0740  -17.3040 C.2   153  PHE153      0.2290
    133  O        -19.1140   38.9410  -16.7990 O.2   153  PHE153     -0.2864
    134  CB       -19.1440   41.2130  -15.0680 C.3   153  PHE153      0.0560
    135  CG       -18.5470   42.2590  -14.1590 C.ar  153  PHE153     -0.0200
    136  CD1      -17.1720   42.2700  -13.9640 C.ar  153  PHE153     -0.0042
    137  CD2      -19.3210   43.2330  -13.5320 C.ar  153  PHE153     -0.0042
    138  CE1      -16.5730   43.2310  -13.1610 C.ar  153  PHE153     -0.0003
    139  CE2      -18.7360   44.1980  -12.7300 C.ar  153  PHE153     -0.0003
    140  CZ       -17.3560   44.1870  -12.5380 C.ar  153  PHE153     -0.0000
    141  N        -18.7960   39.7540   -2.3730 N.3   168  ARG168     -0.1245
    142  CA       -19.2860   41.1350   -2.2860 C.3   168  ARG168      0.1563
    143  C        -20.5310   41.2380   -1.4060 C.2   168  ARG168      0.2260
    144  O        -20.9010   42.3300   -0.9750 O.2   168  ARG168     -0.2867
    145  CB       -19.6030   41.7140   -3.6660 C.3   168  ARG168      0.0307
    146  CG       -18.4830   41.6030   -4.7110 C.3   168  ARG168      0.0489
    147  CD       -17.1320   42.1260   -4.2490 C.3   168  ARG168      0.2205
    148  NE       -16.2190   42.0830   -5.3850 N.pl3 168  ARG168     -0.0865
    149  CZ       -14.9110   42.3030   -5.2970 C.cat 168  ARG168      0.5346
    150  NH1      -14.3630   42.5630   -4.1180 N.pl3 168  ARG168      0.1354
    151  NH2      -14.1510   42.2690   -6.3850 N.pl3 168  ARG168      0.1354
    152  N        -22.2330   54.8880   -4.3100 N.3   180  LEU180     -0.1245
    153  CA       -22.4850   54.6990   -5.7480 C.3   180  LEU180      0.1561
    154  C        -22.9950   56.0100   -6.3680 C.2   180  LEU180      0.2260
    155  O        -22.5000   56.4860   -7.3940 O.2   180  LEU180     -0.2867
    156  CB       -23.4990   53.5750   -5.9630 C.3   180  LEU180      0.0270
    157  CG       -23.7700   53.2580   -7.4230 C.3   180  LEU180      0.0019
    158  CD1      -22.5000   52.9150   -8.1760 C.3   180  LEU180      0.0001
    159  CD2      -24.7760   52.1130   -7.5360 C.3   180  LEU180      0.0001
    160  N        -13.0020   48.6790  -22.0600 N.3   213  PHE213     -0.1241
    161  CA       -11.9130   49.5050  -21.5540 C.3   213  PHE213      0.1605
    162  C        -10.6510   49.4010  -22.3930 C.2   213  PHE213      0.2264
    163  O         -9.7870   50.2660  -22.3170 O.2   213  PHE213     -0.2867
    164  CB       -11.6730   49.1910  -20.0740 C.3   213  PHE213      0.0534
    165  CG       -12.7500   49.7640  -19.2160 C.ar  213  PHE213     -0.0203
    166  CD1      -13.9480   49.0960  -19.0580 C.ar  213  PHE213     -0.0042
    167  CD2      -12.6160   51.0310  -18.6740 C.ar  213  PHE213     -0.0042
    168  CE1      -14.9850   49.6600  -18.3190 C.ar  213  PHE213     -0.0003
    169  CE2      -13.6320   51.5980  -17.9330 C.ar  213  PHE213     -0.0003
    170  CZ       -14.8270   50.9160  -17.7670 C.ar  213  PHE213     -0.0000
    171  N        -12.3520   42.3760  -16.9250 N.3   232  HIS232     -0.1226
    172  CA       -12.2680   43.7170  -16.3770 C.3   232  HIS232      0.1752
    173  C        -11.4170   43.7750  -15.1130 C.2   232  HIS232      0.2596
    174  O        -10.5310   44.6260  -14.9970 O.2   232  HIS232     -0.2718
    175  CB       -13.6710   44.2280  -16.0900 C.3   232  HIS232      0.0759
    176  CG       -13.7180   45.6400  -15.6150 C.ar  232  HIS232      0.0818
    177  ND1      -13.3740   46.7060  -16.4280 N.ar  232  HIS232     -0.2268
    178  CD2      -14.0650   46.1700  -14.4220 C.ar  232  HIS232      0.1154
    179  CE1      -13.5360   47.8290  -15.7570 C.ar  232  HIS232      0.1986
    180  NE2      -13.9350   47.5310  -14.5240 N.ar  232  HIS232     -0.2212
    181  N        -11.6830   42.8830  -14.1560 N.am  233  ASN233     -0.1974
    182  CA       -10.8500   42.7720  -12.9720 C.3   233  ASN233      0.1688
    183  C         -9.6840   41.8510  -13.3140 C.2   233  ASN233      0.2292
    184  O         -9.6940   40.6490  -13.0460 O.2   233  ASN233     -0.2864
    185  CB       -11.6600   42.2540  -11.7780 C.3   233  ASN233      0.1181
    186  CG       -10.9020   42.3810  -10.4960 C.2   233  ASN233      0.2629
    187  OD1       -9.6640   42.4130  -10.5250 O.2   233  ASN233     -0.2716
    188  ND2      -11.5980   42.4480   -9.3630 N.am  233  ASN233     -0.0877
@<TRIPOS>BOND
     1   162   163    2
     2   162   161    1
     3   160   161    1
     4   161   164    1
     5    68    67   ar
     6    68    66   ar
     7   164   165    1
     8    67    65   ar
     9   165   166   ar
    10   165   167   ar
    11   166   168   ar
    12    66    64   ar
    13    65    64   ar
    14   167   169   ar
    15   123   124    1
    16   168   170   ar
    17   124   125    1
    18   124   127    1
    19    64    63    1
    20   169   170   ar
    21   116   117    2
    22   116   115    1
    23   125   126    2
    24   125   130   am
    25   127   129    1
    26   127   128    1
    27    69    70    1
    28   132   133    2
    29   132   131    1
    30   130   131    1
    31    60    63    1
    32    60    61    1
    33    60    59    1
    34   171   172    1
    35    61    62    2
    36    78    77    1
    37   115   118    1
    38   115   114    1
    39   131   134    1
    40   177   179   ar
    41   177   176   ar
    42   172   175    1
    43   172   173    1
    44    73    70    1
    45    73    74    1
    46    70    71    1
    47   175   176    1
    48    56    55    1
    49    56    57    1
    50    76    77    2
    51    76    75    1
    52   179   180   ar
    53    77    79    1
    54   118   119    1
    55   176   178   ar
    56    57    58    2
    57   173   174    2
    58   173   181   am
    59    74    75    1
    60   134   135    1
    61    71    72    2
    62   119   120    1
    63   180   178   ar
    64   121   120    2
    65   135   136   ar
    66   135   137   ar
    67   181   182    1
    68   105   104    2
    69   136   138   ar
    70   120   122   am
    71   137   139   ar
    72   104   103    1
    73   183   184    2
    74   183   182    1
    75   138   140   ar
    76    50    49    1
    77    50    51    1
    78   182   185    1
    79   139   140   ar
    80    49    48    1
    81    91    90    2
    82    35    34    1
    83    80    81    1
    84    51    52    2
    85   103   102    1
    86   103   106    1
    87   185   186    1
    88    26    24   ar
    89    26    28   ar
    90    90   102   am
    91    90    89    1
    92    31    34    1
    93    31    30    1
    94    31    32    1
    95    86    85   ar
    96    53    52    1
    97    52    54    1
    98    87    85   ar
    99    48    45    1
   100    30    20   am
   101    85    84    1
   102    29    28    1
   103    24    23   ar
   104   106   107    1
   105    45    44    1
   106    45    46    1
   107    33    32    2
   108    81    84    1
   109    81    82    1
   110    32    36   am
   111    28    27   ar
   112    89    88    1
   113    89    92    1
   114   108   107   ar
   115   108   110   ar
   116   187   186    2
   117   186   188   am
   118   107   109   ar
   119    47    46    2
   120    20    19    1
   121    20    21    2
   122    36    37    1
   123    19    22    1
   124    19    18    1
   125   110   112   ar
   126    82    83    2
   127    23    22    1
   128    23    25   ar
   129   101   100   ar
   130   101    99   ar
   131   100    98   ar
   132    99    97   ar
   133    98    95   ar
   134    97    95   ar
   135    97    96   ar
   136    95    93   ar
   137    96    94   ar
   138    93    92    1
   139    93    94   ar
   140    27    25   ar
   141    37    38    1
   142    37    40    1
   143   109   111   ar
   144    38    39    2
   145   112   111   ar
   146   112   113    1
   147    40    41    1
   148   158   157    1
   149    42    41    1
   150   159   157    1
   151   157   156    1
   152   155   154    2
   153    41    43    1
   154     5     6    1
   155     5     2    1
   156     1     2    1
   157     8     6   ar
   158     8    10   ar
   159     6     7   ar
   160   151   149    1
   161   154   153    1
   162     4     3    2
   163     2     3    1
   164    10    11   ar
   165   156   153    1
   166   153   152    1
   167     3    12   am
   168     7     9   ar
   169   148   149    2
   170   148   147    1
   171   149   150    1
   172    11     9   ar
   173    17    16    1
   174   146   147    1
   175   146   145    1
   176    12    13    1
   177    16    13    1
   178   145   142    1
   179    13    14    1
   180    14    15    2
   181   141   142    1
   182   142   143    1
   183   143   144    2
