@<TRIPOS>MOLECULE
tmp/4myxG01.pdb
 187 177 0 0 0
SMALL
GASTEIGER

@<TRIPOS>ATOM
      1  N         25.9250  -33.8170  -46.5290 N.3    54  ALA54      -0.1231
      2  CA        24.8430  -33.0050  -45.9780 C.3    54  ALA54       0.1694
      3  C         23.4770  -33.6760  -46.1040 C.2    54  ALA54       0.2593
      4  O         23.2110  -34.3920  -47.0690 O.2    54  ALA54      -0.2718
      5  CB        24.8210  -31.6370  -46.6430 C.3    54  ALA54       0.0304
      6  N         22.6150  -33.4320  -45.1220 N.am   55  GLY55      -0.1942
      7  CA        21.2680  -33.9720  -45.1350 C.3    55  GLY55       0.2014
      8  C         20.3200  -33.1430  -45.9810 C.2    55  GLY55       0.2638
      9  O         19.3530  -32.5760  -45.4740 O.2    55  GLY55      -0.2714
     10  N         20.5990  -33.0760  -47.2780 N.am   56  MET56      -0.1976
     11  CA        19.7840  -32.2960  -48.1990 C.3    56  MET56       0.1605
     12  C         19.2030  -33.2020  -49.2780 C.2    56  MET56       0.2287
     13  O         19.8020  -34.2200  -49.6250 O.2    56  MET56      -0.2864
     14  CB        20.6260  -31.1890  -48.8280 C.3    56  MET56       0.0413
     15  CG        21.4380  -30.3960  -47.8180 C.3    56  MET56       0.0598
     16  SD        22.6350  -29.2960  -48.5900 S.3    56  MET56      -0.1393
     17  CE        21.5490  -28.1720  -49.4640 C.3    56  MET56       0.0692
     18  N         18.3130  -30.5960  -36.5750 N.3   129  ASP129     -0.1239
     19  CA        18.7300  -29.5210  -37.4620 C.3   129  ASP129      0.1674
     20  C         17.7600  -28.3450  -37.4400 C.2   129  ASP129      0.2266
     21  O         16.5450  -28.5230  -37.5250 O.2   129  ASP129     -0.2867
     22  CB        18.8730  -30.0550  -38.8880 C.3   129  ASP129      0.1410
     23  CG        20.0050  -29.3960  -39.6460 C.2   129  ASP129      0.3668
     24  OD1       20.2330  -28.1850  -39.4430 O.co2 129  ASP129     -0.2456
     25  OD2       20.6700  -30.0940  -40.4410 O.co2 129  ASP129     -0.2456
     26  N         22.2520  -25.6460  -35.9330 N.3   158  ASN158     -0.1240
     27  CA        23.6320  -25.2230  -36.1330 C.3   158  ASN158      0.1653
     28  C         23.9660  -23.9810  -35.3170 C.2   158  ASN158      0.2266
     29  O         23.1540  -23.0630  -35.2000 O.2   158  ASN158     -0.2867
     30  CB        23.9190  -24.9810  -37.6160 C.3   158  ASN158      0.1155
     31  CG        24.1570  -26.2670  -38.3790 C.2   158  ASN158      0.2627
     32  OD1       23.7990  -27.3500  -37.9160 O.2   158  ASN158     -0.2716
     33  ND2       24.7680  -26.1570  -39.5530 N.am  158  ASN158     -0.0877
     34  N         27.1830  -29.2950  -34.2980 N.3   177  LYS177     -0.1245
     35  CA        27.3990  -28.9140  -35.6910 C.3   177  LYS177      0.1561
     36  C         27.5190  -27.4000  -35.8480 C.2   177  LYS177      0.2260
     37  O         26.6270  -26.6510  -35.4530 O.2   177  LYS177     -0.2867
     38  CB        26.2780  -29.4600  -36.5800 C.3   177  LYS177      0.0271
     39  CG        26.5240  -29.2750  -38.0680 C.3   177  LYS177      0.0035
     40  CD        25.9220  -30.4160  -38.8740 C.3   177  LYS177      0.0206
     41  CE        24.4020  -30.3750  -38.8730 C.3   177  LYS177      0.1093
     42  NZ        23.8760  -29.2370  -39.6780 N.3   177  LYS177     -0.1314
     43  N         28.0810  -23.8900  -38.0880 N.3   179  GLY179     -0.1225
     44  CA        27.9390  -23.2420  -39.3780 C.3   179  GLY179      0.1811
     45  C         26.6270  -22.5020  -39.5520 C.2   179  GLY179      0.2280
     46  O         25.5630  -23.1140  -39.6370 O.2   179  GLY179     -0.2866
     47  N         25.4570  -19.6500  -42.2100 N.3   181  GLY181     -0.1210
     48  CA        25.7280  -18.7950  -43.3490 C.3   181  GLY181      0.1940
     49  C         26.8860  -19.0810  -44.3030 C.2   181  GLY181      0.2454
     50  O         27.0520  -18.3350  -45.2690 O.2   181  GLY181     -0.2732
     51  N         27.6960  -20.1370  -44.0700 N.am  182  PRO182     -0.2717
     52  CA        28.7740  -20.2460  -45.0550 C.3   182  PRO182      0.1536
     53  C         28.3860  -21.1150  -46.2470 C.2   182  PRO182      0.2599
     54  O         29.1920  -21.2790  -47.1620 O.2   182  PRO182     -0.2715
     55  CB        29.8800  -20.9360  -44.2620 C.3   182  PRO182      0.0310
     56  CG        29.1350  -21.8590  -43.3710 C.3   182  PRO182      0.0237
     57  CD        27.8460  -21.1510  -43.0070 C.3   182  PRO182      0.0939
     58  N         27.1730  -21.6610  -46.2270 N.am  183  GLY183     -0.1941
     59  CA        26.7060  -22.5430  -47.2820 C.3   183  GLY183      0.2014
     60  C         26.7980  -21.9400  -48.6710 C.2   183  GLY183      0.2640
     61  O         26.4980  -20.7630  -48.8680 O.2   183  GLY183     -0.2714
     62  N         27.2160  -22.7570  -49.6340 N.am  184  SER184     -0.1935
     63  CA        27.3830  -22.3150  -51.0150 C.3   184  SER184      0.2055
     64  C         26.0590  -21.8780  -51.6310 C.2   184  SER184      0.2643
     65  O         26.0290  -21.0810  -52.5680 O.2   184  SER184     -0.2714
     66  CB        27.9920  -23.4360  -51.8570 C.3   184  SER184      0.2130
     67  OG        27.0790  -24.5110  -52.0050 O.3   184  SER184     -0.2179
     68  N         24.9660  -22.4140  -51.1010 N.am  185  ILE185     -0.1963
     69  CA        23.6330  -22.0990  -51.5950 C.3   185  ILE185      0.1727
     70  C         22.8560  -21.2630  -50.5840 C.2   185  ILE185      0.2616
     71  O         21.6490  -21.0640  -50.7230 O.2   185  ILE185     -0.2715
     72  CB        22.8420  -23.3860  -51.9280 C.3   185  ILE185      0.0290
     73  CG1       23.2390  -24.5290  -50.9870 C.3   185  ILE185      0.0022
     74  CG2       23.1000  -23.8100  -53.3630 C.3   185  ILE185      0.0023
     75  CD1       22.7280  -24.3960  -49.5650 C.3   185  ILE185      0.0001
     76  N         23.5620  -20.7800  -49.5660 N.am  186  CYS186     -0.1968
     77  CA        22.9380  -20.0590  -48.4620 C.3   186  CYS186      0.1712
     78  C         22.8710  -18.5520  -48.7020 C.2   186  CYS186      0.2296
     79  O         23.7690  -17.9680  -49.3090 O.2   186  CYS186     -0.2864
     80  CB        23.6840  -20.3500  -47.1580 C.3   186  CYS186      0.0983
     81  SG        23.1820  -19.3200  -45.7640 S.3   186  CYS186     -0.0798
     82  N         21.4000  -16.6380  -45.9250 N.3   188  THR188     -0.1218
     83  CA        21.0200  -16.1990  -44.5820 C.3   188  THR188      0.1862
     84  C         21.6590  -14.8670  -44.2050 C.2   188  THR188      0.2287
     85  O         20.9720  -13.9380  -43.7850 O.2   188  THR188     -0.2866
     86  CB        21.3890  -17.2520  -43.5190 C.3   188  THR188      0.1770
     87  OG1       20.6240  -18.4430  -43.7410 O.3   188  THR188     -0.2211
     88  CG2       21.1070  -16.7250  -42.1190 C.3   188  THR188      0.0375
     89  N         30.3070  -27.4050  -40.8950 N.3   219  ASP219     -0.1225
     90  CA        29.2360  -27.6040  -41.8680 C.3   219  ASP219      0.1805
     91  C         29.0540  -26.4180  -42.8160 C.2   219  ASP219      0.2598
     92  O         28.5880  -25.3520  -42.4130 O.2   219  ASP219     -0.2718
     93  CB        27.9230  -27.9060  -41.1400 C.3   219  ASP219      0.1424
     94  CG        26.7450  -28.0250  -42.0840 C.2   219  ASP219      0.3668
     95  OD1       26.9350  -28.4850  -43.2300 O.co2 219  ASP219     -0.2456
     96  OD2       25.6240  -27.6570  -41.6760 O.co2 219  ASP219     -0.2456
     97  N         29.4150  -26.6190  -44.0800 N.am  220  GLY220     -0.1942
     98  CA        29.2440  -25.5990  -45.0990 C.3   220  GLY220      0.2014
     99  C         30.4690  -24.7240  -45.2920 C.2   220  GLY220      0.2639
    100  O         31.2620  -24.5360  -44.3680 O.2   220  GLY220     -0.2714
    101  N         30.6280  -24.1940  -46.5000 N.am  221  GLY221     -0.1939
    102  CA        31.6930  -23.2490  -46.7830 C.3   221  GLY221      0.2014
    103  C         32.8630  -23.8280  -47.5520 C.2   221  GLY221      0.2638
    104  O         33.5810  -23.1010  -48.2390 O.2   221  GLY221     -0.2714
    105  N         33.0610  -25.1370  -47.4360 N.am  222  ILE222     -0.1977
    106  CA        34.1870  -25.7900  -48.0940 C.3   222  ILE222      0.1596
    107  C         34.0180  -25.7820  -49.6130 C.2   222  ILE222      0.2287
    108  O         33.0050  -26.2410  -50.1380 O.2   222  ILE222     -0.2864
    109  CB        34.4030  -27.2340  -47.5840 C.3   222  ILE222      0.0276
    110  CG1       34.7900  -27.2340  -46.1010 C.3   222  ILE222      0.0022
    111  CG2       35.4860  -27.9290  -48.3890 C.3   222  ILE222      0.0022
    112  CD1       33.6180  -27.3320  -45.1420 C.3   222  ILE222      0.0001
    113  N         31.2750  -31.2920  -43.0070 N.3   240  MET240     -0.1230
    114  CA        30.0540  -31.6810  -43.7060 C.3   240  MET240      0.1702
    115  C         29.9400  -30.9380  -45.0340 C.2   240  MET240      0.2592
    116  O         29.9510  -29.7070  -45.0690 O.2   240  MET240     -0.2718
    117  CB        28.8190  -31.4280  -42.8370 C.3   240  MET240      0.0401
    118  CG        27.5020  -31.7550  -43.5270 C.3   240  MET240      0.0596
    119  SD        26.0780  -31.6500  -42.4250 S.3   240  MET240     -0.1393
    120  CE        26.3910  -33.0420  -41.3430 C.3   240  MET240      0.0692
    121  N         29.8290  -31.6930  -46.1220 N.am  241  LEU241     -0.1966
    122  CA        29.8700  -31.1200  -47.4610 C.3   241  LEU241      0.1728
    123  C         28.5500  -31.2950  -48.2100 C.2   241  LEU241      0.2617
    124  O         27.8690  -32.3120  -48.0650 O.2   241  LEU241     -0.2715
    125  CB        31.0190  -31.7330  -48.2620 C.3   241  LEU241      0.0311
    126  CG        32.3820  -31.7690  -47.5710 C.3   241  LEU241      0.0022
    127  CD1       33.4480  -32.3320  -48.4960 C.3   241  LEU241      0.0001
    128  CD2       32.7790  -30.3920  -47.0780 C.3   241  LEU241      0.0001
    129  N         28.2000  -30.2950  -49.0130 N.am  242  GLY242     -0.1940
    130  CA        26.9730  -30.3230  -49.7890 C.3   242  GLY242      0.2014
    131  C         27.2180  -30.1510  -51.2760 C.2   242  GLY242      0.2640
    132  O         27.0120  -31.0810  -52.0560 O.2   242  GLY242     -0.2714
    133  N         27.6650  -28.9620  -51.6690 N.am  243  SER243     -0.1935
    134  CA        27.8850  -28.6500  -53.0800 C.3   243  SER243      0.2055
    135  C         28.9450  -29.5360  -53.7280 C.2   243  SER243      0.2642
    136  O         28.8780  -29.8190  -54.9220 O.2   243  SER243     -0.2714
    137  CB        28.2770  -27.1820  -53.2550 C.3   243  SER243      0.2130
    138  OG        29.6430  -26.9830  -52.9400 O.3   243  SER243     -0.2179
    139  N         29.9250  -29.9670  -52.9420 N.am  244  MET244     -0.1976
    140  CA        31.0210  -30.7650  -53.4810 C.3   244  MET244      0.1605
    141  C         30.6040  -32.2200  -53.6750 C.2   244  MET244      0.2287
    142  O         31.2320  -32.9610  -54.4330 O.2   244  MET244     -0.2864
    143  CB        32.2530  -30.6750  -52.5770 C.3   244  MET244      0.0413
    144  CG        33.5560  -31.0230  -53.2790 C.3   244  MET244      0.0598
    145  SD        34.9880  -30.1960  -52.5640 S.3   244  MET244     -0.1393
    146  CE        34.1960  -28.8340  -51.7190 C.3   244  MET244      0.0692
    147  N         21.0900  -28.8290  -57.5260 N.3   266  TYR266     -0.1241
    148  CA        21.4920  -28.6190  -56.1400 C.3   266  TYR266      0.1605
    149  C         20.9220  -27.3190  -55.5830 C.2   266  TYR266      0.2264
    150  O         21.2420  -26.2320  -56.0650 O.2   266  TYR266     -0.2867
    151  CB        23.0150  -28.6200  -56.0140 C.3   266  TYR266      0.0534
    152  CG        23.5110  -28.3630  -54.6090 C.ar  266  TYR266     -0.0201
    153  CD1       23.1880  -29.2270  -53.5710 C.ar  266  TYR266     -0.0009
    154  CD2       24.3090  -27.2640  -54.3220 C.ar  266  TYR266     -0.0009
    155  CE1       23.6410  -29.0000  -52.2870 C.ar  266  TYR266      0.0417
    156  CE2       24.7650  -27.0280  -53.0380 C.ar  266  TYR266      0.0417
    157  CZ        24.4300  -27.9020  -52.0240 C.ar  266  TYR266      0.1957
    158  OH        24.8780  -27.6820  -50.7430 O.3   266  TYR266     -0.2866
    159  N         19.3660  -25.2710  -51.7340 N.3   268  GLY268     -0.1210
    160  CA        19.2980  -25.2690  -50.2860 C.3   268  GLY268      0.1956
    161  C         17.9370  -25.7020  -49.7800 C.2   268  GLY268      0.2612
    162  O         16.9300  -25.5300  -50.4640 O.2   268  GLY268     -0.2717
    163  N         17.9030  -26.2640  -48.5760 N.am  269  MET269     -0.1965
    164  CA        16.6500  -26.7080  -47.9770 C.3   269  MET269      0.1736
    165  C         15.7790  -25.5230  -47.5690 C.2   269  MET269      0.2617
    166  O         14.5830  -25.6760  -47.3270 O.2   269  MET269     -0.2715
    167  CB        16.9170  -27.6090  -46.7700 C.3   269  MET269      0.0427
    168  CG        17.7130  -28.8640  -47.0930 C.3   269  MET269      0.0599
    169  SD        16.8950  -29.9280  -48.2980 S.3   269  MET269     -0.1393
    170  CE        15.3640  -30.2930  -47.4440 C.3   269  MET269      0.0692
    171  N         16.3850  -24.3430  -47.4930 N.am  270  GLY270     -0.1955
    172  CA        15.6620  -23.1390  -47.1340 C.3   270  GLY270      0.1869
    173  C         15.1550  -22.3920  -48.3510 C.2   270  GLY270      0.2309
    174  O         14.4900  -21.3640  -48.2270 O.2   270  GLY270     -0.2863
    175  N         15.8440  -18.6760  -47.2660 N.3   286  GLU286     -0.1231
    176  CA        17.2150  -18.3720  -46.8840 C.3   286  GLU286      0.1699
    177  C         18.1720  -19.2420  -47.6860 C.2   286  GLU286      0.2592
    178  O         19.1970  -19.6990  -47.1780 O.2   286  GLU286     -0.2718
    179  CB        17.4220  -18.5830  -45.3840 C.3   286  GLU286      0.0402
    180  CG        16.5250  -17.7190  -44.5130 C.3   286  GLU286      0.1161
    181  CD        16.9540  -17.7140  -43.0600 C.2   286  GLU286      0.3649
    182  OE1       16.1010  -17.4460  -42.1880 O.co2 286  GLU286     -0.2457
    183  OE2       18.1450  -17.9720  -42.7900 O.co2 286  GLU286     -0.2457
    184  N         17.8210  -19.4670  -48.9480 N.am  287  GLY287     -0.1957
    185  CA        18.6220  -20.2820  -49.8390 C.3   287  GLY287      0.1869
    186  C         18.1770  -20.1340  -51.2800 C.2   287  GLY287      0.2309
    187  O         17.0910  -19.6220  -51.5540 O.2   287  GLY287     -0.2863
@<TRIPOS>BOND
     1   147   148    1
     2   148   151    1
     3   148   149    1
     4   150   149    2
     5   151   152    1
     6   136   135    2
     7   152   154   ar
     8   152   153   ar
     9   142   141    2
    10   154   156   ar
    11   135   134    1
    12   135   139   am
    13   141   140    1
    14   153   155   ar
    15   140   139    1
    16   140   143    1
    17    74    72    1
    18   144   143    1
    19   144   145    1
    20   137   134    1
    21   137   138    1
    22   134   133    1
    23   156   157   ar
    24    65    64    2
    25   145   146    1
    26   155   157   ar
    27   132   131    2
    28   157   158    1
    29    67    66    1
    30    72    69    1
    31    72    73    1
    32    66    63    1
    33   159   160    1
    34   133   131   am
    35    64    68   am
    36    64    63    1
    37    69    68    1
    38    69    70    1
    39   187   186    2
    40   186   185    1
    41   131   130    1
    42    63    62    1
    43    73    75    1
    44    71    70    2
    45    70    76   am
    46   162   161    2
    47   160   161    1
    48   108   107    2
    49   185   184    1
    50   130   129    1
    51   161   163   am
    52    62    60   am
    53    13    12    2
    54   107   106    1
    55    76    77    1
    56    17    16    1
    57    79    78    2
    58    12    11    1
    59   129   123   am
    60   184   177   am
    61    61    60    2
    62    14    11    1
    63    14    15    1
    64    78    77    1
    65    60    59    1
    66    16    15    1
    67   163   164    1
    68   127   126    1
    69    77    80    1
    70   111   109    1
    71   173   174    2
    72   173   172    1
    73   169   170    1
    74   169   168    1
    75   125   126    1
    76   125   122    1
    77   104   103    2
    78   123   124    2
    79   123   122    1
    80    11    10    1
    81   106   109    1
    82   106   105    1
    83   164   165    1
    84   164   167    1
    85   177   178    2
    86   177   176    1
    87   109   110    1
    88   126   128    1
    89   165   171   am
    90   165   166    2
    91   103   105   am
    92   103   102    1
    93   171   172    1
    94   122   121    1
    95    59    58    1
    96    10     8   am
    97   175   176    1
    98    54    53    2
    99    80    81    1
   100   168   167    1
   101     4     3    2
   102   176   179    1
   103   102   101    1
   104     5     2    1
   105     1     2    1
   106   101    99   am
   107    53    58   am
   108    53    52    1
   109   121   115   am
   110     3     2    1
   111     3     6   am
   112   110   112    1
   113     8     9    2
   114     8     7    1
   115    82    83    1
   116   179   180    1
   117    99    98    1
   118    99   100    2
   119    50    49    2
   120     7     6    1
   121    98    97    1
   122   116   115    2
   123    52    55    1
   124    52    51    1
   125   115   114    1
   126    83    84    1
   127    83    86    1
   128   180   181    1
   129    49    51   am
   130    49    48    1
   131    55    56    1
   132    84    85    2
   133    97    91   am
   134    51    57    1
   135    87    86    1
   136   114   113    1
   137   114   117    1
   138   118   117    1
   139   118   119    1
   140    86    88    1
   141    56    57    1
   142    48    47    1
   143    95    94   ar
   144   181   183   ar
   145   181   182   ar
   146    91    92    2
   147    91    90    1
   148   119   120    1
   149    94    96   ar
   150    94    93    1
   151    90    93    1
   152    90    89    1
   153    25    23   ar
   154    42    41    1
   155    23    24   ar
   156    23    22    1
   157    46    45    2
   158    33    31   am
   159    45    44    1
   160    44    43    1
   161    22    19    1
   162    40    41    1
   163    40    39    1
   164    31    32    2
   165    31    30    1
   166    39    38    1
   167    30    27    1
   168    21    20    2
   169    19    20    1
   170    19    18    1
   171    38    35    1
   172    27    26    1
   173    27    28    1
   174    36    35    1
   175    36    37    2
   176    35    34    1
   177    28    29    2
