@<TRIPOS>MOLECULE
tmp/4myxG00.pdb
 114 105 0 0 0
SMALL
GASTEIGER

@<TRIPOS>ATOM
      1  N         15.3320  -35.0190  -44.3790 N.3    79  LYS79      -0.1245
      2  CA        14.0130  -35.1430  -43.7680 C.3    79  LYS79       0.1561
      3  C         12.8990  -34.6310  -44.6760 C.2    79  LYS79       0.2260
      4  O         11.7790  -34.3990  -44.2210 O.2    79  LYS79      -0.2867
      5  CB        13.9760  -34.3920  -42.4360 C.3    79  LYS79       0.0271
      6  CG        14.2040  -32.8970  -42.5750 C.3    79  LYS79       0.0035
      7  CD        14.3750  -32.2210  -41.2250 C.3    79  LYS79       0.0206
      8  CE        14.6950  -30.7440  -41.4000 C.3    79  LYS79       0.1093
      9  NZ        15.0920  -30.0890  -40.1240 N.3    79  LYS79      -0.1314
     10  N         18.3130  -30.5960  -36.5750 N.3   129  ASP129     -0.1225
     11  CA        18.7300  -29.5210  -37.4620 C.3   129  ASP129      0.1805
     12  C         17.7600  -28.3450  -37.4400 C.2   129  ASP129      0.2598
     13  O         16.5450  -28.5230  -37.5250 O.2   129  ASP129     -0.2718
     14  CB        18.8730  -30.0550  -38.8880 C.3   129  ASP129      0.1424
     15  CG        20.0050  -29.3960  -39.6460 C.2   129  ASP129      0.3668
     16  OD1       20.2330  -28.1850  -39.4430 O.co2 129  ASP129     -0.2456
     17  OD2       20.6700  -30.0940  -40.4410 O.co2 129  ASP129     -0.2456
     18  N         18.3130  -27.1420  -37.3200 N.am  130  THR130     -0.1939
     19  CA        17.5300  -25.9140  -37.3490 C.3   130  THR130      0.2028
     20  C         18.4470  -24.7660  -37.7620 C.2   130  THR130      0.2642
     21  O         19.6400  -24.7880  -37.4630 O.2   130  THR130     -0.2714
     22  CB        16.8850  -25.6190  -35.9750 C.3   130  THR130      0.1808
     23  OG1       16.0500  -26.7180  -35.5900 O.3   130  THR130     -0.2208
     24  CG2       16.0350  -24.3580  -36.0260 C.3   130  THR130      0.0379
     25  N         17.8920  -23.7830  -38.4670 N.am  131  ALA131     -0.1963
     26  CA        18.6490  -22.6160  -38.9080 C.3   131  ALA131      0.1728
     27  C         19.3550  -21.9320  -37.7410 C.2   131  ALA131      0.2616
     28  O         20.4950  -21.4860  -37.8690 O.2   131  ALA131     -0.2715
     29  CB        17.7340  -21.6360  -39.6230 C.3   131  ALA131      0.0334
     30  N         18.6720  -21.8580  -36.6030 N.am  132  HIS132     -0.1973
     31  CA        19.2560  -21.2890  -35.3950 C.3   132  HIS132      0.1656
     32  C         19.3240  -22.3420  -34.2940 C.2   132  HIS132      0.2291
     33  O         18.3420  -22.5830  -33.5900 O.2   132  HIS132     -0.2864
     34  CB        18.4430  -20.0850  -34.9180 C.3   132  HIS132      0.0771
     35  CG        19.1160  -19.2890  -33.8430 C.ar  132  HIS132      0.0820
     36  ND1       20.4810  -19.3090  -33.6470 N.ar  132  HIS132     -0.2267
     37  CD2       18.6140  -18.4530  -32.9040 C.ar  132  HIS132      0.1154
     38  CE1       20.7900  -18.5170  -32.6360 C.ar  132  HIS132      0.1986
     39  NE2       19.6750  -17.9860  -32.1670 N.ar  132  HIS132     -0.2212
     40  N         18.6500  -21.9520  -29.8590 N.3   135  SER135     -0.1217
     41  CA        17.2940  -21.5730  -29.4800 C.3   135  SER135      0.1889
     42  C         16.7500  -22.5450  -28.4400 C.2   135  SER135      0.2288
     43  O         17.2080  -23.6820  -28.3490 O.2   135  SER135     -0.2866
     44  CB        16.3810  -21.5400  -30.7110 C.3   135  SER135      0.2089
     45  OG        16.3950  -22.7750  -31.3910 O.3   135  SER135     -0.2183
     46  N         26.7060  -21.1760  -39.5980 N.3   180  ILE180     -0.1231
     47  CA        25.5430  -20.3440  -39.8910 C.3   180  ILE180      0.1692
     48  C         25.8800  -19.3410  -40.9880 C.2   180  ILE180      0.2592
     49  O         26.5260  -18.3210  -40.7390 O.2   180  ILE180     -0.2718
     50  CB        25.0290  -19.6010  -38.6430 C.3   180  ILE180      0.0266
     51  CG1       24.5410  -20.6010  -37.5930 C.3   180  ILE180      0.0019
     52  CG2       23.9020  -18.6510  -39.0160 C.3   180  ILE180      0.0020
     53  CD1       23.9050  -19.9570  -36.3830 C.3   180  ILE180      0.0001
     54  N         25.4570  -19.6500  -42.2100 N.am  181  GLY181     -0.1957
     55  CA        25.7280  -18.7950  -43.3490 C.3   181  GLY181      0.1869
     56  C         26.8860  -19.0810  -44.3030 C.2   181  GLY181      0.2309
     57  O         27.0520  -18.3350  -45.2690 O.2   181  GLY181     -0.2863
     58  N         23.5620  -20.7800  -49.5660 N.3   186  CYS186     -0.1235
     59  CA        22.9380  -20.0590  -48.4620 C.3   186  CYS186      0.1677
     60  C         22.8710  -18.5520  -48.7020 C.2   186  CYS186      0.2270
     61  O         23.7690  -17.9680  -49.3090 O.2   186  CYS186     -0.2867
     62  CB        23.6840  -20.3500  -47.1580 C.3   186  CYS186      0.0956
     63  SG        23.1820  -19.3200  -45.7640 S.3   186  CYS186     -0.0801
     64  N         21.4000  -16.6380  -45.9250 N.3   188  THR188     -0.1218
     65  CA        21.0200  -16.1990  -44.5820 C.3   188  THR188      0.1862
     66  C         21.6590  -14.8670  -44.2050 C.2   188  THR188      0.2287
     67  O         20.9720  -13.9380  -43.7850 O.2   188  THR188     -0.2866
     68  CB        21.3890  -17.2520  -43.5190 C.3   188  THR188      0.1770
     69  OG1       20.6240  -18.4430  -43.7410 O.3   188  THR188     -0.2211
     70  CG2       21.1070  -16.7250  -42.1190 C.3   188  THR188      0.0375
     71  N         17.9030  -26.2640  -48.5760 N.3   269  MET269     -0.1230
     72  CA        16.6500  -26.7080  -47.9770 C.3   269  MET269      0.1702
     73  C         15.7790  -25.5230  -47.5690 C.2   269  MET269      0.2592
     74  O         14.5830  -25.6760  -47.3270 O.2   269  MET269     -0.2718
     75  CB        16.9170  -27.6090  -46.7700 C.3   269  MET269      0.0401
     76  CG        17.7130  -28.8640  -47.0930 C.3   269  MET269      0.0596
     77  SD        16.8950  -29.9280  -48.2980 S.3   269  MET269     -0.1393
     78  CE        15.3640  -30.2930  -47.4440 C.3   269  MET269      0.0692
     79  N         16.3850  -24.3430  -47.4930 N.am  270  GLY270     -0.1957
     80  CA        15.6620  -23.1390  -47.1340 C.3   270  GLY270      0.1869
     81  C         15.1550  -22.3920  -48.3510 C.2   270  GLY270      0.2309
     82  O         14.4900  -21.3640  -48.2270 O.2   270  GLY270     -0.2863
     83  N         11.0240  -26.2760  -50.2150 N.3   275  MET275     -0.1245
     84  CA        10.0640  -25.9480  -49.1670 C.3   275  MET275      0.1570
     85  C          8.6220  -26.0200  -49.6580 C.2   275  MET275      0.2261
     86  O          7.6890  -25.7600  -48.8990 O.2   275  MET275     -0.2867
     87  CB        10.3520  -24.5640  -48.5790 C.3   275  MET275      0.0387
     88  CG        11.5780  -24.5120  -47.6840 C.3   275  MET275      0.0595
     89  SD        11.4190  -25.5410  -46.2110 S.3   275  MET275     -0.1393
     90  CE        10.0740  -24.7170  -45.3630 C.3   275  MET275      0.0692
     91  N          6.7800  -17.8820  -48.3360 N.3   283  LEU283     -0.1231
     92  CA         8.1010  -18.1770  -47.8000 C.3   283  LEU283      0.1693
     93  C          9.0660  -17.0090  -47.9700 C.2   283  LEU283      0.2591
     94  O          9.1390  -16.4000  -49.0380 O.2   283  LEU283     -0.2718
     95  CB         8.6830  -19.4240  -48.4690 C.3   283  LEU283      0.0284
     96  CG        10.1270  -19.7720  -48.1010 C.3   283  LEU283      0.0019
     97  CD1       10.2470  -20.0880  -46.6160 C.3   283  LEU283      0.0001
     98  CD2       10.6360  -20.9320  -48.9400 C.3   283  LEU283      0.0001
     99  N          9.7860  -16.6940  -46.8990 N.am  284  VAL284     -0.1980
    100  CA        10.9510  -15.8260  -46.9820 C.3   284  VAL284      0.1595
    101  C         12.1660  -16.7410  -46.9300 C.2   284  VAL284      0.2287
    102  O         12.6700  -17.0550  -45.8510 O.2   284  VAL284     -0.2864
    103  CB        11.0020  -14.8110  -45.8260 C.3   284  VAL284      0.0276
    104  CG1       12.2230  -13.9100  -45.9610 C.3   284  VAL284      0.0022
    105  CG2        9.7270  -13.9800  -45.7960 C.3   284  VAL284      0.0022
    106  N         15.8440  -18.6760  -47.2660 N.3   286  GLU286     -0.1245
    107  CA        17.2150  -18.3720  -46.8840 C.3   286  GLU286      0.1567
    108  C         18.1720  -19.2420  -47.6860 C.2   286  GLU286      0.2260
    109  O         19.1970  -19.6990  -47.1780 O.2   286  GLU286     -0.2867
    110  CB        17.4220  -18.5830  -45.3840 C.3   286  GLU286      0.0388
    111  CG        16.5250  -17.7190  -44.5130 C.3   286  GLU286      0.1160
    112  CD        16.9540  -17.7140  -43.0600 C.2   286  GLU286      0.3649
    113  OE1       16.1010  -17.4460  -42.1880 O.co2 286  GLU286     -0.2457
    114  OE2       18.1450  -17.9720  -42.7900 O.co2 286  GLU286     -0.2457
@<TRIPOS>BOND
     1    83    84    1
     2    85    84    1
     3    85    86    2
     4    58    59    1
     5    61    60    2
     6    84    87    1
     7    94    93    2
     8    98    96    1
     9    60    59    1
    10    87    88    1
    11    71    72    1
    12    95    96    1
    13    95    92    1
    14    59    62    1
    15    81    82    2
    16    81    80    1
    17    91    92    1
    18    77    78    1
    19    77    76    1
    20    96    97    1
    21    72    73    1
    22    72    75    1
    23    93    92    1
    24    93    99   am
    25   108   109    2
    26   108   107    1
    27    88    89    1
    28    73    79   am
    29    73    74    2
    30    79    80    1
    31   106   107    1
    32    62    63    1
    33    76    75    1
    34   100   101    1
    35   100    99    1
    36   100   103    1
    37   101   102    2
    38   107   110    1
    39    89    90    1
    40   104   103    1
    41    64    65    1
    42   103   105    1
    43   110   111    1
    44    57    56    2
    45     3     4    2
    46     3     2    1
    47    65    66    1
    48    65    68    1
    49   111   112    1
    50     1     2    1
    51    56    55    1
    52    66    67    2
    53     2     5    1
    54    69    68    1
    55    68    70    1
    56    55    54    1
    57   112   114   ar
    58   112   113   ar
    59     6     5    1
    60     6     7    1
    61    54    48   am
    62     8     7    1
    63     8     9    1
    64    48    49    2
    65    48    47    1
    66    17    15   ar
    67    47    46    1
    68    47    50    1
    69    15    16   ar
    70    15    14    1
    71    29    26    1
    72    52    50    1
    73    26    25    1
    74    26    27    1
    75    14    11    1
    76    50    51    1
    77    25    20   am
    78    28    27    2
    79    20    21    2
    80    20    19    1
    81    27    30   am
    82    51    53    1
    83    13    12    2
    84    11    12    1
    85    11    10    1
    86    12    18   am
    87    19    18    1
    88    19    22    1
    89    30    31    1
    90    24    22    1
    91    22    23    1
    92    31    34    1
    93    31    32    1
    94    34    35    1
    95    32    33    2
    96    35    36   ar
    97    35    37   ar
    98    36    38   ar
    99    37    39   ar
   100    38    39   ar
   101    45    44    1
   102    44    41    1
   103    40    41    1
   104    41    42    1
   105    42    43    2
