@<TRIPOS>MOLECULE
tmp/4mz1C01.pdb
 84 77 0 0 0
SMALL
GASTEIGER

@<TRIPOS>ATOM
      1  N         -6.1080   32.5480   42.5600 N.3   139  SER139     -0.1202
      2  CA        -7.4530   32.0180   42.6310 C.3   139  SER139      0.2020
      3  C         -7.3760   30.4990   42.5970 C.2   139  SER139      0.2619
      4  O         -6.4180   29.9200   42.0720 O.2   139  SER139     -0.2717
      5  CB        -8.2750   32.5030   41.4430 C.3   139  SER139      0.2103
      6  OG        -9.6370   32.1310   41.5880 O.3   139  SER139     -0.2182
      7  N         -8.3810   29.8450   43.1590 N.am  140  ALA140     -0.1965
      8  CA        -8.4840   28.4060   42.9990 C.3   140  ALA140      0.1728
      9  C         -8.5250   28.0630   41.5060 C.2   140  ALA140      0.2616
     10  O         -7.9810   27.0470   41.0730 O.2   140  ALA140     -0.2715
     11  CB        -9.7150   27.8790   43.7100 C.3   140  ALA140      0.0334
     12  N         -9.1460   28.9360   40.7190 N.am  141  HIS141     -0.1973
     13  CA        -9.3480   28.6660   39.3040 C.3   141  HIS141      0.1656
     14  C         -8.8530   29.8210   38.4310 C.2   141  HIS141      0.2291
     15  O         -9.6160   30.7390   38.0890 O.2   141  HIS141     -0.2864
     16  CB       -10.8300   28.3760   39.0440 C.3   141  HIS141      0.0771
     17  CG       -11.1080   27.7660   37.7030 C.ar  141  HIS141      0.0820
     18  ND1      -10.1440   27.1090   36.9670 N.ar  141  HIS141     -0.2267
     19  CD2      -12.2460   27.7090   36.9710 C.ar  141  HIS141      0.1154
     20  CE1      -10.6770   26.6750   35.8370 C.ar  141  HIS141      0.1986
     21  NE2      -11.9510   27.0220   35.8170 N.ar  141  HIS141     -0.2212
     22  N         -4.0310   20.4280   50.5650 N.3   195  CYS195     -0.1235
     23  CA        -5.1010   20.6860   49.6020 C.3   195  CYS195      0.1677
     24  C         -6.0090   19.4830   49.3910 C.2   195  CYS195      0.2270
     25  O         -5.5290   18.3590   49.2560 O.2   195  CYS195     -0.2867
     26  CB        -4.4840   21.1050   48.2650 C.3   195  CYS195      0.0956
     27  SG        -5.6680   21.2760   46.9340 S.3   195  CYS195     -0.0801
     28  N         -8.8350   19.8240   47.1080 N.3   197  THR197     -0.1218
     29  CA        -9.5480   20.1550   45.8700 C.3   197  THR197      0.1862
     30  C         -9.9090   18.9550   44.9800 C.2   197  THR197      0.2287
     31  O        -11.0690   18.7690   44.5870 O.2   197  THR197     -0.2866
     32  CB        -8.7050   21.1540   45.0310 C.3   197  THR197      0.1770
     33  OG1       -8.5740   22.3860   45.7500 O.3   197  THR197     -0.2211
     34  CG2       -9.3350   21.4110   43.6590 C.3   197  THR197      0.0375
     35  N        -13.7050   18.2360   44.7660 N.3   201  SER201     -0.1217
     36  CA       -14.3470   18.6020   43.5000 C.3   201  SER201      0.1889
     37  C        -14.1130   17.5920   42.3710 C.2   201  SER201      0.2288
     38  O        -14.7710   17.6560   41.3330 O.2   201  SER201     -0.2866
     39  CB       -13.8740   19.9810   43.0360 C.3   201  SER201      0.2089
     40  OG       -12.6030   19.8760   42.4120 O.3   201  SER201     -0.2183
     41  N         -5.0950   27.7500   52.8400 N.3   278  MET278     -0.1230
     42  CA        -5.8010   29.0170   52.8050 C.3   278  MET278      0.1702
     43  C         -7.2490   28.7880   52.4260 C.2   278  MET278      0.2592
     44  O         -8.0760   29.6830   52.5550 O.2   278  MET278     -0.2718
     45  CB        -5.1350   29.9740   51.8130 C.3   278  MET278      0.0401
     46  CG        -3.6730   30.2400   52.1560 C.3   278  MET278      0.0596
     47  SD        -3.4750   31.0310   53.7720 S.3   278  MET278     -0.1393
     48  CE        -4.2300   32.6050   53.4080 C.3   278  MET278      0.0692
     49  N         -7.5500   27.5800   51.9600 N.am  279  GLY279     -0.1957
     50  CA        -8.9170   27.1930   51.6690 C.3   279  GLY279      0.1869
     51  C         -9.5440   26.3750   52.7940 C.2   279  GLY279      0.2309
     52  O        -10.6140   25.7910   52.6140 O.2   279  GLY279     -0.2863
     53  N        -10.3750   30.7420   56.5560 N.3   284  MET284     -0.1245
     54  CA       -11.4540   31.5440   56.0130 C.3   284  MET284      0.1570
     55  C        -12.2790   32.1740   57.1310 C.2   284  MET284      0.2261
     56  O        -13.4760   32.3720   56.9710 O.2   284  MET284     -0.2867
     57  CB       -12.3450   30.7000   55.0930 C.3   284  MET284      0.0387
     58  CG       -11.6240   30.1710   53.8500 C.3   284  MET284      0.0595
     59  SD       -12.6790   29.2130   52.7360 S.3   284  MET284     -0.1393
     60  CE       -13.1400   27.8190   53.7740 C.3   284  MET284      0.0692
     61  N        -19.6560   27.1690   54.9160 N.3   287  LEU287     -0.1231
     62  CA       -18.4890   27.0500   54.0350 C.3   287  LEU287      0.1693
     63  C        -18.1400   25.6160   53.6310 C.2   287  LEU287      0.2591
     64  O        -18.2360   24.6950   54.4420 O.2   287  LEU287     -0.2718
     65  CB       -17.2590   27.7300   54.6530 C.3   287  LEU287      0.0284
     66  CG       -17.1410   29.2560   54.5360 C.3   287  LEU287      0.0019
     67  CD1      -16.0170   29.7830   55.4120 C.3   287  LEU287      0.0001
     68  CD2      -16.9260   29.6780   53.0880 C.3   287  LEU287      0.0001
     69  N        -17.7340   25.4550   52.3670 N.am  288  VAL288     -0.1980
     70  CA       -17.2390   24.1850   51.8360 C.3   288  VAL288      0.1595
     71  C        -15.7570   24.3070   51.4440 C.2   288  VAL288      0.2287
     72  O        -15.4080   24.7580   50.3460 O.2   288  VAL288     -0.2864
     73  CB       -18.1010   23.6710   50.6690 C.3   288  VAL288      0.0276
     74  CG1      -18.2780   24.7450   49.6290 C.3   288  VAL288      0.0022
     75  CG2      -17.5070   22.3990   50.0510 C.3   288  VAL288      0.0022
     76  N        -11.5320   23.6100   50.8390 N.3   290  GLU290     -0.1245
     77  CA       -10.7570   22.8250   49.8880 C.3   290  GLU290      0.1567
     78  C         -9.3470   22.6670   50.4230 C.2   290  GLU290      0.2260
     79  O         -8.3980   22.5010   49.6640 O.2   290  GLU290     -0.2867
     80  CB       -10.7540   23.4650   48.4960 C.3   290  GLU290      0.0388
     81  CG       -12.1220   23.5070   47.8590 C.3   290  GLU290      0.1160
     82  CD       -12.0940   23.8170   46.3600 C.2   290  GLU290      0.3649
     83  OE1      -11.0640   23.5290   45.7040 O.co2 290  GLU290     -0.2457
     84  OE2      -13.1130   24.3340   45.8400 O.co2 290  GLU290     -0.2457
@<TRIPOS>BOND
     1    21    20   ar
     2    21    19   ar
     3    20    18   ar
     4    18    17   ar
     5    19    17   ar
     6    17    16    1
     7    15    14    2
     8    14    13    1
     9    16    13    1
    10    13    12    1
    11    12     9   am
    12    10     9    2
    13    38    37    2
    14     5     6    1
    15     5     2    1
    16     9     8    1
    17     4     3    2
    18    37    36    1
    19    40    39    1
    20     1     2    1
    21     3     2    1
    22     3     7   am
    23     8     7    1
    24     8    11    1
    25    39    36    1
    26    36    35    1
    27    34    32    1
    28    31    30    2
    29    30    29    1
    30    32    33    1
    31    32    29    1
    32    83    82   ar
    33    84    82   ar
    34    29    28    1
    35    82    81    1
    36    27    26    1
    37    81    80    1
    38    26    23    1
    39    80    77    1
    40    25    24    2
    41    24    23    1
    42    23    22    1
    43    74    73    1
    44    79    78    2
    45    77    78    1
    46    77    76    1
    47    75    73    1
    48    72    71    2
    49    73    70    1
    50    71    70    1
    51    50    49    1
    52    50    51    1
    53    45    46    1
    54    45    42    1
    55    70    69    1
    56    49    43   am
    57    46    47    1
    58    69    63   am
    59    43    44    2
    60    43    42    1
    61    52    51    2
    62    59    60    1
    63    59    58    1
    64    42    41    1
    65    68    66    1
    66    48    47    1
    67    63    62    1
    68    63    64    2
    69    58    57    1
    70    62    65    1
    71    62    61    1
    72    66    65    1
    73    66    67    1
    74    57    54    1
    75    54    53    1
    76    54    55    1
    77    56    55    2
