@<TRIPOS>MOLECULE
tmp/4mz4A00.pdb
 166 158 0 0 0
SMALL
GASTEIGER

@<TRIPOS>ATOM
      1  N         23.6810   35.9140   41.5890 N.3   188  PHE188     -0.1241
      2  CA        22.3990   36.6190   41.6180 C.3   188  PHE188      0.1605
      3  C         21.1880   35.8000   42.0740 C.2   188  PHE188      0.2264
      4  O         20.0990   36.3730   42.2430 O.2   188  PHE188     -0.2867
      5  CB        22.1630   37.3160   40.2730 C.3   188  PHE188      0.0534
      6  CG        23.1480   38.4130   39.9530 C.ar  188  PHE188     -0.0203
      7  CD1       23.0760   39.6520   40.5980 C.ar  188  PHE188     -0.0042
      8  CD2       24.1020   38.2430   38.9660 C.ar  188  PHE188     -0.0042
      9  CE1       23.9380   40.7040   40.2390 C.ar  188  PHE188     -0.0003
     10  CE2       24.9810   39.2900   38.6130 C.ar  188  PHE188     -0.0003
     11  CZ        24.9150   40.5080   39.2760 C.ar  188  PHE188     -0.0000
     12  N         20.7790   38.4750   50.3010 N.3   192  PRO192     -0.2116
     13  CA        22.0000   38.6750   51.0980 C.3   192  PRO192      0.1372
     14  C         22.1850   37.5620   52.1620 C.2   192  PRO192      0.2244
     15  O         23.2880   37.0860   52.3290 O.2   192  PRO192     -0.2868
     16  CB        21.8050   40.0810   51.6930 C.3   192  PRO192      0.0268
     17  CG        20.8650   40.7690   50.7050 C.3   192  PRO192      0.0207
     18  CD        19.9180   39.6780   50.2820 C.3   192  PRO192      0.0892
     19  N         23.4370   34.5580   50.4530 N.3   195  ARG195     -0.1245
     20  CA        24.8330   34.7610   50.0160 C.3   195  ARG195      0.1563
     21  C         25.7770   34.5370   51.2050 C.2   195  ARG195      0.2260
     22  O         26.7870   33.8570   51.0480 O.2   195  ARG195     -0.2867
     23  CB        25.0240   36.1700   49.4280 C.3   195  ARG195      0.0307
     24  CG        26.4550   36.3830   48.9300 C.3   195  ARG195      0.0489
     25  CD        26.6500   37.7770   48.3580 C.3   195  ARG195      0.2205
     26  NE        28.0430   38.0020   47.9870 N.pl3 195  ARG195     -0.0865
     27  CZ        28.4890   37.8780   46.7350 C.cat 195  ARG195      0.5346
     28  NH1       27.6500   37.5550   45.7560 N.pl3 195  ARG195      0.1354
     29  NH2       29.7840   38.0280   46.4630 N.pl3 195  ARG195      0.1354
     30  N         24.9300   41.9300   32.0800 N.3   283  SER283     -0.1217
     31  CA        25.1400   41.2040   33.3320 C.3   283  SER283      0.1889
     32  C         25.4120   39.7170   33.1220 C.2   283  SER283      0.2288
     33  O         26.4070   39.1510   33.6080 O.2   283  SER283     -0.2866
     34  CB        23.9420   41.4080   34.2640 C.3   283  SER283      0.2089
     35  OG        24.2260   40.7250   35.4750 O.3   283  SER283     -0.2183
     36  N         29.3870   37.5000   40.1610 N.3   311  ASN311     -0.1225
     37  CA        28.2970   38.4460   39.8730 C.3   311  ASN311      0.1785
     38  C         28.8770   39.4290   38.8980 C.2   311  ASN311      0.2598
     39  O         29.6150   40.2870   39.3240 O.2   311  ASN311     -0.2718
     40  CB        27.8650   39.2480   41.1230 C.3   311  ASN311      0.1169
     41  CG        27.2910   38.4600   42.2470 C.2   311  ASN311      0.2627
     42  OD1       27.9530   37.6240   42.8590 O.2   311  ASN311     -0.2716
     43  ND2       26.0370   38.7680   42.5810 N.am  311  ASN311     -0.0877
     44  N         28.5470   39.3240   37.6130 N.am  312  GLY312     -0.1942
     45  CA        29.1450   40.1970   36.6060 C.3   312  GLY312      0.2014
     46  C         30.6510   39.9590   36.5770 C.2   312  GLY312      0.2639
     47  O         31.1080   38.8010   36.5870 O.2   312  GLY312     -0.2714
     48  N         31.4200   41.0450   36.7000 N.am  313  ASP313     -0.1957
     49  CA        32.8850   40.9680   36.7400 C.3   313  ASP313      0.1840
     50  C         33.4150   40.7620   38.1490 C.2   313  ASP313      0.2622
     51  O         34.6260   40.7700   38.3360 O.2   313  ASP313     -0.2715
     52  CB        33.5100   42.2400   36.1190 C.3   313  ASP313      0.1450
     53  CG        33.2520   43.5480   36.8570 C.2   313  ASP313      0.3671
     54  OD1       32.3270   43.5990   37.6590 O.co2 313  ASP313     -0.2456
     55  OD2       33.9440   44.5360   36.5730 O.co2 313  ASP313     -0.2456
     56  N         32.5190   40.6270   39.1520 N.am  314  ASP314     -0.1971
     57  CA        32.9770   40.4870   40.5360 C.3   314  ASP314      0.1709
     58  C         33.1470   39.0280   40.8280 C.2   314  ASP314      0.2293
     59  O         32.2230   38.2400   40.6430 O.2   314  ASP314     -0.2864
     60  CB        31.9800   41.1410   41.4830 C.3   314  ASP314      0.1436
     61  CG        32.5430   41.3980   42.8470 C.2   314  ASP314      0.3671
     62  OD1       32.6980   40.4280   43.6090 O.co2 314  ASP314     -0.2456
     63  OD2       32.8110   42.5810   43.1580 O.co2 314  ASP314     -0.2456
     64  N         31.6640   41.6100   46.0030 N.3   361  CYS361     -0.1221
     65  CA        30.4410   42.3980   45.7720 C.3   361  CYS361      0.1808
     66  C         30.5250   43.6310   46.7330 C.2   361  CYS361      0.2602
     67  O         29.5270   44.0120   47.3500 O.2   361  CYS361     -0.2717
     68  CB        29.2060   41.5310   46.0350 C.3   361  CYS361      0.0970
     69  SG        27.6610   42.1560   45.3240 S.3   361  CYS361     -0.0800
     70  N         31.7710   44.1820   46.9210 N.am  362  SER362     -0.1938
     71  CA        32.1080   45.3290   47.8110 C.3   362  SER362      0.2055
     72  C         31.7100   45.0830   49.2860 C.2   362  SER362      0.2643
     73  O         31.6250   46.0360   50.0660 O.2   362  SER362     -0.2714
     74  CB        31.4510   46.6180   47.3030 C.3   362  SER362      0.2130
     75  OG        31.4140   46.6950   45.8860 O.3   362  SER362     -0.2179
     76  N         31.4910   43.8250   49.6640 N.am  363  SER363     -0.1949
     77  CA        30.9870   43.4620   50.9900 C.3   363  SER363      0.1924
     78  C         31.8410   42.4260   51.6780 C.2   363  SER363      0.2314
     79  O         32.5390   41.6390   51.0210 O.2   363  SER363     -0.2863
     80  CB        29.5590   42.9270   50.8730 C.3   363  SER363      0.2116
     81  OG        28.7760   43.7740   50.0480 O.3   363  SER363     -0.2180
     82  N         26.1990   40.4240   55.9220 N.3   379  LEU379     -0.1245
     83  CA        27.1110   41.1330   55.0450 C.3   379  LEU379      0.1561
     84  C         27.0420   42.6260   55.3370 C.2   379  LEU379      0.2260
     85  O         25.9600   43.2160   55.4710 O.2   379  LEU379     -0.2867
     86  CB        26.7560   40.8620   53.5660 C.3   379  LEU379      0.0270
     87  CG        27.1360   39.4590   53.0860 C.3   379  LEU379      0.0019
     88  CD1       26.4430   39.1110   51.7990 C.3   379  LEU379      0.0001
     89  CD2       28.6530   39.3070   52.9620 C.3   379  LEU379      0.0001
     90  N         19.2850   55.1310   46.0630 N.3   402  SER402     -0.1217
     91  CA        20.2290   54.1420   46.5680 C.3   402  SER402      0.1889
     92  C         20.0150   53.8980   48.0920 C.2   402  SER402      0.2288
     93  O         20.2590   52.8070   48.5710 O.2   402  SER402     -0.2866
     94  CB        21.6640   54.5570   46.2850 C.3   402  SER402      0.2089
     95  OG        22.0420   55.6430   47.1150 O.3   402  SER402     -0.2183
     96  N         17.5390   51.0310   48.5640 N.3   405  GLY405     -0.1210
     97  CA        18.1610   49.7450   48.2310 C.3   405  GLY405      0.1956
     98  C         19.1830   49.3270   49.2690 C.2   405  GLY405      0.2611
     99  O         19.3080   48.1470   49.6070 O.2   405  GLY405     -0.2717
    100  N         19.9180   50.3190   49.8360 N.am  406  ASN406     -0.1974
    101  CA        20.9180   50.0290   50.8680 C.3   406  ASN406      0.1688
    102  C         20.2440   49.5820   52.1670 C.2   406  ASN406      0.2292
    103  O         20.7350   48.6580   52.8190 O.2   406  ASN406     -0.2864
    104  CB        21.8270   51.2430   51.0820 C.3   406  ASN406      0.1181
    105  CG        22.9580   51.2900   50.0560 C.2   406  ASN406      0.2629
    106  OD1       23.5610   50.2420   49.6980 O.2   406  ASN406     -0.2716
    107  ND2       23.3430   52.4930   49.6540 N.am  406  ASN406     -0.0877
    108  N         19.1560   45.8800   51.3500 N.3   409  MET409     -0.1230
    109  CA        20.2180   44.8830   51.2520 C.3   409  MET409      0.1702
    110  C         21.1450   44.8020   52.4350 C.2   409  MET409      0.2592
    111  O         21.7660   43.7600   52.6790 O.2   409  MET409     -0.2718
    112  CB        21.0060   45.1420   49.9600 C.3   409  MET409      0.0401
    113  CG        20.1150   45.0760   48.7170 C.3   409  MET409      0.0596
    114  SD        19.4290   43.4060   48.4070 S.3   409  MET409     -0.1393
    115  CE        20.8430   42.6410   47.5280 C.3   409  MET409      0.0692
    116  N         21.2760   45.9140   53.1520 N.am  410  TYR410     -0.1976
    117  CA        22.1700   45.9740   54.3180 C.3   410  TYR410      0.1639
    118  C         21.3990   46.2090   55.6390 C.2   410  TYR410      0.2290
    119  O         21.9880   46.6970   56.6310 O.2   410  TYR410     -0.2864
    120  CB        23.2340   47.0620   54.1110 C.3   410  TYR410      0.0560
    121  CG        24.2140   46.7050   53.0060 C.ar  410  TYR410     -0.0198
    122  CD1       25.2000   45.7400   53.2100 C.ar  410  TYR410     -0.0009
    123  CD2       24.1640   47.3470   51.7670 C.ar  410  TYR410     -0.0009
    124  CE1       26.1090   45.4120   52.2030 C.ar  410  TYR410      0.0417
    125  CE2       25.0670   47.0230   50.7490 C.ar  410  TYR410      0.0417
    126  CZ        26.0390   46.0570   50.9790 C.ar  410  TYR410      0.1957
    127  OH        26.9540   45.7170   50.0020 O.3   410  TYR410     -0.2866
    128  N         16.8880   50.0100   43.3010 N.3   441  GLN441     -0.1231
    129  CA        17.3960   48.9360   42.4530 C.3   441  GLN441      0.1698
    130  C         17.9140   47.7900   43.2690 C.2   441  GLN441      0.2592
    131  O         18.6890   47.9860   44.2120 O.2   441  GLN441     -0.2718
    132  CB        18.5180   49.4540   41.5330 C.3   441  GLN441      0.0381
    133  CG        18.0240   50.2870   40.3570 C.3   441  GLN441      0.0905
    134  CD        19.1700   50.7930   39.5010 C.2   441  GLN441      0.2608
    135  OE1       19.4950   51.9780   39.5000 O.2   441  GLN441     -0.2717
    136  NE2       19.8180   49.9140   38.7510 N.am  441  GLN441     -0.0878
    137  N         17.5280   46.5680   42.8640 N.am  442  ILE442     -0.1966
    138  CA        17.9710   45.3330   43.4760 C.3   442  ILE442      0.1727
    139  C         18.5340   44.4410   42.3770 C.2   442  ILE442      0.2616
    140  O         17.8010   44.0960   41.4600 O.2   442  ILE442     -0.2715
    141  CB        16.8590   44.6240   44.2960 C.3   442  ILE442      0.0290
    142  CG1       16.1650   45.6140   45.3240 C.3   442  ILE442      0.0022
    143  CG2       17.4170   43.3440   44.9660 C.3   442  ILE442      0.0023
    144  CD1       16.9940   46.0410   46.5530 C.3   442  ILE442      0.0001
    145  N         19.8360   44.1170   42.4620 N.am  443  TYR443     -0.1960
    146  CA        20.5270   43.2880   41.4380 C.3   443  TYR443      0.1771
    147  C         20.3030   43.8930   40.0150 C.2   443  TYR443      0.2620
    148  O         20.1300   43.1740   39.0140 O.2   443  TYR443     -0.2715
    149  CB        20.0930   41.8200   41.5730 C.3   443  TYR443      0.0574
    150  CG        20.6740   41.0830   42.7620 C.ar  443  TYR443     -0.0198
    151  CD1       21.5540   41.7150   43.6450 C.ar  443  TYR443     -0.0009
    152  CD2       20.3510   39.7500   43.0060 C.ar  443  TYR443     -0.0009
    153  CE1       22.0960   41.0300   44.7380 C.ar  443  TYR443      0.0417
    154  CE2       20.9250   39.0450   44.0610 C.ar  443  TYR443      0.0417
    155  CZ        21.7710   39.7000   44.9460 C.ar  443  TYR443      0.1957
    156  OH        22.3240   39.0270   46.0060 O.3   443  TYR443     -0.2866
    157  N         20.2970   45.2270   39.9580 N.am  444  GLY444     -0.1954
    158  CA        20.1670   45.9690   38.7020 C.3   444  GLY444      0.1869
    159  C         18.7710   46.1740   38.1590 C.2   444  GLY444      0.2309
    160  O         18.6010   47.0280   37.2930 O.2   444  GLY444     -0.2863
    161  N         21.9360   44.6530   35.7810 N.3   551  SER551     -0.1217
    162  CA        22.5570   45.9770   35.7100 C.3   551  SER551      0.1889
    163  C         22.8030   46.4130   34.2650 C.2   551  SER551      0.2288
    164  O         23.3730   45.6490   33.4920 O.2   551  SER551     -0.2866
    165  CB        23.8510   46.0080   36.5060 C.3   551  SER551      0.2089
    166  OG        23.5230   46.1380   37.8770 O.3   551  SER551     -0.2183
@<TRIPOS>BOND
     1    30    31    1
     2    32    31    1
     3    32    33    2
     4    31    34    1
     5   164   163    2
     6    34    35    1
     7   163   162    1
     8   162   161    1
     9   162   165    1
    10    52    49    1
    11    52    53    1
    12   165   166    1
    13    55    53   ar
    14    46    47    2
    15    46    45    1
    16    46    48   am
    17    45    44    1
    18    48    49    1
    19    49    50    1
    20    53    54   ar
    21   160   159    2
    22    44    38   am
    23    50    51    2
    24    50    56   am
    25   159   158    1
    26    10     8   ar
    27    10    11   ar
    28   158   157    1
    29   136   134   am
    30    38    39    2
    31    38    37    1
    32     8     6   ar
    33   148   147    2
    34    56    57    1
    35    11     9   ar
    36   135   134    2
    37   134   133    1
    38    37    36    1
    39    37    40    1
    40     6     5    1
    41     6     7   ar
    42   157   147   am
    43   147   146    1
    44     9     7   ar
    45     5     2    1
    46   133   132    1
    47    57    58    1
    48    57    60    1
    49    59    58    2
    50    40    41    1
    51   146   149    1
    52   146   145    1
    53   140   139    2
    54    60    61    1
    55   132   129    1
    56   149   150    1
    57     1     2    1
    58     2     3    1
    59     3     4    2
    60    41    43   am
    61    41    42    2
    62   139   145   am
    63   139   138    1
    64   129   130    1
    65   129   128    1
    66   150   152   ar
    67   150   151   ar
    68    61    63   ar
    69    61    62   ar
    70   137   130   am
    71   137   138    1
    72   152   154   ar
    73   130   131    2
    74   138   141    1
    75   151   153   ar
    76   154   155   ar
    77   141   143    1
    78   141   142    1
    79   153   155   ar
    80   155   156    1
    81   142   144    1
    82    69    68    1
    83    28    27    1
    84    65    64    1
    85    65    68    1
    86    65    66    1
    87    75    74    1
    88    90    91    1
    89    94    91    1
    90    94    95    1
    91    29    27    1
    92    91    92    1
    93    66    70   am
    94    66    67    2
    95    27    26    2
    96    70    71    1
    97    74    71    1
    98   115   114    1
    99    71    72    1
   100    26    25    1
   101    92    93    2
   102    97    96    1
   103    97    98    1
   104    25    24    1
   105   114   113    1
   106   113   112    1
   107    24    23    1
   108    98    99    2
   109    98   100   am
   110    72    76   am
   111    72    73    2
   112    23    20    1
   113   107   105   am
   114    76    77    1
   115   106   105    2
   116   100   101    1
   117   112   109    1
   118   127   126    1
   119    20    19    1
   120    20    21    1
   121    81    80    1
   122   105   104    1
   123    18    12    1
   124    18    17    1
   125    12    13    1
   126    17    16    1
   127   125   126   ar
   128   125   123   ar
   129   101   104    1
   130   101   102    1
   131    80    77    1
   132   126   124   ar
   133    77    78    1
   134    79    78    2
   135    22    21    2
   136    13    16    1
   137    13    14    1
   138   109   108    1
   139   109   110    1
   140   123   121   ar
   141    88    87    1
   142    14    15    2
   143   102   103    2
   144   124   122   ar
   145   110   111    2
   146   110   116   am
   147    89    87    1
   148   121   122   ar
   149   121   120    1
   150    87    86    1
   151   116   117    1
   152    86    83    1
   153   120   117    1
   154   117   118    1
   155    83    84    1
   156    83    82    1
   157    84    85    2
   158   118   119    2
