@<TRIPOS>MOLECULE
tmp/4mz8C01.pdb
 98 90 0 0 0
SMALL
GASTEIGER

@<TRIPOS>ATOM
      1  N         24.8950  -36.7660  -49.1730 N.3    67  LYS67      -0.1245
      2  CA        24.8400  -37.6880  -50.3070 C.3    67  LYS67       0.1561
      3  C         25.9670  -37.4920  -51.3090 C.2    67  LYS67       0.2260
      4  O         25.9450  -38.0620  -52.3890 O.2    67  LYS67      -0.2867
      5  CB        23.4750  -37.6390  -51.0210 C.3    67  LYS67       0.0271
      6  CG        23.2060  -36.3690  -51.8130 C.3    67  LYS67       0.0035
      7  CD        22.1220  -36.5810  -52.8570 C.3    67  LYS67       0.0206
      8  CE        21.6640  -35.2540  -53.4560 C.3    67  LYS67       0.1093
      9  NZ        20.7900  -34.5000  -52.5120 N.3    67  LYS67      -0.1314
     10  N         15.7770  -31.8700  -52.4590 N.3   128  SER128     -0.1202
     11  CA        15.9610  -31.1220  -53.7020 C.3   128  SER128      0.2020
     12  C         15.9690  -29.6270  -53.3930 C.2   128  SER128      0.2619
     13  O         15.4720  -29.2030  -52.3510 O.2   128  SER128     -0.2717
     14  CB        14.8360  -31.4250  -54.6870 C.3   128  SER128      0.2103
     15  OG        14.9910  -30.6730  -55.8780 O.3   128  SER128     -0.2182
     16  N         16.5180  -28.8240  -54.2960 N.am  129  ALA129     -0.1965
     17  CA        16.4150  -27.3780  -54.1500 C.3   129  ALA129      0.1728
     18  C         14.9470  -26.9430  -54.1700 C.2   129  ALA129      0.2616
     19  O         14.5570  -25.9720  -53.5190 O.2   129  ALA129     -0.2715
     20  CB        17.2020  -26.6660  -55.2440 C.3   129  ALA129      0.0334
     21  N         14.1320  -27.6690  -54.9230 N.am  130  HIS130     -0.1973
     22  CA        12.7110  -27.3680  -54.9830 C.3   130  HIS130      0.1656
     23  C         11.9240  -28.5800  -54.5060 C.2   130  HIS130      0.2291
     24  O         11.8900  -29.6220  -55.1660 O.2   130  HIS130     -0.2864
     25  CB        12.3070  -26.9740  -56.4040 C.3   130  HIS130      0.0771
     26  CG        10.9600  -26.3270  -56.4950 C.ar  130  HIS130      0.0820
     27  ND1       10.2770  -25.8670  -55.3900 N.ar  130  HIS130     -0.2267
     28  CD2       10.1720  -26.0630  -57.5650 C.ar  130  HIS130      0.1154
     29  CE1        9.1220  -25.3480  -55.7750 C.ar  130  HIS130      0.1986
     30  NE2        9.0340  -25.4560  -57.0880 N.ar  130  HIS130     -0.2212
     31  N          7.9280  -30.1320  -56.0670 N.3   133  SER133     -0.1217
     32  CA         8.1990  -30.5640  -57.4280 C.3   133  SER133      0.1889
     33  C          7.5240  -31.8960  -57.7280 C.2   133  SER133      0.2288
     34  O          7.2310  -32.6810  -56.8160 O.2   133  SER133     -0.2866
     35  CB         9.7100  -30.6830  -57.6490 C.3   133  SER133      0.2089
     36  OG        10.0010  -31.2180  -58.9260 O.3   133  SER133     -0.2183
     37  N         23.9940  -19.8560  -48.8230 N.3   184  CYS184     -0.1235
     38  CA        23.0260  -19.9440  -49.9090 C.3   184  CYS184      0.1677
     39  C         22.8830  -18.6360  -50.6850 C.2   184  CYS184      0.2270
     40  O         22.7370  -17.5640  -50.0840 O.2   184  CYS184     -0.2867
     41  CB        21.6720  -20.3320  -49.3270 C.3   184  CYS184      0.0956
     42  SG        20.3030  -20.3390  -50.4940 S.3   184  CYS184     -0.0801
     43  N         20.5180  -18.5290  -53.2910 N.3   186  THR186     -0.1218
     44  CA        19.3280  -18.8440  -54.0990 C.3   186  THR186      0.1862
     45  C         18.4050  -17.6580  -54.3650 C.2   186  THR186      0.2287
     46  O         18.0260  -17.4100  -55.5110 O.2   186  THR186     -0.2866
     47  CB        18.5120  -20.0060  -53.4850 C.3   186  THR186      0.1770
     48  OG1       19.2260  -21.2350  -53.6760 O.3   186  THR186     -0.2211
     49  CG2       17.1410  -20.1210  -54.1380 C.3   186  THR186      0.0375
     50  N         26.2630  -27.1040  -50.7550 N.3   267  MET267     -0.1230
     51  CA        26.2730  -28.3160  -51.5620 C.3   267  MET267      0.1702
     52  C         26.0200  -27.9690  -53.0260 C.2   267  MET267      0.2592
     53  O         26.3860  -28.7230  -53.9290 O.2   267  MET267     -0.2718
     54  CB        25.2470  -29.3210  -51.0410 C.3   267  MET267      0.0401
     55  CG        25.6350  -29.9110  -49.6960 C.3   267  MET267      0.0596
     56  SD        27.1270  -30.9380  -49.7930 S.3   267  MET267     -0.1393
     57  CE        26.4130  -32.5050  -50.3160 C.3   267  MET267      0.0692
     58  N         25.4150  -26.8090  -53.2550 N.am  268  GLY268     -0.1957
     59  CA        25.2320  -26.3080  -54.6020 C.3   268  GLY268      0.1869
     60  C         26.2890  -25.2920  -54.9940 C.2   268  GLY268      0.2309
     61  O         26.0240  -24.3990  -55.7920 O.2   268  GLY268     -0.2863
     62  N         31.4750  -28.2030  -54.5530 N.3   272  ALA272     -0.1231
     63  CA        30.6640  -29.3160  -54.0750 C.3   272  ALA272      0.1694
     64  C         29.9810  -30.0650  -55.2120 C.2   272  ALA272      0.2591
     65  O         29.5690  -31.2140  -55.0470 O.2   272  ALA272     -0.2718
     66  CB        29.6420  -28.8350  -53.0650 C.3   272  ALA272      0.0304
     67  N         29.8500  -29.4140  -56.3620 N.am  273  MET273     -0.1979
     68  CA        29.2380  -30.0470  -57.5230 C.3   273  MET273      0.1605
     69  C         30.2420  -30.9120  -58.2930 C.2   273  MET273      0.2287
     70  O         29.8540  -31.7990  -59.0590 O.2   273  MET273     -0.2864
     71  CB        28.6190  -28.9960  -58.4320 C.3   273  MET273      0.0413
     72  CG        27.2820  -28.4470  -57.9470 C.3   273  MET273      0.0598
     73  SD        26.8210  -26.9770  -58.8990 S.3   273  MET273     -0.1393
     74  CE        25.2210  -26.5870  -58.1960 C.3   273  MET273      0.0692
     75  N         27.7380  -24.8490  -65.5120 N.3   275  LEU275     -0.1231
     76  CA        27.4240  -24.9010  -64.0800 C.3   275  LEU275      0.1693
     77  C         27.0060  -23.5270  -63.5220 C.2   275  LEU275      0.2591
     78  O         27.7610  -22.5530  -63.6070 O.2   275  LEU275     -0.2718
     79  CB        28.6020  -25.4840  -63.2690 C.3   275  LEU275      0.0284
     80  CG        28.8690  -27.0030  -63.2680 C.3   275  LEU275      0.0019
     81  CD1       30.2960  -27.3370  -62.8260 C.3   275  LEU275      0.0001
     82  CD2       27.8680  -27.7510  -62.3900 C.3   275  LEU275      0.0001
     83  N         25.7960  -23.4630  -62.9630 N.am  276  VAL276     -0.1980
     84  CA        25.2660  -22.2410  -62.3500 C.3   276  VAL276      0.1595
     85  C         24.9060  -22.5110  -60.8910 C.2   276  VAL276      0.2287
     86  O         23.8200  -23.0180  -60.6120 O.2   276  VAL276     -0.2864
     87  CB        24.0010  -21.7260  -63.0840 C.3   276  VAL276      0.0276
     88  CG1       23.4760  -20.4520  -62.4290 C.3   276  VAL276      0.0022
     89  CG2       24.2930  -21.4880  -64.5630 C.3   276  VAL276      0.0022
     90  N         24.2360  -22.1080  -56.6280 N.3   278  GLU278     -0.1245
     91  CA        23.2890  -21.3820  -55.7850 C.3   278  GLU278      0.1567
     92  C         23.8160  -21.3840  -54.3640 C.2   278  GLU278      0.2260
     93  O         23.0710  -21.1580  -53.4040 O.2   278  GLU278     -0.2867
     94  CB        21.8910  -21.9970  -55.8490 C.3   278  GLU278      0.0388
     95  CG        21.2320  -21.8080  -57.2030 C.3   278  GLU278      0.1160
     96  CD        19.8190  -22.3590  -57.2630 C.2   278  GLU278      0.3649
     97  OE1       19.1580  -22.4530  -56.2020 O.co2 278  GLU278     -0.2457
     98  OE2       19.3750  -22.6960  -58.3850 O.co2 278  GLU278     -0.2457
@<TRIPOS>BOND
     1    75    76    1
     2    89    87    1
     3    76    77    1
     4    76    79    1
     5    78    77    2
     6    77    83   am
     7    79    80    1
     8    80    81    1
     9    80    82    1
    10    87    88    1
    11    87    84    1
    12    83    84    1
    13    84    85    1
    14    85    86    2
    15    70    69    2
    16    36    35    1
    17    73    74    1
    18    73    72    1
    19    71    72    1
    20    71    68    1
    21    98    96   ar
    22    69    68    1
    23    33    32    1
    24    33    34    2
    25    35    32    1
    26    28    30   ar
    27    28    26   ar
    28    68    67    1
    29    32    31    1
    30    96    95    1
    31    96    97   ar
    32    95    94    1
    33    30    29   ar
    34    90    91    1
    35    26    25    1
    36    26    27   ar
    37    25    22    1
    38    67    64   am
    39    15    14    1
    40    94    91    1
    41    61    60    2
    42    91    92    1
    43    29    27   ar
    44    46    45    2
    45    20    17    1
    46    64    65    2
    47    64    63    1
    48    24    23    2
    49    60    59    1
    50    22    21    1
    51    22    23    1
    52    21    18   am
    53    14    11    1
    54    59    58    1
    55    62    63    1
    56    45    44    1
    57    92    93    2
    58    16    17    1
    59    16    12   am
    60    18    17    1
    61    18    19    2
    62    49    47    1
    63    44    47    1
    64    44    43    1
    65    63    66    1
    66    53    52    2
    67    11    12    1
    68    11    10    1
    69    48    47    1
    70     8     7    1
    71     8     9    1
    72    12    13    2
    73    58    52   am
    74    52    51    1
    75     7     6    1
    76     4     3    2
    77     6     5    1
    78    51    54    1
    79    51    50    1
    80     3     2    1
    81    54    55    1
    82     5     2    1
    83    39    40    2
    84    39    38    1
    85    42    41    1
    86    57    56    1
    87     2     1    1
    88    38    41    1
    89    38    37    1
    90    56    55    1
