@<TRIPOS>MOLECULE
tmp/4mzgB00.pdb
 262 262 0 0 0
SMALL
GASTEIGER

@<TRIPOS>ATOM
      1  N          8.1370  -34.9390    2.5030 N.3    17  GLU17      -0.1245
      2  CA         7.0360  -34.4530    3.3270 C.3    17  GLU17       0.1567
      3  C          5.7430  -35.1170    2.9250 C.2    17  GLU17       0.2260
      4  O          5.3080  -34.9880    1.7840 O.2    17  GLU17      -0.2867
      5  CB         6.8790  -32.9440    3.2120 C.3    17  GLU17       0.0388
      6  CG         7.8890  -32.2000    4.0220 C.3    17  GLU17       0.1160
      7  CD         7.7820  -30.6990    3.8610 C.2    17  GLU17       0.3649
      8  OE1        8.7090  -30.0130    4.3320 O.co2  17  GLU17      -0.2457
      9  OE2        6.7830  -30.2110    3.2740 O.co2  17  GLU17      -0.2457
     10  N         18.5840  -32.2360   -1.7290 N.3    25  TRP25      -0.1241
     11  CA        19.0990  -31.0320   -1.0770 C.3    25  TRP25       0.1605
     12  C         20.5990  -31.1070   -0.8890 C.2    25  TRP25       0.2264
     13  O         21.1360  -32.1810   -0.6210 O.2    25  TRP25      -0.2867
     14  CB        18.3920  -30.8320    0.2740 C.3    25  TRP25       0.0550
     15  CG        16.9550  -30.6500    0.0470 C.ar   25  TRP25       0.0003
     16  CD1       16.0060  -31.6280   -0.0180 C.ar   25  TRP25       0.0946
     17  CD2       16.3010  -29.4290   -0.2880 C.ar   25  TRP25       0.0152
     18  NE1       14.7930  -31.0820   -0.3330 N.ar   25  TRP25      -0.2442
     19  CE2       14.9470  -29.7280   -0.5040 C.ar   25  TRP25       0.0810
     20  CE3       16.7270  -28.0980   -0.4030 C.ar   25  TRP25       0.0012
     21  CZ2       14.0040  -28.7490   -0.8230 C.ar   25  TRP25       0.0191
     22  CZ3       15.7940  -27.1280   -0.7220 C.ar   25  TRP25       0.0001
     23  CH2       14.4460  -27.4560   -0.9330 C.ar   25  TRP25       0.0015
     24  N         21.4600  -21.8820   -2.1310 N.3    46  GLY46      -0.1210
     25  CA        20.3930  -21.1620   -2.8230 C.3    46  GLY46       0.1956
     26  C         19.1540  -20.8290   -2.0060 C.2    46  GLY46       0.2612
     27  O         18.1470  -20.3390   -2.5560 O.2    46  GLY46      -0.2717
     28  N         19.2030  -21.1160   -0.7070 N.am   47  PHE47      -0.1962
     29  CA        18.1130  -20.7720    0.2060 C.3    47  PHE47       0.1771
     30  C         18.6390  -19.9320    1.3620 C.2    47  PHE47       0.2619
     31  O         19.6420  -20.2810    1.9770 O.2    47  PHE47      -0.2715
     32  CB        17.4270  -22.0370    0.7190 C.3    47  PHE47       0.0574
     33  CG        16.7180  -22.7980   -0.3670 C.ar   47  PHE47      -0.0200
     34  CD1       17.4290  -23.6190   -1.2380 C.ar   47  PHE47      -0.0042
     35  CD2       15.3590  -22.6430   -0.5580 C.ar   47  PHE47      -0.0042
     36  CE1       16.7770  -24.2930   -2.2660 C.ar   47  PHE47      -0.0003
     37  CE2       14.7030  -23.3250   -1.5770 C.ar   47  PHE47      -0.0003
     38  CZ        15.4120  -24.1460   -2.4270 C.ar   47  PHE47      -0.0000
     39  N         17.9490  -18.8350    1.6720 N.am   48  ASP48      -0.1971
     40  CA        18.5170  -17.8300    2.5920 C.3    48  ASP48       0.1709
     41  C         18.4050  -18.1500    4.0950 C.2    48  ASP48       0.2293
     42  O         19.1800  -17.6290    4.9030 O.2    48  ASP48      -0.2864
     43  CB        17.8500  -16.4660    2.3320 C.3    48  ASP48       0.1436
     44  CG        18.1560  -15.9040    0.9460 C.2    48  ASP48       0.3671
     45  OD1       19.1440  -16.3240    0.3000 O.co2  48  ASP48      -0.2456
     46  OD2       17.4080  -14.9960    0.5160 O.co2  48  ASP48      -0.2456
     47  N         18.4180  -23.5510    8.6690 N.3    51  TYR51      -0.1241
     48  CA        17.4730  -24.5720    9.1120 C.3    51  TYR51       0.1605
     49  C         18.0250  -25.4320   10.2330 C.2    51  TYR51       0.2264
     50  O         19.2290  -25.6710   10.3020 O.2    51  TYR51      -0.2867
     51  CB        17.0570  -25.4540    7.9210 C.3    51  TYR51       0.0534
     52  CG        16.2600  -24.6660    6.9030 C.ar   51  TYR51      -0.0201
     53  CD1       14.8940  -24.4740    7.0630 C.ar   51  TYR51      -0.0009
     54  CD2       16.8830  -24.0710    5.8110 C.ar   51  TYR51      -0.0009
     55  CE1       14.1600  -23.7320    6.1460 C.ar   51  TYR51       0.0417
     56  CE2       16.1480  -23.3210    4.8840 C.ar   51  TYR51       0.0417
     57  CZ        14.7940  -23.1510    5.0610 C.ar   51  TYR51       0.1957
     58  OH        14.0660  -22.4080    4.1500 O.3    51  TYR51      -0.2866
     59  N         17.8920   -3.0810    5.9130 N.3    92  HIS92      -0.1226
     60  CA        18.4750   -3.9000    4.8610 C.3    92  HIS92       0.1752
     61  C         17.5790   -3.7920    3.6430 C.2    92  HIS92       0.2596
     62  O         16.4170   -4.1890    3.6830 O.2    92  HIS92      -0.2718
     63  CB        18.5370   -5.3470    5.3470 C.3    92  HIS92       0.0759
     64  CG        19.3640   -6.2540    4.4820 C.ar   92  HIS92       0.0818
     65  ND1       19.4750   -7.6020    4.7300 N.ar   92  HIS92      -0.2268
     66  CD2       20.1380   -6.0030    3.4000 C.ar   92  HIS92       0.1154
     67  CE1       20.2760   -8.1510    3.8320 C.ar   92  HIS92       0.1986
     68  NE2       20.6890   -7.2030    3.0080 N.ar   92  HIS92      -0.2212
     69  N         18.1300   -3.2630    2.5550 N.am   93  MET93      -0.1965
     70  CA        17.3510   -3.0140    1.3520 C.3    93  MET93       0.1736
     71  C         17.3350   -4.2390    0.4510 C.2    93  MET93       0.2616
     72  O         18.3900   -4.8100    0.1360 O.2    93  MET93      -0.2715
     73  CB        17.9230   -1.8010    0.5970 C.3    93  MET93       0.0427
     74  CG        17.0660   -1.3500   -0.5810 C.3    93  MET93       0.0599
     75  SD        15.4600   -0.6760   -0.0910 S.3    93  MET93      -0.1393
     76  CE        15.9390    0.9040    0.6170 C.3    93  MET93       0.0692
     77  N         16.1360   -4.6450    0.0630 N.am   94  PHE94      -0.1960
     78  CA        15.9370   -5.6730   -0.9430 C.3    94  PHE94       0.1771
     79  C         15.1630   -5.0510   -2.0960 C.2    94  PHE94       0.2619
     80  O         14.6590   -3.9320   -1.9800 O.2    94  PHE94      -0.2715
     81  CB        15.1350   -6.8440   -0.3710 C.3    94  PHE94       0.0574
     82  CG        15.8960   -7.6720    0.6290 C.ar   94  PHE94      -0.0200
     83  CD1       16.0770   -7.2200    1.9230 C.ar   94  PHE94      -0.0042
     84  CD2       16.4360   -8.8950    0.2680 C.ar   94  PHE94      -0.0042
     85  CE1       16.7790   -7.9660    2.8510 C.ar   94  PHE94      -0.0003
     86  CE2       17.1420   -9.6650    1.1900 C.ar   94  PHE94      -0.0003
     87  CZ        17.3160   -9.1950    2.4860 C.ar   94  PHE94      -0.0000
     88  N         15.0920   -5.7640   -3.2120 N.am   95  GLU95      -0.1963
     89  CA        14.1390   -5.4290   -4.2630 C.3    95  GLU95       0.1733
     90  C         13.2940   -6.6640   -4.5640 C.2    95  GLU95       0.2617
     91  O         13.7340   -7.7980   -4.3620 O.2    95  GLU95      -0.2715
     92  CB        14.8390   -4.8820   -5.5130 C.3    95  GLU95       0.0429
     93  CG        15.9790   -5.7340   -6.0340 C.3    95  GLU95       0.1163
     94  CD        16.6880   -5.1010   -7.2220 C.2    95  GLU95       0.3649
     95  OE1       16.2590   -5.3460   -8.3700 O.co2  95  GLU95      -0.2457
     96  OE2       17.6740   -4.3580   -7.0090 O.co2  95  GLU95      -0.2457
     97  N         12.0690   -6.4480   -5.0250 N.am   96  THR96      -0.1937
     98  CA        11.1290   -7.5520   -5.1850 C.3    96  THR96       0.2028
     99  C         10.9360   -7.9590   -6.6490 C.2    96  THR96       0.2642
    100  O         11.6720   -7.5040   -7.5280 O.2    96  THR96      -0.2714
    101  CB         9.7750   -7.2270   -4.5340 C.3    96  THR96       0.1808
    102  OG1        8.9190   -8.3730   -4.6090 O.3    96  THR96      -0.2208
    103  CG2        9.1180   -6.0390   -5.2270 C.3    96  THR96       0.0379
    104  N          9.9480   -8.8170   -6.8990 N.am   97  GLU97      -0.1976
    105  CA         9.7120   -9.3630   -8.2400 C.3    97  GLU97       0.1602
    106  C          9.4650   -8.2900   -9.3080 C.2    97  GLU97       0.2287
    107  O          9.8980   -8.4410  -10.4500 O.2    97  GLU97      -0.2864
    108  CB         8.5730  -10.3960   -8.2320 C.3    97  GLU97       0.0415
    109  CG         7.1680   -9.8210   -8.0530 C.3    97  GLU97       0.1163
    110  CD         6.8510   -9.4670   -6.6110 C.2    97  GLU97       0.3649
    111  OE1        7.0610  -10.3260   -5.7260 O.co2  97  GLU97      -0.2457
    112  OE2        6.3930   -8.3310   -6.3630 O.co2  97  GLU97      -0.2457
    113  N         12.5200   -2.2880   -1.2990 N.3   102  ASP102     -0.1239
    114  CA        11.7960   -2.8990   -0.2050 C.3   102  ASP102      0.1674
    115  C         12.7060   -3.0110    1.0100 C.2   102  ASP102      0.2266
    116  O         13.5300   -3.9200    1.0820 O.2   102  ASP102     -0.2867
    117  CB        11.3560   -4.2870   -0.6580 C.3   102  ASP102      0.1410
    118  CG        10.5540   -5.0120    0.3790 C.2   102  ASP102      0.3668
    119  OD1        9.8430   -4.3490    1.1530 O.co2 102  ASP102     -0.2456
    120  OD2       10.6330   -6.2610    0.4070 O.co2 102  ASP102     -0.2456
    121  N         13.8260   -3.6220    4.8700 N.3   104  TRP104     -0.1241
    122  CA        13.4480   -4.4070    6.0290 C.3   104  TRP104      0.1605
    123  C         14.3110   -4.0670    7.2440 C.2   104  TRP104      0.2264
    124  O         15.5440   -4.1040    7.1650 O.2   104  TRP104     -0.2867
    125  CB        13.6450   -5.8950    5.7360 C.3   104  TRP104      0.0550
    126  CG        12.7120   -6.4650    4.7130 C.ar  104  TRP104      0.0003
    127  CD1       12.7120   -6.2140    3.3710 C.ar  104  TRP104      0.0946
    128  CD2       11.6780   -7.4320    4.9430 C.ar  104  TRP104      0.0152
    129  NE1       11.7220   -6.9520    2.7510 N.ar  104  TRP104     -0.2442
    130  CE2       11.0730   -7.7040    3.6960 C.ar  104  TRP104      0.0810
    131  CE3       11.1950   -8.0820    6.0840 C.ar  104  TRP104      0.0012
    132  CZ2       10.0200   -8.6090    3.5600 C.ar  104  TRP104      0.0191
    133  CZ3       10.1480   -8.9790    5.9460 C.ar  104  TRP104      0.0001
    134  CH2        9.5690   -9.2290    4.6920 C.ar  104  TRP104      0.0015
    135  N         30.0530  -14.8760    5.8680 N.3   118  TRP118     -0.1241
    136  CA        28.6050  -14.7490    5.9730 C.3   118  TRP118      0.1605
    137  C         28.2160  -14.3140    7.3840 C.2   118  TRP118      0.2264
    138  O         28.9870  -14.4960    8.3250 O.2   118  TRP118     -0.2867
    139  CB        27.9390  -16.0850    5.6470 C.3   118  TRP118      0.0550
    140  CG        28.1320  -16.5270    4.2110 C.ar  118  TRP118      0.0003
    141  CD1       29.3160  -16.8640    3.6000 C.ar  118  TRP118      0.0946
    142  CD2       27.1060  -16.7230    3.2290 C.ar  118  TRP118      0.0152
    143  NE1       29.0830  -17.2370    2.3000 N.ar  118  TRP118     -0.2442
    144  CE2       27.7370  -17.1580    2.0470 C.ar  118  TRP118      0.0810
    145  CE3       25.7180  -16.5490    3.2320 C.ar  118  TRP118      0.0012
    146  CZ2       27.0250  -17.4290    0.8780 C.ar  118  TRP118      0.0191
    147  CZ3       25.0080  -16.8250    2.0700 C.ar  118  TRP118      0.0001
    148  CH2       25.6650  -17.2560    0.9100 C.ar  118  TRP118      0.0015
    149  N         14.9880  -10.4110   11.2050 N.3   123  TYR123     -0.1241
    150  CA        14.2120   -9.2440   10.7980 C.3   123  TYR123      0.1605
    151  C         13.0220   -9.0550   11.7110 C.2   123  TYR123      0.2264
    152  O         12.4470  -10.0340   12.1970 O.2   123  TYR123     -0.2867
    153  CB        13.7610   -9.4010    9.3550 C.3   123  TYR123      0.0534
    154  CG        14.9490   -9.4700    8.4300 C.ar  123  TYR123     -0.0201
    155  CD1       15.5930   -8.3120    8.0150 C.ar  123  TYR123     -0.0009
    156  CD2       15.4660  -10.7000    8.0290 C.ar  123  TYR123     -0.0009
    157  CE1       16.6930   -8.3750    7.1890 C.ar  123  TYR123      0.0417
    158  CE2       16.5500  -10.7700    7.2070 C.ar  123  TYR123      0.0417
    159  CZ        17.1770   -9.6130    6.8040 C.ar  123  TYR123      0.1957
    160  OH        18.2680   -9.6940    5.9830 O.3   123  TYR123     -0.2866
    161  N         10.1020  -10.6740   10.1970 N.3   126  ASP126     -0.1239
    162  CA        10.3260  -12.0890    9.8620 C.3   126  ASP126      0.1674
    163  C         11.4300  -12.6150   10.7770 C.2   126  ASP126      0.2266
    164  O         12.5900  -12.7450   10.3650 O.2   126  ASP126     -0.2867
    165  CB        10.6970  -12.2740    8.3850 C.3   126  ASP126      0.1410
    166  CG        10.6540  -13.7400    7.9430 C.2   126  ASP126      0.3668
    167  OD1       10.2370  -14.6020    8.7440 O.co2 126  ASP126     -0.2456
    168  OD2       11.0190  -14.0330    6.7850 O.co2 126  ASP126     -0.2456
    169  N         18.3670  -15.8310    9.2220 N.3   130  TYR130     -0.1241
    170  CA        18.8510  -15.7480    7.8390 C.3   130  TYR130      0.1605
    171  C         20.3840  -15.6210    7.8180 C.2   130  TYR130      0.2264
    172  O         21.0090  -15.3130    8.8340 O.2   130  TYR130     -0.2867
    173  CB        18.2720  -14.5260    7.1230 C.3   130  TYR130      0.0534
    174  CG        16.8260  -14.6850    6.7560 C.ar  130  TYR130     -0.0201
    175  CD1       15.8230  -14.3880    7.6730 C.ar  130  TYR130     -0.0009
    176  CD2       16.4630  -15.1410    5.4970 C.ar  130  TYR130     -0.0009
    177  CE1       14.4690  -14.5330    7.3200 C.ar  130  TYR130      0.0417
    178  CE2       15.1380  -15.3020    5.1480 C.ar  130  TYR130      0.0417
    179  CZ        14.1510  -15.0030    6.0650 C.ar  130  TYR130      0.1957
    180  OH        12.8370  -15.1790    5.6900 O.3   130  TYR130     -0.2866
    181  N         23.5660  -14.0730    5.1260 N.3   132  TYR132     -0.1227
    182  CA        23.9690  -13.3900    3.8980 C.3   132  TYR132      0.1736
    183  C         25.3900  -12.8700    4.0080 C.2   132  TYR132      0.2595
    184  O         25.8700  -12.6030    5.1000 O.2   132  TYR132     -0.2718
    185  CB        23.1130  -12.1480    3.6700 C.3   132  TYR132      0.0548
    186  CG        21.6610  -12.4220    3.3850 C.ar  132  TYR132     -0.0200
    187  CD1       21.2630  -12.9600    2.1720 C.ar  132  TYR132     -0.0009
    188  CD2       20.6850  -12.0800    4.3120 C.ar  132  TYR132     -0.0009
    189  CE1       19.9130  -13.1820    1.9030 C.ar  132  TYR132      0.0417
    190  CE2       19.3540  -12.2930    4.0500 C.ar  132  TYR132      0.0417
    191  CZ        18.9770  -12.8390    2.8590 C.ar  132  TYR132      0.1957
    192  OH        17.6360  -13.0460    2.6280 O.3   132  TYR132     -0.2866
    193  N         26.0430  -12.6720    2.8660 N.am  133  GLN133     -0.1979
    194  CA        27.3420  -11.9960    2.8600 C.3   133  GLN133      0.1601
    195  C         27.1300  -10.4910    2.9370 C.2   133  GLN133      0.2287
    196  O         27.1880   -9.7930    1.9220 O.2   133  GLN133     -0.2864
    197  CB        28.1050  -12.3620    1.5870 C.3   133  GLN133      0.0394
    198  CG        28.4610  -13.8420    1.5350 C.3   133  GLN133      0.0908
    199  CD        28.7960  -14.3370    0.1440 C.2   133  GLN133      0.2608
    200  OE1       29.9080  -14.8330   -0.1010 O.2   133  GLN133     -0.2717
    201  NE2       27.8300  -14.2350   -0.7730 N.am  133  GLN133     -0.0878
    202  N         28.9230   -7.2970    1.2630 N.3   136  ASP136     -0.1225
    203  CA        28.5670   -6.9610   -0.1100 C.3   136  ASP136      0.1805
    204  C         27.4320   -5.9310   -0.1140 C.2   136  ASP136      0.2597
    205  O         27.5180   -4.9130   -0.7990 O.2   136  ASP136     -0.2718
    206  CB        28.1650   -8.2100   -0.9000 C.3   136  ASP136      0.1424
    207  CG        29.3340   -9.1540   -1.1400 C.2   136  ASP136      0.3668
    208  OD1       30.4890   -8.7400   -0.9110 O.co2 136  ASP136     -0.2456
    209  OD2       29.0970  -10.3110   -1.5610 O.co2 136  ASP136     -0.2456
    210  N         26.3720   -6.1950    0.6500 N.am  137  ASP137     -0.1974
    211  CA        25.2620   -5.2400    0.7610 C.3   137  ASP137      0.1709
    212  C         25.7280   -3.8800    1.2970 C.2   137  ASP137      0.2293
    213  O         25.2930   -2.8330    0.8130 O.2   137  ASP137     -0.2864
    214  CB        24.1720   -5.7890    1.6840 C.3   137  ASP137      0.1436
    215  CG        23.7310   -7.1840    1.2970 C.2   137  ASP137      0.3671
    216  OD1       24.5540   -8.1250    1.4210 O.co2 137  ASP137     -0.2456
    217  OD2       22.5680   -7.3410    0.8730 O.co2 137  ASP137     -0.2456
    218  N         23.2790   -0.8530    0.5050 N.3   142  ASP142     -0.1239
    219  CA        21.9830   -1.4990    0.7110 C.3   142  ASP142      0.1674
    220  C         21.8010   -2.0020    2.1430 C.2   142  ASP142      0.2266
    221  O         20.8000   -2.6340    2.4670 O.2   142  ASP142     -0.2867
    222  CB        21.7980   -2.6430   -0.2840 C.3   142  ASP142      0.1410
    223  CG        21.6550   -2.1460   -1.7060 C.2   142  ASP142      0.3668
    224  OD1       20.9850   -1.1090   -1.9010 O.co2 142  ASP142     -0.2456
    225  OD2       22.2140   -2.7790   -2.6170 O.co2 142  ASP142     -0.2456
    226  N          7.5630  -28.0260   15.9750 N.3   186  ASP186     -0.1225
    227  CA         6.8000  -28.2850   14.7650 C.3   186  ASP186      0.1805
    228  C          7.3810  -27.6850   13.4840 C.2   186  ASP186      0.2598
    229  O          6.6800  -27.5950   12.4820 O.2   186  ASP186     -0.2718
    230  CB         5.3530  -27.7990   14.9560 C.3   186  ASP186      0.1424
    231  CG         5.2490  -26.2810   15.1380 C.2   186  ASP186      0.3668
    232  OD1        6.2480  -25.6280   15.5190 O.co2 186  ASP186     -0.2456
    233  OD2        4.1480  -25.7320   14.9050 O.co2 186  ASP186     -0.2456
    234  N          8.6530  -27.2870   13.4970 N.am  187  ASP187     -0.1960
    235  CA         9.0870  -26.2900   12.5230 C.3   187  ASP187      0.1840
    236  C         10.5970  -26.3970   12.3760 C.2   187  ASP187      0.2622
    237  O         11.2960  -26.5340   13.3740 O.2   187  ASP187     -0.2715
    238  CB         8.7030  -24.9270   13.1190 C.3   187  ASP187      0.1450
    239  CG         8.7540  -23.7750   12.1280 C.2   187  ASP187      0.3671
    240  OD1        9.6040  -23.7490   11.2200 O.co2 187  ASP187     -0.2456
    241  OD2        7.9290  -22.8490   12.2860 O.co2 187  ASP187     -0.2456
    242  N         11.0980  -26.3560   11.1450 N.am  188  PHE188     -0.1960
    243  CA        12.5440  -26.4550   10.9440 C.3   188  PHE188      0.1771
    244  C         13.2750  -25.0980   10.8550 C.2   188  PHE188      0.2619
    245  O         14.4840  -25.0550   10.6140 O.2   188  PHE188     -0.2715
    246  CB        12.9100  -27.3920    9.7650 C.3   188  PHE188      0.0574
    247  CG        12.1030  -27.1630    8.5070 C.ar  188  PHE188     -0.0200
    248  CD1       11.8370  -25.8850    8.0450 C.ar  188  PHE188     -0.0042
    249  CD2       11.6520  -28.2410    7.7590 C.ar  188  PHE188     -0.0042
    250  CE1       11.1120  -25.6770    6.8880 C.ar  188  PHE188     -0.0003
    251  CE2       10.9140  -28.0410    6.5940 C.ar  188  PHE188     -0.0003
    252  CZ        10.6510  -26.7640    6.1540 C.ar  188  PHE188     -0.0000
    253  N         12.5600  -23.9990   11.0610 N.am  189  HIS189     -0.1973
    254  CA        13.2400  -22.7020   11.1260 C.3   189  HIS189      0.1656
    255  C         13.8210  -22.4820   12.5070 C.2   189  HIS189      0.2291
    256  O         13.4730  -23.1880   13.4770 O.2   189  HIS189     -0.2864
    257  CB        12.3000  -21.5460   10.7650 C.3   189  HIS189      0.0771
    258  CG        11.8790  -21.5320    9.3310 C.ar  189  HIS189      0.0820
    259  ND1       10.7460  -22.1810    8.8840 N.ar  189  HIS189     -0.2267
    260  CD2       12.4400  -20.9570    8.2400 C.ar  189  HIS189      0.1154
    261  CE1       10.6250  -22.0000    7.5800 C.ar  189  HIS189      0.1986
    262  NE2       11.6360  -21.2600    7.1640 N.ar  189  HIS189     -0.2212
@<TRIPOS>BOND
     1   107   106    2
     2   106   105    1
     3    95    94   ar
     4   105   108    1
     5   105   104    1
     6   108   109    1
     7   109   110    1
     8   100    99    2
     9    94    96   ar
    10    94    93    1
    11   104    99   am
    12    99    98    1
    13   110   112   ar
    14   110   111   ar
    15    93    92    1
    16    92    89    1
    17   103   101    1
    18    98    97    1
    19    98   101    1
    20    97    90   am
    21   102   101    1
    22    90    91    2
    23    90    89    1
    24    89    88    1
    25    88    79   am
    26    25    24    1
    27    25    26    1
    28   225   223   ar
    29    27    26    2
    30    38    36   ar
    31    38    37   ar
    32    36    34   ar
    33    79    80    2
    34    79    78    1
    35    26    28   am
    36   224   223   ar
    37    10    11    1
    38   223   222    1
    39    37    35   ar
    40   209   207   ar
    41   113   114    1
    42    34    33   ar
    43   207   208   ar
    44   207   206    1
    45    11    12    1
    46    11    14    1
    47    78    81    1
    48    78    77    1
    49    23    21   ar
    50    23    22   ar
    51   206   203    1
    52    12    13    2
    53    21    19   ar
    54   205   204    2
    55   201   199   am
    56    22    20   ar
    57    28    29    1
    58   117   114    1
    59   117   118    1
    60    74    75    1
    61    74    73    1
    62    35    33   ar
    63    19    18   ar
    64    19    17   ar
    65    20    17   ar
    66    81    82    1
    67    33    32    1
    68    18    16   ar
    69    17    15   ar
    70   222   219    1
    71   114   115    1
    72   204   203    1
    73   204   210   am
    74   203   202    1
    75   200   199    2
    76    75    76    1
    77    16    15   ar
    78    15    14    1
    79    77    71   am
    80    72    71    2
    81   199   198    1
    82    29    32    1
    83    29    30    1
    84    84    82   ar
    85    84    86   ar
    86    45    44   ar
    87   118   120   ar
    88   118   119   ar
    89    71    70    1
    90   218   219    1
    91    46    44   ar
    92    73    70    1
    93    82    83   ar
    94   210   211    1
    95   219   220    1
    96   211   212    1
    97   211   214    1
    98   213   212    2
    99   217   215   ar
   100   146   148   ar
   101   146   144   ar
   102   148   147   ar
   103    44    43    1
   104   115   116    2
   105    86    87   ar
   106   215   216   ar
   107   215   214    1
   108    70    69    1
   109    30    39   am
   110    30    31    2
   111   198   197    1
   112   197   194    1
   113    39    40    1
   114     4     3    2
   115   189   187   ar
   116   189   191   ar
   117   196   195    2
   118    83    85   ar
   119   144   143   ar
   120   144   142   ar
   121   147   145   ar
   122   220   221    2
   123   187   186   ar
   124   143   141   ar
   125    43    40    1
   126    87    85   ar
   127     1     2    1
   128    69    61   am
   129    40    41    1
   130   192   191    1
   131   129   127   ar
   132   129   130   ar
   133   191   190   ar
   134   194   193    1
   135   194   195    1
   136   193   183   am
   137     3     2    1
   138    68    66   ar
   139    68    67   ar
   140     5     2    1
   141     5     6    1
   142   142   145   ar
   143   142   140   ar
   144     9     7   ar
   145   127   126   ar
   146   186   185    1
   147   186   188   ar
   148    66    64   ar
   149   132   130   ar
   150   132   134   ar
   151   141   140   ar
   152    61    62    2
   153    61    60    1
   154   185   182    1
   155   130   128   ar
   156    67    65   ar
   157     7     6    1
   158     7     8   ar
   159   182   183    1
   160   182   181    1
   161   183   184    2
   162   190   188   ar
   163    41    42    2
   164    58    57    1
   165   140   139    1
   166    64    65   ar
   167    64    63    1
   168   134   133   ar
   169   126   128   ar
   170   126   125    1
   171    60    63    1
   172    60    59    1
   173   121   122    1
   174    56    57   ar
   175    56    54   ar
   176   128   131   ar
   177    57    55   ar
   178   178   176   ar
   179   178   179   ar
   180   176   174   ar
   181   139   136    1
   182   180   179    1
   183   125   122    1
   184    54    52   ar
   185   135   136    1
   186   133   131   ar
   187   136   137    1
   188   160   159    1
   189   122   123    1
   190   179   177   ar
   191    55    53   ar
   192   252   251   ar
   193   252   250   ar
   194   251   249   ar
   195   174   173    1
   196   174   175   ar
   197   168   166   ar
   198   159   157   ar
   199   159   158   ar
   200   250   248   ar
   201    52    53   ar
   202    52    51    1
   203   173   170    1
   204   262   261   ar
   205   262   260   ar
   206   124   123    2
   207   157   155   ar
   208   158   156   ar
   209   177   175   ar
   210   137   138    2
   211   261   259   ar
   212   249   247   ar
   213   171   170    1
   214   171   172    2
   215   170   169    1
   216    51    48    1
   217   166   165    1
   218   166   167   ar
   219   155   154   ar
   220   156   154   ar
   221   248   247   ar
   222   260   258   ar
   223   165   162    1
   224   154   153    1
   225   247   246    1
   226    47    48    1
   227   259   258   ar
   228    48    49    1
   229   258   257    1
   230   153   150    1
   231   246   243    1
   232   162   161    1
   233   162   163    1
   234    49    50    2
   235   164   163    2
   236   245   244    2
   237   257   254    1
   238   150   149    1
   239   150   151    1
   240   244   243    1
   241   244   253   am
   242   243   242    1
   243   253   254    1
   244   254   255    1
   245   242   236   am
   246   240   239   ar
   247   151   152    2
   248   239   241   ar
   249   239   238    1
   250   236   235    1
   251   236   237    2
   252   229   228    2
   253   255   256    2
   254   235   238    1
   255   235   234    1
   256   228   234   am
   257   228   227    1
   258   227   230    1
   259   227   226    1
   260   233   231   ar
   261   230   231    1
   262   231   232   ar
