@<TRIPOS>MOLECULE
tmp/4mzgD02.pdb
 100 97 0 0 0
SMALL
GASTEIGER

@<TRIPOS>ATOM
      1  N          8.2000    4.9120    9.1750 N.3   105  ARG105     -0.1231
      2  CA         7.4630    4.4730   10.3450 C.3   105  ARG105      0.1694
      3  C          7.0390    5.6890   11.1480 C.2   105  ARG105      0.2593
      4  O          7.8340    6.6050   11.3710 O.2   105  ARG105     -0.2718
      5  CB         8.3040    3.5380   11.2180 C.3   105  ARG105      0.0321
      6  CG         7.5320    2.9910   12.4050 C.3   105  ARG105      0.0489
      7  CD         8.2390    1.7930   13.0270 C.3   105  ARG105      0.2205
      8  NE         8.1910    0.6140   12.1650 N.pl3 105  ARG105     -0.0865
      9  CZ         8.8340   -0.5250   12.4160 C.cat 105  ARG105      0.5346
     10  NH1        9.5860   -0.6450   13.5060 N.pl3 105  ARG105      0.1354
     11  NH2        8.7290   -1.5450   11.5740 N.pl3 105  ARG105      0.1354
     12  N          5.7810    5.7040   11.5630 N.am  106  GLY106     -0.1942
     13  CA         5.2620    6.8300   12.3270 C.3   106  GLY106      0.2014
     14  C          4.1910    6.4370   13.3180 C.2   106  GLY106      0.2638
     15  O          3.9500    5.2480   13.5680 O.2   106  GLY106     -0.2714
     16  N          3.5430    7.4520   13.8870 N.am  107  MET107     -0.1976
     17  CA         2.4370    7.2590   14.8140 C.3   107  MET107      0.1605
     18  C          1.3880    8.3340   14.5680 C.2   107  MET107      0.2287
     19  O          1.7160    9.5260   14.5370 O.2   107  MET107     -0.2864
     20  CB         2.9060    7.3720   16.2640 C.3   107  MET107      0.0413
     21  CG         1.7390    7.3390   17.2420 C.3   107  MET107      0.0598
     22  SD         2.2780    7.3620   18.9550 S.3   107  MET107     -0.1393
     23  CE         2.7420    5.6290   19.0970 C.3   107  MET107      0.0692
     24  N         -1.3090   10.6350   15.8670 N.3   109  LEU109     -0.1245
     25  CA        -1.4210   11.1830   17.2070 C.3   109  LEU109      0.1561
     26  C         -2.8180   11.6250   17.5890 C.2   109  LEU109      0.2260
     27  O         -3.2390   11.4400   18.7240 O.2   109  LEU109     -0.2867
     28  CB        -0.4720   12.3800   17.3560 C.3   109  LEU109      0.0270
     29  CG         1.0040   12.0660   17.0770 C.3   109  LEU109      0.0019
     30  CD1        1.8350   13.3420   16.8700 C.3   109  LEU109      0.0001
     31  CD2        1.5920   11.2650   18.2200 C.3   109  LEU109      0.0001
     32  N          3.5130   11.8810   13.5810 N.3   122  THR122     -0.1203
     33  CA         4.9520   12.1260   13.6790 C.3   122  THR122      0.1994
     34  C          5.6840   10.8600   13.2440 C.2   122  THR122      0.2618
     35  O          5.0490    9.8280   13.0210 O.2   122  THR122     -0.2717
     36  CB         5.3680   12.5690   15.1110 C.3   122  THR122      0.1784
     37  OG1        6.7400   12.9860   15.1030 O.3   122  THR122     -0.2211
     38  CG2        5.1900   11.4440   16.1290 C.3   122  THR122      0.0376
     39  N          7.0070   10.9290   13.1260 N.am  123  TYR123     -0.1961
     40  CA         7.7780    9.8520   12.5120 C.3   123  TYR123      0.1771
     41  C          8.9720    9.4930   13.3840 C.2   123  TYR123      0.2619
     42  O          9.5740   10.3540   14.0070 O.2   123  TYR123     -0.2715
     43  CB         8.2280   10.2630   11.0990 C.3   123  TYR123      0.0574
     44  CG         7.0350   10.5030   10.1920 C.ar  123  TYR123     -0.0198
     45  CD1        6.3800    9.4380    9.5880 C.ar  123  TYR123     -0.0009
     46  CD2        6.5030   11.7820   10.0180 C.ar  123  TYR123     -0.0009
     47  CE1        5.2490    9.6430    8.7920 C.ar  123  TYR123      0.0417
     48  CE2        5.3960   11.9970    9.2140 C.ar  123  TYR123      0.0417
     49  CZ         4.7650   10.9250    8.6200 C.ar  123  TYR123      0.1957
     50  OH         3.6600   11.1150    7.8370 O.3   123  TYR123     -0.2866
     51  N          9.3080    8.2120   13.4280 N.am  124  GLU124     -0.1977
     52  CA        10.4210    7.7530   14.2500 C.3   124  GLU124      0.1602
     53  C         11.7200    8.4650   13.8670 C.2   124  GLU124      0.2287
     54  O         12.4910    8.8970   14.7310 O.2   124  GLU124     -0.2864
     55  CB        10.5840    6.2390   14.0600 C.3   124  GLU124      0.0415
     56  CG        11.4820    5.5630   15.0680 C.3   124  GLU124      0.1163
     57  CD        11.6700    4.0880   14.7500 C.2   124  GLU124      0.3649
     58  OE1       10.7250    3.3010   14.9660 O.co2 124  GLU124     -0.2457
     59  OE2       12.7570    3.7210   14.2610 O.co2 124  GLU124     -0.2457
     60  N         10.9400   13.2590   14.2600 N.3   127  PRO127     -0.2116
     61  CA         9.9980   13.3540   15.3700 C.3   127  PRO127      0.1372
     62  C          9.5220   14.7730   15.5690 C.2   127  PRO127      0.2244
     63  O          9.6250   15.3120   16.6630 O.2   127  PRO127     -0.2868
     64  CB        10.8330   12.9080   16.5710 C.3   127  PRO127      0.0268
     65  CG        12.1980   13.3570   16.2320 C.3   127  PRO127      0.0207
     66  CD        12.3360   13.1890   14.7370 C.3   127  PRO127      0.0892
     67  N          3.3080   10.5960   25.6370 N.3   174  VAL174     -0.1245
     68  CA         3.8570   11.3290   24.4980 C.3   174  VAL174      0.1561
     69  C          3.4290   12.7950   24.5620 C.2   174  VAL174      0.2260
     70  O          2.2720   13.1040   24.8490 O.2   174  VAL174     -0.2867
     71  CB         3.4090   10.6750   23.1590 C.3   174  VAL174      0.0252
     72  CG1        4.0050   11.4000   21.9750 C.3   174  VAL174      0.0019
     73  CG2        3.8260    9.2030   23.1310 C.3   174  VAL174      0.0019
     74  N          7.9350   15.9290   18.9980 N.3   187  VAL187     -0.1231
     75  CA         7.0440   14.9760   19.6390 C.3   187  VAL187      0.1692
     76  C          7.8770   13.8540   20.2300 C.2   187  VAL187      0.2592
     77  O          8.5070   13.0940   19.5000 O.2   187  VAL187     -0.2718
     78  CB         6.0350   14.3850   18.6350 C.3   187  VAL187      0.0266
     79  CG1        5.0440   13.4630   19.3550 C.3   187  VAL187      0.0020
     80  CG2        5.2990   15.5080   17.9230 C.3   187  VAL187      0.0020
     81  N          7.8700   13.7610   21.5510 N.am  188  TYR188     -0.1962
     82  CA         8.7190   12.7930   22.2360 C.3   188  TYR188      0.1771
     83  C          7.9270   12.0040   23.2710 C.2   188  TYR188      0.2619
     84  O          7.0340   12.5250   23.9310 O.2   188  TYR188     -0.2715
     85  CB         9.8750   13.5070   22.9520 C.3   188  TYR188      0.0574
     86  CG        10.9130   14.2000   22.0680 C.ar  188  TYR188     -0.0198
     87  CD1       11.2550   13.7080   20.8190 C.ar  188  TYR188     -0.0009
     88  CD2       11.5640   15.3400   22.5130 C.ar  188  TYR188     -0.0009
     89  CE1       12.2150   14.3430   20.0340 C.ar  188  TYR188      0.0417
     90  CE2       12.5100   15.9830   21.7420 C.ar  188  TYR188      0.0417
     91  CZ        12.8350   15.4820   20.5080 C.ar  188  TYR188      0.1957
     92  OH        13.7880   16.1320   19.7570 O.3   188  TYR188     -0.2866
     93  N          8.2870   10.7380   23.4290 N.am  189  ASP189     -0.1971
     94  CA         7.8020    9.9460   24.5460 C.3   189  ASP189      0.1709
     95  C          8.6640   10.2740   25.7680 C.2   189  ASP189      0.2293
     96  O          9.8780   10.0790   25.7430 O.2   189  ASP189     -0.2864
     97  CB         7.9220    8.4590   24.2020 C.3   189  ASP189      0.1436
     98  CG         7.1660    7.5730   25.1700 C.2   189  ASP189      0.3671
     99  OD1        7.0900    7.9200   26.3690 O.co2 189  ASP189     -0.2456
    100  OD2        6.6470    6.5260   24.7330 O.co2 189  ASP189     -0.2456
@<TRIPOS>BOND
     1    50    49    1
     2    49    47   ar
     3    49    48   ar
     4    47    45   ar
     5     1     2    1
     6    48    46   ar
     7    45    44   ar
     8    46    44   ar
     9    44    43    1
    10     2     3    1
    11     2     5    1
    12    43    40    1
    13     3     4    2
    14     3    12   am
    15     5     6    1
    16    12    13    1
    17    11     9    1
    18     8     9    2
    19     8     7    1
    20    13    14    1
    21     6     7    1
    22     9    10    1
    23    40    39    1
    24    40    41    1
    25    35    34    2
    26    39    34   am
    27    34    33    1
    28    14    15    2
    29    14    16   am
    30    41    51   am
    31    41    42    2
    32    51    52    1
    33    32    33    1
    34    33    36    1
    35    53    52    1
    36    53    54    2
    37    16    17    1
    38    55    52    1
    39    55    56    1
    40    60    66    1
    41    60    61    1
    42    59    57   ar
    43    19    18    2
    44    18    17    1
    45    66    65    1
    46    57    58   ar
    47    57    56    1
    48    17    20    1
    49    37    36    1
    50    36    38    1
    51    61    62    1
    52    61    64    1
    53    62    63    2
    54    24    25    1
    55    65    64    1
    56    20    21    1
    57    30    29    1
    58    29    28    1
    59    29    31    1
    60    25    28    1
    61    25    26    1
    62    21    22    1
    63    26    27    2
    64    80    78    1
    65    78    79    1
    66    78    75    1
    67    22    23    1
    68    74    75    1
    69    77    76    2
    70    75    76    1
    71    92    91    1
    72    89    91   ar
    73    89    87   ar
    74    76    81   am
    75    91    90   ar
    76    87    86   ar
    77    81    82    1
    78    90    88   ar
    79    72    71    1
    80    86    88   ar
    81    86    85    1
    82    82    85    1
    83    82    83    1
    84    73    71    1
    85    71    68    1
    86    83    93   am
    87    83    84    2
    88    93    94    1
    89    97    94    1
    90    97    98    1
    91    68    69    1
    92    68    67    1
    93    94    95    1
    94    69    70    2
    95   100    98   ar
    96    98    99   ar
    97    96    95    2
