@<TRIPOS>MOLECULE
tmp/4mzqL00.pdb
 101 101 0 0 0
SMALL
GASTEIGER

@<TRIPOS>ATOM
      1  N         24.5830   37.5460 -119.1770 N.3    19  TYR19      -0.1241
      2  CA        24.7780   38.6880 -120.0580 C.3    19  TYR19       0.1605
      3  C         25.5810   39.7340 -119.3080 C.2    19  TYR19       0.2264
      4  O         25.8720   39.5640 -118.1210 O.2    19  TYR19      -0.2867
      5  CB        23.4230   39.2180 -120.5620 C.3    19  TYR19       0.0534
      6  CG        22.7370   38.1250 -121.3450 C.ar   19  TYR19      -0.0201
      7  CD1       23.2100   37.7500 -122.5930 C.ar   19  TYR19      -0.0009
      8  CD2       21.6780   37.4050 -120.8070 C.ar   19  TYR19      -0.0009
      9  CE1       22.6380   36.7080 -123.3050 C.ar   19  TYR19       0.0417
     10  CE2       21.0910   36.3670 -121.5230 C.ar   19  TYR19       0.0417
     11  CZ        21.5750   36.0210 -122.7630 C.ar   19  TYR19       0.1957
     12  OH        21.0000   34.9770 -123.4690 O.3    19  TYR19      -0.2866
     13  N         23.4570   40.5030 -115.4290 N.3    23  LEU23      -0.1231
     14  CA        22.1180   40.0340 -115.7630 C.3    23  LEU23       0.1693
     15  C         22.1280   38.5250 -115.9130 C.2    23  LEU23       0.2592
     16  O         22.9390   37.9620 -116.6600 O.2    23  LEU23      -0.2718
     17  CB        21.6190   40.6920 -117.0480 C.3    23  LEU23       0.0284
     18  CG        20.2440   40.2620 -117.5450 C.3    23  LEU23       0.0019
     19  CD1       19.1840   40.6990 -116.5560 C.3    23  LEU23       0.0001
     20  CD2       19.9510   40.8610 -118.9280 C.3    23  LEU23       0.0001
     21  N         21.2540   37.8710 -115.1650 N.am   24  VAL24      -0.1966
     22  CA        21.1400   36.4230 -115.2400 C.3    24  VAL24       0.1727
     23  C         20.2220   36.0720 -116.4130 C.2    24  VAL24       0.2616
     24  O         19.2730   36.8020 -116.7100 O.2    24  VAL24      -0.2715
     25  CB        20.6240   35.8500 -113.9110 C.3    24  VAL24       0.0290
     26  CG1       20.4950   34.3420 -114.0060 C.3    24  VAL24       0.0023
     27  CG2       21.6050   36.2240 -112.7900 C.3    24  VAL24       0.0023
     28  N         20.5260   34.9760 -117.1120 N.am   25  ASN25      -0.1958
     29  CA        19.7120   34.5840 -118.2540 C.3    25  ASN25       0.1819
     30  C         18.4280   33.8740 -117.8070 C.2    25  ASN25       0.2621
     31  O         18.3680   33.2710 -116.7350 O.2    25  ASN25      -0.2715
     32  CB        20.5210   33.7100 -119.2380 C.3    25  ASN25       0.1195
     33  CG        21.1690   32.4950 -118.5800 C.2    25  ASN25       0.2630
     34  OD1       21.4580   32.4980 -117.3880 O.2    25  ASN25      -0.2716
     35  ND2       21.4390   31.4670 -119.3820 N.am   25  ASN25      -0.0877
     36  N         17.3960   33.9700 -118.6340 N.am   26  GLY26      -0.1954
     37  CA        16.1210   33.3400 -118.3370 C.3    26  GLY26       0.1869
     38  C         16.2650   31.8440 -118.2030 C.2    26  GLY26       0.2309
     39  O         15.5850   31.2160 -117.4010 O.2    26  GLY26      -0.2863
     40  N          4.0220   27.9430 -122.3750 N.3    56  ASP56      -0.1225
     41  CA         3.8900   29.3230 -121.9230 C.3    56  ASP56       0.1805
     42  C          4.7570   29.6780 -120.7290 C.2    56  ASP56       0.2598
     43  O          4.2490   30.0790 -119.6710 O.2    56  ASP56      -0.2718
     44  CB         2.4320   29.6480 -121.6090 C.3    56  ASP56       0.1424
     45  CG         2.0010   30.9620 -122.2230 C.2    56  ASP56       0.3668
     46  OD1        1.2160   30.9340 -123.1980 O.co2  56  ASP56      -0.2456
     47  OD2        2.4790   32.0190 -121.7560 O.co2  56  ASP56      -0.2456
     48  N          6.0690   29.5270 -120.9140 N.am   57  ILE57      -0.1966
     49  CA         7.0410   30.1260 -120.0100 C.3    57  ILE57       0.1727
     50  C          6.9400   31.6310 -120.1830 C.2    57  ILE57       0.2616
     51  O          6.9240   32.1180 -121.3090 O.2    57  ILE57      -0.2715
     52  CB         8.4890   29.6850 -120.3150 C.3    57  ILE57       0.0290
     53  CG1        8.6740   28.1860 -120.0660 C.3    57  ILE57       0.0022
     54  CG2        9.4890   30.4860 -119.4770 C.3    57  ILE57       0.0023
     55  CD1       10.0490   27.7040 -120.4800 C.3    57  ILE57       0.0001
     56  N          6.8490   32.3650 -119.0830 N.am   58  GLU58      -0.1963
     57  CA         6.9500   33.8120 -119.1570 C.3    58  GLU58       0.1733
     58  C          8.0230   34.2860 -118.1900 C.2    58  GLU58       0.2616
     59  O          8.0660   33.8650 -117.0300 O.2    58  GLU58      -0.2715
     60  CB         5.6060   34.4950 -118.8610 C.3    58  GLU58       0.0429
     61  CG         5.6330   35.9910 -119.2010 C.3    58  GLU58       0.1163
     62  CD         4.2600   36.6180 -119.3180 C.2    58  GLU58       0.3649
     63  OE1        4.0060   37.2990 -120.3390 O.co2  58  GLU58      -0.2457
     64  OE2        3.4350   36.4460 -118.3930 O.co2  58  GLU58      -0.2457
     65  N          8.9060   35.1420 -118.6950 N.am   59  PHE59      -0.1960
     66  CA         9.9410   35.7780 -117.8880 C.3    59  PHE59       0.1771
     67  C          9.4380   37.1790 -117.5790 C.2    59  PHE59       0.2620
     68  O          9.3280   38.0190 -118.4760 O.2    59  PHE59      -0.2715
     69  CB        11.2850   35.8150 -118.6240 C.3    59  PHE59       0.0574
     70  CG        11.8140   34.4510 -119.0190 C.ar   59  PHE59      -0.0200
     71  CD1       12.1200   33.4930 -118.0550 C.ar   59  PHE59      -0.0042
     72  CD2       12.0420   34.1380 -120.3510 C.ar   59  PHE59      -0.0042
     73  CE1       12.6090   32.2400 -118.4300 C.ar   59  PHE59      -0.0003
     74  CE2       12.5310   32.8910 -120.7240 C.ar   59  PHE59      -0.0003
     75  CZ        12.8160   31.9530 -119.7680 C.ar   59  PHE59      -0.0000
     76  N          9.0880   37.4210 -116.3230 N.am   60  THR60      -0.1937
     77  CA         8.2680   38.5800 -116.0040 C.3    60  THR60       0.2028
     78  C          9.0120   39.7190 -115.3230 C.2    60  THR60       0.2642
     79  O          8.4980   40.8400 -115.2770 O.2    60  THR60      -0.2714
     80  CB         7.0810   38.1890 -115.1000 C.3    60  THR60       0.1808
     81  OG1        7.5710   37.5440 -113.9150 O.3    60  THR60      -0.2208
     82  CG2        6.0960   37.2570 -115.8500 C.3    60  THR60       0.0379
     83  N         10.1970   39.4260 -114.7910 N.am   61  ALA61      -0.1963
     84  CA        11.0450   40.4450 -114.1710 C.3    61  ALA61       0.1713
     85  C         12.4980   40.0000 -114.2570 C.2    61  ALA61       0.2458
     86  O         12.7850   38.8070 -114.1430 O.2    61  ALA61      -0.2730
     87  CB        10.6380   40.6850 -112.7140 C.3    61  ALA61       0.0333
     88  N         13.4200   40.9480 -114.4630 N.am   62  PRO62      -0.2716
     89  CA        14.8420   40.5900 -114.6050 C.3    62  PRO62       0.1536
     90  C         15.4820   40.1030 -113.3060 C.2    62  PRO62       0.2598
     91  O         15.1220   40.5570 -112.2240 O.2    62  PRO62      -0.2715
     92  CB        15.4890   41.8980 -115.0710 C.3    62  PRO62       0.0310
     93  CG        14.6230   42.9490 -114.5290 C.3    62  PRO62       0.0237
     94  CD        13.2060   42.3960 -114.5960 C.3    62  PRO62       0.0939
     95  N         16.4650   39.2150 -113.4440 N.am   63  VAL63      -0.1978
     96  CA        17.1700   38.6210 -112.3130 C.3    63  VAL63       0.1596
     97  C         18.6510   38.9740 -112.4220 C.2    63  VAL63       0.2287
     98  O         19.2160   38.9280 -113.5090 O.2    63  VAL63      -0.2864
     99  CB        16.9790   37.0840 -112.2900 C.3    63  VAL63       0.0276
    100  CG1       17.8460   36.4300 -111.2040 C.3    63  VAL63       0.0022
    101  CG2       15.4950   36.7320 -112.1230 C.3    63  VAL63       0.0022
@<TRIPOS>BOND
     1    12    11    1
     2     9    11   ar
     3     9     7   ar
     4    46    45   ar
     5    11    10   ar
     6     7     6   ar
     7    40    41    1
     8    45    47   ar
     9    45    44    1
    10    41    44    1
    11    41    42    1
    12    10     8   ar
    13     6     8   ar
    14     6     5    1
    15    51    50    2
    16    48    42   am
    17    48    49    1
    18    42    43    2
    19    74    72   ar
    20    74    75   ar
    21     5     2    1
    22    55    53    1
    23    72    70   ar
    24    63    62   ar
    25    52    53    1
    26    52    49    1
    27    52    54    1
    28    50    49    1
    29    50    56   am
    30     2     3    1
    31     2     1    1
    32    75    73   ar
    33    35    33   am
    34    62    61    1
    35    62    64   ar
    36     3     4    2
    37    32    33    1
    38    32    29    1
    39    61    60    1
    40    57    56    1
    41    57    60    1
    42    57    58    1
    43    70    69    1
    44    70    71   ar
    45    20    18    1
    46    65    58   am
    47    65    66    1
    48    36    37    1
    49    36    30   am
    50    69    66    1
    51    33    34    2
    52    68    67    2
    53    73    71   ar
    54    37    38    1
    55    29    30    1
    56    29    28    1
    57    38    39    2
    58    58    59    2
    59    66    67    1
    60    30    31    2
    61    67    76   am
    62    18    17    1
    63    18    19    1
    64    28    23   am
    65    17    14    1
    66    24    23    2
    67    16    15    2
    68    23    22    1
    69    76    77    1
    70    77    78    1
    71    77    80    1
    72    15    14    1
    73    15    21   am
    74    82    80    1
    75    14    13    1
    76    78    79    2
    77    78    83   am
    78    22    21    1
    79    22    25    1
    80    80    81    1
    81    92    89    1
    82    92    93    1
    83    83    84    1
    84    89    88    1
    85    89    90    1
    86    94    93    1
    87    94    88    1
    88    88    85   am
    89    85    84    1
    90    85    86    2
    91    84    87    1
    92    26    25    1
    93    25    27    1
    94    98    97    2
    95    95    90   am
    96    95    96    1
    97    90    91    2
    98    97    96    1
    99    96    99    1
   100    99   101    1
   101    99   100    1
