@<TRIPOS>MOLECULE
tmp/4mzqL01.pdb
 90 87 0 0 0
SMALL
GASTEIGER

@<TRIPOS>ATOM
      1  N         13.0430   10.8970 -114.0730 N.3    49  SER49      -0.1202
      2  CA        12.1750   11.2770 -115.2040 C.3    49  SER49       0.2020
      3  C         12.9390   11.9630 -116.3400 C.2    49  SER49       0.2619
      4  O         14.1330   12.2440 -116.2340 O.2    49  SER49      -0.2717
      5  CB        11.0310   12.1850 -114.7330 C.3    49  SER49       0.2103
      6  OG        11.4020   13.5590 -114.7870 O.3    49  SER49      -0.2182
      7  N         12.2350   12.1800 -117.4440 N.am   50  LEU50      -0.1965
      8  CA        12.7080   12.9590 -118.5800 C.3    50  LEU50       0.1728
      9  C         11.7450   14.1130 -118.7880 C.2    50  LEU50       0.2616
     10  O         10.5280   13.9170 -118.8050 O.2    50  LEU50      -0.2715
     11  CB        12.7740   12.1140 -119.8530 C.3    50  LEU50       0.0311
     12  CG        13.7850   10.9780 -119.9420 C.3    50  LEU50       0.0022
     13  CD1       13.4850   10.0880 -121.1450 C.3    50  LEU50       0.0001
     14  CD2       15.1980   11.5550 -120.0370 C.3    50  LEU50       0.0001
     15  N         12.2690   15.3150 -118.9700 N.am   51  PHE51      -0.1960
     16  CA        11.4030   16.4520 -119.2100 C.3    51  PHE51       0.1771
     17  C         10.8360   16.4130 -120.6380 C.2    51  PHE51       0.2619
     18  O         11.5870   16.2800 -121.6070 O.2    51  PHE51      -0.2715
     19  CB        12.1700   17.7640 -118.9570 C.3    51  PHE51       0.0574
     20  CG        11.3610   18.8070 -118.2220 C.ar   51  PHE51      -0.0200
     21  CD1       11.5890   19.0560 -116.8750 C.ar   51  PHE51      -0.0042
     22  CD2       10.3640   19.5150 -118.8690 C.ar   51  PHE51      -0.0042
     23  CE1       10.8420   20.0060 -116.1870 C.ar   51  PHE51      -0.0003
     24  CE2        9.6080   20.4700 -118.1900 C.ar   51  PHE51      -0.0003
     25  CZ         9.8430   20.7080 -116.8500 C.ar   51  PHE51      -0.0000
     26  N          9.5140   16.5200 -120.7650 N.am   52  LEU52      -0.1963
     27  CA         8.8480   16.4680 -122.0740 C.3    52  LEU52       0.1728
     28  C          8.8540   17.8250 -122.7780 C.2    52  LEU52       0.2616
     29  O          9.0160   17.9100 -123.9920 O.2    52  LEU52      -0.2715
     30  CB         7.4040   15.9860 -121.9240 C.3    52  LEU52       0.0311
     31  CG         7.1960   14.5120 -121.5970 C.3    52  LEU52       0.0022
     32  CD1        5.8680   14.3240 -120.9010 C.3    52  LEU52       0.0001
     33  CD2        7.2360   13.6980 -122.8860 C.3    52  LEU52       0.0001
     34  N          8.6490   18.8880 -122.0090 N.am   53  GLY53      -0.1955
     35  CA         8.5750   20.2160 -122.5820 C.3    53  GLY53       0.1869
     36  C          7.8090   21.1950 -121.7190 C.2    53  GLY53       0.2309
     37  O          7.3580   20.8560 -120.6220 O.2    53  GLY53      -0.2863
     38  N          4.8610   24.6110 -121.6790 N.3    55  LYS55      -0.1245
     39  CA         3.9310   25.5300 -122.3120 C.3    55  LYS55       0.1561
     40  C          3.9170   26.8760 -121.5910 C.2    55  LYS55       0.2260
     41  O          3.8250   26.9350 -120.3660 O.2    55  LYS55      -0.2867
     42  CB         2.5190   24.9320 -122.3420 C.3    55  LYS55       0.0271
     43  CG         2.4320   23.5980 -123.0670 C.3    55  LYS55       0.0035
     44  CD         1.0030   23.0820 -123.0850 C.3    55  LYS55       0.0206
     45  CE         0.7480   22.0780 -121.9750 C.3    55  LYS55       0.1093
     46  NZ         1.8630   22.0070 -120.9910 N.3    55  LYS55      -0.1314
     47  N         -0.8380   11.7880 -115.5140 N.3    79  GLY79      -0.1210
     48  CA        -1.3310   11.1240 -116.7080 C.3    79  GLY79       0.1956
     49  C         -0.9650    9.6600 -116.7110 C.2    79  GLY79       0.2612
     50  O         -0.8000    9.0470 -115.6590 O.2    79  GLY79      -0.2717
     51  N         -0.8390    9.0780 -117.8950 N.am   80  ASN80      -0.1960
     52  CA        -0.4410    7.6870 -117.9740 C.3    80  ASN80       0.1819
     53  C          1.0670    7.5640 -117.7840 C.2    80  ASN80       0.2621
     54  O          1.5220    6.9830 -116.7930 O.2    80  ASN80      -0.2715
     55  CB        -0.9040    7.0830 -119.2970 C.3    80  ASN80       0.1195
     56  CG        -2.4090    7.1340 -119.4440 C.2    80  ASN80       0.2630
     57  OD1       -3.1340    6.5140 -118.6670 O.2    80  ASN80      -0.2716
     58  ND2       -2.8890    7.8920 -120.4220 N.am   80  ASN80      -0.0877
     59  N          1.8320    8.1290 -118.7120 N.am   81  GLN81      -0.1963
     60  CA         3.2870    8.1880 -118.5690 C.3    81  GLN81       0.1733
     61  C          3.7490    9.6410 -118.4690 C.2    81  GLN81       0.2617
     62  O          4.9470    9.9170 -118.3690 O.2    81  GLN81      -0.2715
     63  CB         4.0000    7.4970 -119.7310 C.3    81  GLN81       0.0408
     64  CG         3.7380    5.9970 -119.8220 C.3    81  GLN81       0.0908
     65  CD         4.4410    5.3550 -121.0050 C.2    81  GLN81       0.2608
     66  OE1        5.3280    4.5270 -120.8360 O.2    81  GLN81      -0.2717
     67  NE2        4.0320    5.7300 -122.2100 N.am   81  GLN81      -0.0878
     68  N          2.7940   10.5680 -118.4910 N.am   82  SER82      -0.1950
     69  CA         3.1120   11.9860 -118.3860 C.3    82  SER82       0.1924
     70  C          2.5660   12.5790 -117.1000 C.2    82  SER82       0.2314
     71  O          1.5800   12.0810 -116.5360 O.2    82  SER82      -0.2863
     72  CB         2.5560   12.7570 -119.5860 C.3    82  SER82       0.2116
     73  OG         1.1730   13.0440 -119.3990 O.3    82  SER82      -0.2180
     74  N          5.7570   19.5810 -118.5050 N.3   121  SER121     -0.1217
     75  CA         5.3690   18.1920 -118.3270 C.3   121  SER121      0.1889
     76  C          6.5880   17.2850 -118.3050 C.2   121  SER121      0.2288
     77  O          7.5550   17.5500 -119.0020 O.2   121  SER121     -0.2866
     78  CB         4.4230   17.7660 -119.4430 C.3   121  SER121      0.2089
     79  OG         3.1850   18.4490 -119.3440 O.3   121  SER121     -0.2183
     80  N          8.0360   12.9410 -118.0180 N.3   123  PHE123     -0.1241
     81  CA         7.7520   11.5940 -118.5040 C.3   123  PHE123      0.1605
     82  C          8.4300   10.5370 -117.6420 C.2   123  PHE123      0.2264
     83  O          9.6260   10.6320 -117.3870 O.2   123  PHE123     -0.2867
     84  CB         8.2390   11.4580 -119.9560 C.3   123  PHE123      0.0534
     85  CG         8.1540   10.0600 -120.5170 C.ar  123  PHE123     -0.0203
     86  CD1        7.0080    9.6330 -121.1780 C.ar  123  PHE123     -0.0042
     87  CD2        9.2330    9.1930 -120.4290 C.ar  123  PHE123     -0.0042
     88  CE1        6.9390    8.3440 -121.7190 C.ar  123  PHE123     -0.0003
     89  CE2        9.1670    7.9100 -120.9520 C.ar  123  PHE123     -0.0003
     90  CZ         8.0270    7.4910 -121.6010 C.ar  123  PHE123     -0.0000
@<TRIPOS>BOND
     1    29    28    2
     2    44    43    1
     3    44    45    1
     4    43    42    1
     5    33    31    1
     6    28    27    1
     7    28    34   am
     8    35    34    1
     9    35    36    1
    10    42    39    1
    11    39    38    1
    12    39    40    1
    13    67    65   am
    14    27    30    1
    15    27    26    1
    16    45    46    1
    17    30    31    1
    18    88    90   ar
    19    88    86   ar
    20    36    37    2
    21    18    17    2
    22    90    89   ar
    23    31    32    1
    24    40    41    2
    25    86    85   ar
    26    13    12    1
    27    65    66    2
    28    65    64    1
    29    89    87   ar
    30    26    17   am
    31    17    16    1
    32    85    87   ar
    33    85    84    1
    34    58    56   am
    35    14    12    1
    36    84    81    1
    37    12    11    1
    38    11     8    1
    39    64    63    1
    40    63    60    1
    41    72    73    1
    42    72    69    1
    43    56    55    1
    44    56    57    2
    45    78    79    1
    46    78    75    1
    47    55    52    1
    48    16    15    1
    49    16    19    1
    50    77    76    2
    51    15     9   am
    52    19    20    1
    53    22    20   ar
    54    22    24   ar
    55    10     9    2
    56     9     8    1
    57    59    60    1
    58    59    53   am
    59     8     7    1
    60    60    61    1
    61    74    75    1
    62    81    80    1
    63    81    82    1
    64    68    61   am
    65    68    69    1
    66    61    62    2
    67    69    70    1
    68    75    76    1
    69    20    21   ar
    70    24    25   ar
    71    52    51    1
    72    52    53    1
    73    51    49   am
    74    53    54    2
    75    82    83    2
    76     7     3   am
    77    70    71    2
    78    21    23   ar
    79    25    23   ar
    80    49    48    1
    81    49    50    2
    82    48    47    1
    83     3     4    2
    84     3     2    1
    85     2     5    1
    86     2     1    1
    87     6     5    1
