@<TRIPOS>MOLECULE
tmp/4mzsB00.pdb
 123 119 0 0 0
SMALL
GASTEIGER

@<TRIPOS>ATOM
      1  N          7.6870    7.0540   -9.2140 N.3    19  GLN19      -0.1245
      2  CA         8.5680    8.0310   -8.5630 C.3    19  GLN19       0.1566
      3  C          9.0690    9.1460   -9.4710 C.2    19  GLN19       0.2260
      4  O          9.5070   10.1850   -8.9780 O.2    19  GLN19      -0.2867
      5  CB         9.7570    7.3490   -7.8720 C.3    19  GLN19       0.0367
      6  CG        10.6290    6.5140   -8.7820 C.3    19  GLN19       0.0905
      7  CD        11.6930    5.8430   -7.9790 C.2    19  GLN19       0.2608
      8  OE1       11.4560    4.8360   -7.3270 O.2    19  GLN19      -0.2717
      9  NE2       12.8550    6.4550   -7.9180 N.am   19  GLN19      -0.0878
     10  N         14.9090   10.3870   -6.8990 N.3    23  GLY23      -0.1225
     11  CA        15.3950    9.1600   -6.2810 C.3    23  GLY23       0.1811
     12  C         14.7190    8.9190   -4.9540 C.2    23  GLY23       0.2280
     13  O         15.3810    8.9170   -3.9200 O.2    23  GLY23      -0.2866
     14  N         12.7500    6.1380   -4.1860 N.3    25  CYS25      -0.1221
     15  CA        12.3950    4.7260   -4.0110 C.3    25  CYS25       0.1808
     16  C         12.3130    4.3660   -2.5070 C.2    25  CYS25       0.2601
     17  O         11.3670    3.7080   -2.0890 O.2    25  CYS25      -0.2717
     18  CB        13.3890    3.8300   -4.7270 C.3    25  CYS25       0.0970
     19  SG        15.0910    4.0150   -4.1350 S.3    25  CYS25      -0.0800
     20  N         13.3060    4.8380   -1.7170 N.am   26  TRP26      -0.1976
     21  CA        13.4170    4.6420   -0.2670 C.3    26  TRP26       0.1640
     22  C         12.1630    5.1720    0.4720 C.2    26  TRP26       0.2290
     23  O         11.6630    4.4970    1.3740 O.2    26  TRP26      -0.2864
     24  CB        14.6960    5.3070    0.2550 C.3    26  TRP26       0.0576
     25  CG        14.7230    6.7990    0.0930 C.ar   26  TRP26       0.0006
     26  CD1       15.1000    7.4990   -1.0130 C.ar   26  TRP26       0.0946
     27  CD2       14.2470    7.7670    1.0410 C.ar   26  TRP26       0.0152
     28  NE1       14.9540    8.8520   -0.7930 N.ar   26  TRP26      -0.2442
     29  CE2       14.4220    9.0440    0.4600 C.ar   26  TRP26       0.0810
     30  CE3       13.7000    7.6790    2.3360 C.ar   26  TRP26       0.0012
     31  CZ2       14.0660   10.2230    1.1250 C.ar   26  TRP26       0.0191
     32  CZ3       13.3470    8.8500    2.9970 C.ar   26  TRP26       0.0001
     33  CH2       13.5180   10.1030    2.3890 C.ar   26  TRP26       0.0015
     34  N         20.7010   11.1270    7.3090 N.3    63  GLY63      -0.1225
     35  CA        21.5030   10.6670    6.1840 C.3    63  GLY63       0.1811
     36  C         20.6550   10.4180    4.9470 C.2    63  GLY63       0.2280
     37  O         21.1040    9.7380    4.0230 O.2    63  GLY63      -0.2866
     38  N         18.6590   12.0860    1.6560 N.3    65  LYS65      -0.1245
     39  CA        19.0320   13.1840    0.7610 C.3    65  LYS65       0.1561
     40  C         17.9140   13.5670   -0.2010 C.2    65  LYS65       0.2260
     41  O         18.1790   14.1260   -1.2710 O.2    65  LYS65      -0.2867
     42  CB        20.3310   12.8270   -0.0150 C.3    65  LYS65       0.0271
     43  CG        21.5220   12.3940    0.8450 C.3    65  LYS65       0.0035
     44  CD        22.6790   12.0050   -0.0510 C.3    65  LYS65       0.0206
     45  CE        23.8760   12.9190    0.1020 C.3    65  LYS65       0.1093
     46  NZ        24.7400   12.5210    1.2500 N.3    65  LYS65      -0.1314
     47  N         17.9050   12.6870   -3.7950 N.3    68  GLY68      -0.1210
     48  CA        19.2460   12.1170   -3.9030 C.3    68  GLY68       0.1956
     49  C         19.3840   10.7320   -3.2910 C.2    68  GLY68       0.2612
     50  O         20.4710   10.1520   -3.3180 O.2    68  GLY68      -0.2717
     51  N         18.2910   10.1830   -2.7590 N.am   69  GLY69      -0.1942
     52  CA        18.3200    8.8630   -2.1460 C.3    69  GLY69       0.2014
     53  C         18.2070    8.9190   -0.6400 C.2    69  GLY69       0.2639
     54  O         18.1800   10.0070   -0.0600 O.2    69  GLY69      -0.2714
     55  N         18.0470    7.7510   -0.0220 N.am   70  GLY70      -0.1939
     56  CA        17.8520    7.6510    1.4190 C.3    70  GLY70       0.2014
     57  C         17.6590    6.2370    1.9230 C.2    70  GLY70       0.2639
     58  O         17.8080    5.2750    1.1830 O.2    70  GLY70      -0.2714
     59  N         17.3160    6.1070    3.1810 N.am   71  TYR71      -0.1959
     60  CA        17.1500    4.8100    3.8230 C.3    71  TYR71       0.1771
     61  C         15.7960    4.7040    4.4340 C.2    71  TYR71       0.2619
     62  O         15.3310    5.6530    5.0800 O.2    71  TYR71      -0.2715
     63  CB        18.2270    4.6230    4.9000 C.3    71  TYR71       0.0574
     64  CG        19.6300    4.8240    4.3820 C.ar   71  TYR71      -0.0198
     65  CD1       20.2060    6.0920    4.3460 C.ar   71  TYR71      -0.0009
     66  CD2       20.3680    3.7570    3.8780 C.ar   71  TYR71      -0.0009
     67  CE1       21.4870    6.2920    3.8290 C.ar   71  TYR71       0.0417
     68  CE2       21.6520    3.9450    3.3660 C.ar   71  TYR71       0.0417
     69  CZ        22.2170    5.2100    3.3700 C.ar   71  TYR71       0.1957
     70  OH        23.4900    5.3980    2.8950 O.3    71  TYR71      -0.2866
     71  N         15.1500    3.5450    4.2290 N.am   72  MET72      -0.1977
     72  CA        13.8320    3.2340    4.7730 C.3    72  MET72       0.1605
     73  C         13.8360    3.2320    6.3250 C.2    72  MET72       0.2287
     74  O         12.8740    3.7030    6.9300 O.2    72  MET72      -0.2864
     75  CB        13.3420    1.8690    4.2620 C.3    72  MET72       0.0413
     76  CG        13.0270    1.8470    2.7710 C.3    72  MET72       0.0598
     77  SD        14.4840    1.6060    1.7250 S.3    72  MET72      -0.1393
     78  CE        14.7140   -0.1510    1.8650 C.3    72  MET72       0.0692
     79  N         16.1680   -3.6250    0.4450 N.3   138  GLY138     -0.1225
     80  CA        17.1120   -3.0690   -0.5090 C.3   138  GLY138      0.1811
     81  C         17.4580   -4.1450   -1.5240 C.2   138  GLY138      0.2280
     82  O         17.5780   -5.3220   -1.1620 O.2   138  GLY138     -0.2866
     83  N         23.2250   -3.5920   -3.1920 N.3   163  VAL163     -0.1231
     84  CA        21.9020   -2.9660   -3.3140 C.3   163  VAL163      0.1692
     85  C         21.9830   -1.4450   -3.5880 C.2   163  VAL163      0.2592
     86  O         22.9520   -0.7930   -3.2110 O.2   163  VAL163     -0.2718
     87  CB        20.9760   -3.3230   -2.1180 C.3   163  VAL163      0.0266
     88  CG1       20.9290   -4.8420   -1.9000 C.3   163  VAL163      0.0020
     89  CG2       21.3850   -2.6140   -0.8340 C.3   163  VAL163      0.0020
     90  N         20.9990   -0.9070   -4.3240 N.am  164  ASN164     -0.1960
     91  CA        20.9600    0.5220   -4.6750 C.3   164  ASN164      0.1819
     92  C         19.5150    1.0400   -4.7870 C.2   164  ASN164      0.2621
     93  O         19.2980    2.2100   -5.1120 O.2   164  ASN164     -0.2715
     94  CB        21.7280    0.7650   -5.9890 C.3   164  ASN164      0.1195
     95  CG        21.0420    0.2890   -7.2550 C.2   164  ASN164      0.2630
     96  OD1       20.3310   -0.7310   -7.2940 O.2   164  ASN164     -0.2716
     97  ND2       21.2860    1.0040   -8.3410 N.am  164  ASN164     -0.0877
     98  N         18.5350    0.1620   -4.5230 N.am  165  HIS165     -0.1959
     99  CA        17.1150    0.4610   -4.7190 C.3   165  HIS165      0.1787
    100  C         16.1920   -0.0990   -3.6290 C.2   165  HIS165      0.2620
    101  O         16.2440   -1.2850   -3.3160 O.2   165  HIS165     -0.2715
    102  CB        16.7320   -0.0570   -6.1280 C.3   165  HIS165      0.0785
    103  CG        15.3680    0.3230   -6.6060 C.ar  165  HIS165      0.0821
    104  ND1       15.0120    1.6440   -6.8210 N.ar  165  HIS165     -0.2267
    105  CD2       14.3290   -0.4700   -6.9420 C.ar  165  HIS165      0.1154
    106  CE1       13.7510    1.6110   -7.2220 C.ar  165  HIS165      0.1986
    107  NE2       13.2940    0.3600   -7.2840 N.ar  165  HIS165     -0.2212
    108  N         15.3680    0.7750   -3.0540 N.am  166  GLY166     -0.1954
    109  CA        14.3880    0.4220   -2.0440 C.3   166  GLY166      0.1869
    110  C         13.0830    0.0030   -2.6850 C.2   166  GLY166      0.2309
    111  O         12.5280    0.7160   -3.5270 O.2   166  GLY166     -0.2863
    112  N         18.8540   -6.0120    3.8020 N.3   212  TYR212     -0.1241
    113  CA        18.4560   -4.8350    4.5980 C.3   212  TYR212      0.1605
    114  C         16.9500   -4.7490    4.7730 C.2   212  TYR212      0.2264
    115  O         16.2760   -3.8610    4.2270 O.2   212  TYR212     -0.2867
    116  CB        19.0370   -3.5380    3.9970 C.3   212  TYR212      0.0534
    117  CG        20.5390   -3.5500    3.8340 C.ar  212  TYR212     -0.0201
    118  CD1       21.1250   -3.8920    2.6190 C.ar  212  TYR212     -0.0009
    119  CD2       21.3770   -3.1750    4.8800 C.ar  212  TYR212     -0.0009
    120  CE1       22.5080   -3.8810    2.4540 C.ar  212  TYR212      0.0417
    121  CE2       22.7630   -3.1620    4.7280 C.ar  212  TYR212      0.0417
    122  CZ        23.3240   -3.5150    3.5110 C.ar  212  TYR212      0.1957
    123  OH        24.6860   -3.4960    3.3440 O.3   212  TYR212     -0.2866
@<TRIPOS>BOND
     1     3     4    2
     2     3     2    1
     3     1     2    1
     4     6     7    1
     5     6     5    1
     6     2     5    1
     7    97    95   am
     8     7     9   am
     9     7     8    2
    10    96    95    2
    11   107   106   ar
    12   107   105   ar
    13    95    94    1
    14   106   104   ar
    15   105   103   ar
    16    10    11    1
    17   104   103   ar
    18   103   102    1
    19    11    12    1
    20   102    99    1
    21    94    91    1
    22    93    92    2
    23    12    13    2
    24    92    91    1
    25    92    98   am
    26    18    19    1
    27    18    15    1
    28    99    98    1
    29    99   100    1
    30    91    90    1
    31    90    85   am
    32    14    15    1
    33    15    16    1
    34    48    47    1
    35    48    49    1
    36   100   101    2
    37   100   108   am
    38    85    84    1
    39    85    86    2
    40   111   110    2
    41    50    49    2
    42    84    83    1
    43    84    87    1
    44    49    51   am
    45   108   109    1
    46    51    52    1
    47   110   109    1
    48    16    17    2
    49    16    20   am
    50    52    53    1
    51    87    88    1
    52    87    89    1
    53    20    21    1
    54    81    82    2
    55    81    80    1
    56    41    40    2
    57    26    28   ar
    58    26    25   ar
    59    28    29   ar
    60    53    54    2
    61    53    55   am
    62    80    79    1
    63    21    24    1
    64    21    22    1
    65    40    39    1
    66    44    45    1
    67    44    43    1
    68    55    56    1
    69    42    39    1
    70    42    43    1
    71    25    24    1
    72    25    27   ar
    73    45    46    1
    74    29    27   ar
    75    29    31   ar
    76    22    23    2
    77    39    38    1
    78    27    30   ar
    79    31    33   ar
    80    58    57    2
    81    56    57    1
    82    77    78    1
    83    77    76    1
    84    57    59   am
    85    30    32   ar
    86    33    32   ar
    87   120   118   ar
    88   120   122   ar
    89   118   117   ar
    90    76    75    1
    91    70    69    1
    92    59    60    1
    93   123   122    1
    94    68    69   ar
    95    68    66   ar
    96    69    67   ar
    97   122   121   ar
    98   112   113    1
    99    60    61    1
   100    60    63    1
   101    67    65   ar
   102   117   116    1
   103   117   119   ar
   104    66    64   ar
   105   116   113    1
   106    37    36    2
   107   115   114    2
   108    71    61   am
   109    71    72    1
   110    75    72    1
   111    65    64   ar
   112    64    63    1
   113    61    62    2
   114   113   114    1
   115   121   119   ar
   116    72    73    1
   117    36    35    1
   118    35    34    1
   119    73    74    2
