@<TRIPOS>MOLECULE
tmp/4mzuF01.pdb
 84 79 0 0 0
SMALL
GASTEIGER

@<TRIPOS>ATOM
      1  N          9.2940  -82.5770   29.4070 N.3    56  LYS56      -0.1245
      2  CA         9.2170  -83.2370   28.1190 C.3    56  LYS56       0.1561
      3  C         10.5360  -83.1740   27.3620 C.2    56  LYS56       0.2260
      4  O         11.5230  -82.6490   27.8760 O.2    56  LYS56      -0.2867
      5  CB         7.9960  -82.7500   27.3380 C.3    56  LYS56       0.0271
      6  CG         6.7350  -83.2510   28.0500 C.3    56  LYS56       0.0035
      7  CD         5.7200  -83.8330   27.0880 C.3    56  LYS56       0.0206
      8  CE         5.2390  -85.1900   27.5670 C.3    56  LYS56       0.1093
      9  NZ         4.0130  -85.6520   26.7960 N.3    56  LYS56      -0.1314
     10  N          5.0700  -77.9880   34.9010 N.3    72  PHE72      -0.1241
     11  CA         5.1070  -78.6660   33.6230 C.3    72  PHE72       0.1605
     12  C          6.1700  -77.9500   32.7660 C.2    72  PHE72       0.2264
     13  O          6.1280  -76.7130   32.5860 O.2    72  PHE72      -0.2867
     14  CB         3.7250  -78.6710   32.9810 C.3    72  PHE72       0.0534
     15  CG         3.6880  -79.2260   31.5580 C.ar   72  PHE72      -0.0203
     16  CD1        3.3630  -80.5450   31.3170 C.ar   72  PHE72      -0.0042
     17  CD2        3.9100  -78.4040   30.4560 C.ar   72  PHE72      -0.0042
     18  CE1        3.2720  -81.0550   30.0050 C.ar   72  PHE72      -0.0003
     19  CE2        3.8260  -78.8950   29.1340 C.ar   72  PHE72      -0.0003
     20  CZ         3.5000  -80.2290   28.9150 C.ar   72  PHE72      -0.0000
     21  N          7.9900  -79.3060   25.6150 N.3    75  PRO75      -0.2116
     22  CA         9.1170  -79.7850   24.8250 C.3    75  PRO75       0.1372
     23  C         10.0270  -78.6730   24.3530 C.2    75  PRO75       0.2244
     24  O          9.5730  -77.5670   24.0940 O.2    75  PRO75      -0.2868
     25  CB         8.4650  -80.4540   23.6230 C.3    75  PRO75       0.0268
     26  CG         7.0480  -80.0650   23.6330 C.3    75  PRO75       0.0207
     27  CD         6.6910  -79.5820   24.9860 C.3    75  PRO75       0.0892
     28  N          5.6420  -73.2130   28.3020 N.3   100  GLY100     -0.1210
     29  CA         5.2100  -73.7430   27.0200 C.3   100  GLY100      0.1956
     30  C          6.4250  -74.0210   26.1470 C.2   100  GLY100      0.2611
     31  O          7.5640  -73.5640   26.3760 O.2   100  GLY100     -0.2717
     32  N          6.1130  -74.7260   25.0790 N.am  101  ALA101     -0.1979
     33  CA         7.0150  -75.3670   24.1560 C.3   101  ALA101      0.1597
     34  C          8.0310  -74.4330   23.5060 C.2   101  ALA101      0.2287
     35  O          7.6860  -73.4030   22.9530 O.2   101  ALA101     -0.2864
     36  CB         6.1730  -76.0880   23.0940 C.3   101  ALA101      0.0319
     37  N          1.8040  -69.1250   33.3040 N.3   116  MET116     -0.1230
     38  CA         1.7470  -69.8450   32.0540 C.3   116  MET116      0.1702
     39  C          2.6330  -69.0660   31.0770 C.2   116  MET116      0.2592
     40  O          2.2890  -67.9710   30.6220 O.2   116  MET116     -0.2718
     41  CB         0.3080  -69.9430   31.5890 C.3   116  MET116      0.0401
     42  CG         0.1290  -70.5380   30.2010 C.3   116  MET116      0.0596
     43  SD        -0.4910  -72.2450   30.2820 S.3   116  MET116     -0.1393
     44  CE        -2.2800  -72.0260   30.2850 C.3   116  MET116      0.0692
     45  N          3.8020  -69.6120   30.7870 N.am  117  VAL117     -0.1966
     46  CA         4.7200  -69.0460   29.7890 C.3   117  VAL117      0.1727
     47  C          4.2530  -69.6870   28.4730 C.2   117  VAL117      0.2617
     48  O          4.1020  -70.9190   28.3880 O.2   117  VAL117     -0.2715
     49  CB         6.1690  -69.4450   30.1170 C.3   117  VAL117      0.0290
     50  CG1        7.0820  -69.2850   28.9020 C.3   117  VAL117      0.0023
     51  CG2        6.7420  -68.6510   31.2620 C.3   117  VAL117      0.0023
     52  N          3.9950  -68.8560   27.4630 N.am  118  GLY118     -0.1940
     53  CA         3.4240  -69.3390   26.2030 C.3   118  GLY118      0.2014
     54  C          4.3980  -70.0390   25.2740 C.2   118  GLY118      0.2639
     55  O          5.5900  -69.7140   25.2550 O.2   118  GLY118     -0.2714
     56  N          3.9250  -70.9660   24.4590 N.am  119  ALA119     -0.1963
     57  CA         4.8500  -71.5720   23.5010 C.3   119  ALA119      0.1728
     58  C          5.7740  -70.5090   22.8360 C.2   119  ALA119      0.2616
     59  O          5.3260  -69.4440   22.4140 O.2   119  ALA119     -0.2715
     60  CB         4.0620  -72.3510   22.4650 C.3   119  ALA119      0.0334
     61  N          7.0790  -70.7560   22.7860 N.am  120  GLY120     -0.1955
     62  CA         7.9490  -69.9070   22.0030 C.3   120  GLY120      0.1869
     63  C          8.3030  -68.5760   22.6130 C.2   120  GLY120      0.2309
     64  O          8.9190  -67.7660   21.9420 O.2   120  GLY120     -0.2863
     65  N          0.1460  -64.6610   32.3690 N.3   132  ILE132     -0.1245
     66  CA         0.3200  -65.4080   31.1200 C.3   132  ILE132      0.1561
     67  C          1.3000  -64.5390   30.3180 C.2   132  ILE132      0.2260
     68  O          1.0830  -63.3340   30.1480 O.2   132  ILE132     -0.2867
     69  CB        -0.9840  -65.6230   30.3660 C.3   132  ILE132      0.0252
     70  CG1       -1.9740  -66.4780   31.1650 C.3   132  ILE132      0.0019
     71  CG2       -0.7830  -66.3400   28.9920 C.3   132  ILE132      0.0019
     72  CD1       -3.4430  -66.5230   30.5210 C.3   132  ILE132      0.0001
     73  N          3.7120  -64.1720   26.7490 N.3   134  ILE134     -0.1231
     74  CA         3.7610  -64.5660   25.3420 C.3   134  ILE134      0.1692
     75  C          4.6640  -63.5570   24.6200 C.2   134  ILE134      0.2592
     76  O          4.8430  -62.4560   25.1450 O.2   134  ILE134     -0.2718
     77  CB         2.3390  -64.4740   24.8480 C.3   134  ILE134      0.0266
     78  CG1        1.7010  -65.8460   24.7730 C.3   134  ILE134      0.0019
     79  CG2        2.1580  -63.8040   23.4990 C.3   134  ILE134      0.0020
     80  CD1        0.1490  -65.6760   24.7400 C.3   134  ILE134      0.0001
     81  N          5.2980  -63.9780   23.5140 N.am  135  GLY135     -0.1957
     82  CA         6.0960  -63.1640   22.5740 C.3   135  GLY135      0.1869
     83  C          7.6140  -63.0930   22.7870 C.2   135  GLY135      0.2309
     84  O          8.1490  -63.6570   23.7820 O.2   135  GLY135     -0.2863
@<TRIPOS>BOND
     1    64    63    2
     2    62    63    1
     3    62    61    1
     4    59    58    2
     5    60    57    1
     6    82    83    1
     7    82    81    1
     8    61    58   am
     9    83    84    2
    10    58    57    1
    11    35    34    2
    12    36    33    1
    13    79    77    1
    14    57    56    1
    15    34    33    1
    16    81    75   am
    17    25    26    1
    18    25    22    1
    19    26    27    1
    20    24    23    2
    21    33    32    1
    22    23    22    1
    23    56    54   am
    24    75    76    2
    25    75    74    1
    26    80    78    1
    27    78    77    1
    28    22    21    1
    29    77    74    1
    30    27    21    1
    31    32    30   am
    32    55    54    2
    33    54    53    1
    34    74    73    1
    35    30    31    2
    36    30    29    1
    37    53    52    1
    38     9     8    1
    39    29    28    1
    40     7     8    1
    41     7     6    1
    42     5     6    1
    43     5     2    1
    44     3     4    2
    45     3     2    1
    46    52    47   am
    47     2     1    1
    48    48    47    2
    49    47    46    1
    50    50    49    1
    51    20    19   ar
    52    20    18   ar
    53    71    69    1
    54    19    17   ar
    55    46    49    1
    56    46    45    1
    57    18    16   ar
    58    49    51    1
    59    68    67    2
    60    42    43    1
    61    42    41    1
    62    43    44    1
    63    67    66    1
    64    69    66    1
    65    69    70    1
    66    17    15   ar
    67    72    70    1
    68    40    39    2
    69    45    39   am
    70    39    38    1
    71    66    65    1
    72    16    15   ar
    73    15    14    1
    74    41    38    1
    75    38    37    1
    76    13    12    2
    77    12    11    1
    78    14    11    1
    79    11    10    1
