@<TRIPOS>MOLECULE
tmp/4mzuF03.pdb
 146 144 0 0 0
SMALL
GASTEIGER

@<TRIPOS>ATOM
      1  N         20.0810  -76.7770   33.5310 N.3    62  TRP62      -0.1241
      2  CA        21.4860  -76.5240   33.8250 C.3    62  TRP62       0.1605
      3  C         21.7340  -76.2920   35.3200 C.2    62  TRP62       0.2264
      4  O         20.7920  -76.0900   36.0790 O.2    62  TRP62      -0.2867
      5  CB        21.9780  -75.2930   33.0470 C.3    62  TRP62       0.0550
      6  CG        21.6780  -75.3790   31.5940 C.ar   62  TRP62       0.0003
      7  CD1       20.7460  -74.6500   30.9480 C.ar   62  TRP62       0.0946
      8  CD2       22.2160  -76.3010   30.6350 C.ar   62  TRP62       0.0152
      9  NE1       20.6770  -75.0280   29.6470 N.ar   62  TRP62      -0.2442
     10  CE2       21.5700  -76.0360   29.4110 C.ar   62  TRP62       0.0810
     11  CE3       23.2000  -77.3050   30.6750 C.ar   62  TRP62       0.0012
     12  CZ2       21.8620  -76.7370   28.2350 C.ar   62  TRP62       0.0191
     13  CZ3       23.4930  -78.0120   29.5000 C.ar   62  TRP62       0.0001
     14  CH2       22.8140  -77.7270   28.2970 C.ar   62  TRP62       0.0015
     15  N         16.7090  -73.5430   28.9610 N.3    79  PHE79      -0.1227
     16  CA        17.1740  -72.6600   30.0250 C.3    79  PHE79       0.1736
     17  C         18.5840  -72.1850   29.7600 C.2    79  PHE79       0.2596
     18  O         19.2700  -72.6880   28.8890 O.2    79  PHE79      -0.2718
     19  CB        17.1200  -73.3350   31.3950 C.3    79  PHE79       0.0547
     20  CG        15.7370  -73.7490   31.8230 C.ar   79  PHE79      -0.0202
     21  CD1       14.9730  -72.9260   32.6320 C.ar   79  PHE79      -0.0042
     22  CD2       15.1610  -74.9110   31.3310 C.ar   79  PHE79      -0.0042
     23  CE1       13.6840  -73.2920   33.0160 C.ar   79  PHE79      -0.0003
     24  CE2       13.8860  -75.2790   31.7060 C.ar   79  PHE79      -0.0003
     25  CZ        13.1480  -74.4750   32.5590 C.ar   79  PHE79      -0.0000
     26  N         19.0390  -71.2170   30.5360 N.am   80  THR80      -0.1939
     27  CA        20.3940  -70.7230   30.3900 C.3    80  THR80       0.2028
     28  C         20.8690  -70.4450   31.8160 C.2    80  THR80       0.2642
     29  O         20.0760  -70.6090   32.7380 O.2    80  THR80      -0.2714
     30  CB        20.3760  -69.4470   29.4950 C.3    80  THR80       0.1808
     31  OG1       19.7340  -68.3690   30.1980 O.3    80  THR80      -0.2208
     32  CG2       19.6030  -69.7080   28.1920 C.3    80  THR80       0.0379
     33  N         22.1140  -70.0110   32.0120 N.am   81  ASN81      -0.1957
     34  CA        22.5930  -69.6030   33.3390 C.3    81  ASN81       0.1819
     35  C         23.7190  -68.5640   33.2860 C.2    81  ASN81       0.2621
     36  O         24.0950  -67.9820   34.3080 O.2    81  ASN81      -0.2715
     37  CB        22.9210  -70.8010   34.2570 C.3    81  ASN81       0.1195
     38  CG        23.9380  -71.7880   33.6430 C.2    81  ASN81       0.2630
     39  OD1       24.4520  -71.5660   32.5410 O.2    81  ASN81      -0.2716
     40  ND2       24.2160  -72.8920   34.3480 N.am   81  ASN81      -0.0877
     41  N         24.2030  -68.2850   32.0770 N.am   82  ASP82      -0.1957
     42  CA        25.1650  -67.2160   31.8410 C.3    82  ASP82       0.1840
     43  C         24.5850  -66.1920   30.8490 C.2    82  ASP82       0.2622
     44  O         24.2630  -66.5220   29.6960 O.2    82  ASP82      -0.2715
     45  CB        26.4730  -67.8380   31.3520 C.3    82  ASP82       0.1450
     46  CG        27.6240  -66.8440   31.2180 C.2    82  ASP82       0.3671
     47  OD1       28.7750  -67.3270   31.1380 O.co2  82  ASP82      -0.2456
     48  OD2       27.4420  -65.6120   31.1530 O.co2  82  ASP82      -0.2456
     49  N         24.4350  -64.9560   31.3230 N.am   83  LYS83      -0.1963
     50  CA        23.8760  -63.8370   30.5640 C.3    83  LYS83       0.1728
     51  C         24.8030  -63.3090   29.4710 C.2    83  LYS83       0.2616
     52  O         24.3020  -62.7130   28.5050 O.2    83  LYS83      -0.2715
     53  CB        23.4900  -62.6810   31.5010 C.3    83  LYS83       0.0311
     54  CG        22.4000  -61.7610   30.9370 C.3    83  LYS83       0.0038
     55  CD        21.5140  -61.1820   32.0310 C.3    83  LYS83       0.0206
     56  CE        20.6290  -60.0390   31.5390 C.3    83  LYS83       0.1093
     57  NZ        19.7050  -60.3850   30.4110 N.3    83  LYS83      -0.1314
     58  N         26.1150  -63.5070   29.6420 N.am   84  GLN84      -0.1964
     59  CA        27.1330  -63.0590   28.6910 C.3    84  GLN84       0.1718
     60  C         28.1120  -64.1860   28.3650 C.2    84  GLN84       0.2458
     61  O         29.2870  -64.0410   28.7130 O.2    84  GLN84      -0.2730
     62  CB        27.9860  -61.9410   29.2870 C.3    84  GLN84       0.0407
     63  CG        27.2530  -60.9580   30.1650 C.3    84  GLN84       0.0908
     64  CD        27.0630  -59.6220   29.4670 C.2    84  GLN84       0.2608
     65  OE1       27.8000  -58.6760   29.7570 O.2    84  GLN84      -0.2717
     66  NE2       26.1060  -59.5420   28.5310 N.am   84  GLN84      -0.0878
     67  N         27.6610  -65.2920   27.7250 N.am   85  PRO85      -0.2727
     68  CA        28.5500  -66.4610   27.6380 C.3    85  PRO85       0.1402
     69  C         29.6830  -66.2280   26.6360 C.2    85  PRO85       0.2269
     70  O         29.4810  -65.5560   25.6190 O.2    85  PRO85      -0.2865
     71  CB        27.6140  -67.5810   27.1610 C.3    85  PRO85       0.0296
     72  CG        26.5780  -66.8640   26.3340 C.3    85  PRO85       0.0237
     73  CD        26.3950  -65.5100   26.9960 C.3    85  PRO85       0.0939
     74  N         15.6260  -66.8320   30.2210 N.3   106  LEU106     -0.1231
     75  CA        16.9100  -66.2290   30.4950 C.3   106  LEU106      0.1678
     76  C         17.4160  -66.5680   31.9010 C.2   106  LEU106      0.2434
     77  O         16.7290  -67.2270   32.6660 O.2   106  LEU106     -0.2733
     78  CB        16.9310  -64.7350   30.1270 C.3   106  LEU106      0.0284
     79  CG        17.3090  -64.6240   28.6260 C.3   106  LEU106      0.0019
     80  CD1       16.1920  -64.8200   27.6330 C.3   106  LEU106      0.0001
     81  CD2       18.0540  -63.3680   28.2650 C.3   106  LEU106      0.0001
     82  N         18.6640  -66.2070   32.2120 N.am  107  PRO107     -0.2729
     83  CA        19.2850  -66.6680   33.4460 C.3   107  PRO107      0.1401
     84  C         18.8710  -65.8130   34.6420 C.2   107  PRO107      0.2269
     85  O         18.6070  -64.6110   34.4940 O.2   107  PRO107     -0.2865
     86  CB        20.7800  -66.4450   33.1880 C.3   107  PRO107      0.0296
     87  CG        20.9260  -65.8990   31.7930 C.3   107  PRO107      0.0237
     88  CD        19.5750  -65.3420   31.4450 C.3   107  PRO107      0.0939
     89  N         10.2090  -65.6620   24.8660 N.3   122  VAL122     -0.1245
     90  CA        11.5750  -65.4350   25.3060 C.3   122  VAL122      0.1561
     91  C         11.4260  -64.5970   26.5770 C.2   122  VAL122      0.2260
     92  O         11.1020  -63.4110   26.5350 O.2   122  VAL122     -0.2867
     93  CB        12.3770  -64.6830   24.2350 C.3   122  VAL122      0.0252
     94  CG1       13.6930  -64.1880   24.7780 C.3   122  VAL122      0.0019
     95  CG2       12.5560  -65.5150   22.9200 C.3   122  VAL122      0.0019
     96  N         12.6060  -62.7270   29.5220 N.3   124  THR124     -0.1203
     97  CA        13.6900  -61.8600   29.8930 C.3   124  THR124      0.1994
     98  C         13.4600  -61.3190   31.2880 C.2   124  THR124      0.2617
     99  O         14.3400  -60.7260   31.8330 O.2   124  THR124     -0.2717
    100  CB        13.7970  -60.6690   28.9240 C.3   124  THR124      0.1784
    101  OG1       12.6100  -59.8790   29.0380 O.3   124  THR124     -0.2211
    102  CG2       13.8810  -61.1730   27.4760 C.3   124  THR124      0.0376
    103  N         12.2750  -61.4420   31.8560 N.am  125  LYS125     -0.1979
    104  CA        12.0460  -60.8750   33.1900 C.3   125  LYS125      0.1596
    105  C         11.2530  -61.8290   34.0780 C.2   125  LYS125      0.2287
    106  O         10.5020  -62.6680   33.5640 O.2   125  LYS125     -0.2864
    107  CB        11.1890  -59.6010   33.1500 C.3   125  LYS125      0.0298
    108  CG        11.7560  -58.4000   32.4500 C.3   125  LYS125      0.0038
    109  CD        10.5680  -57.4520   32.2460 C.3   125  LYS125      0.0206
    110  CE        10.7110  -56.8390   30.8700 C.3   125  LYS125      0.1093
    111  NZ        11.4900  -55.5990   30.9900 N.3   125  LYS125     -0.1314
    112  N          8.2710  -62.3520   21.8810 N.3   136  ASN136     -0.1226
    113  CA         9.7120  -62.0740   21.9450 C.3   136  ASN136      0.1770
    114  C          9.9250  -60.5590   21.8930 C.2   136  ASN136      0.2439
    115  O          9.7850  -59.9620   20.8310 O.2   136  ASN136     -0.2733
    116  CB        10.4920  -62.7820   20.8150 C.3   136  ASN136      0.1168
    117  CG        12.0140  -62.5390   20.8600 C.2   136  ASN136      0.2627
    118  OD1       12.5200  -61.6560   21.5600 O.2   136  ASN136     -0.2716
    119  ND2       12.7510  -63.3100   20.0580 N.am  136  ASN136     -0.0877
    120  N         10.2360  -59.9360   23.0350 N.am  137  PRO137     -0.2729
    121  CA        10.4470  -60.4460   24.3960 C.3   137  PRO137      0.1401
    122  C          9.1090  -60.8260   25.0210 C.2   137  PRO137      0.2269
    123  O          8.0760  -60.4150   24.5170 O.2   137  PRO137     -0.2865
    124  CB        11.0170  -59.2320   25.1200 C.3   137  PRO137      0.0296
    125  CG        10.5950  -58.0380   24.3630 C.3   137  PRO137      0.0237
    126  CD        10.1310  -58.4710   22.9940 C.3   137  PRO137      0.0939
    127  N          5.8040  -60.6390   27.1110 N.3   139  ARG139     -0.1245
    128  CA         5.0240  -59.5810   27.7720 C.3   139  ARG139      0.1563
    129  C          3.8490  -60.2780   28.4460 C.2   139  ARG139      0.2260
    130  O          3.2910  -61.2310   27.8780 O.2   139  ARG139     -0.2867
    131  CB         4.3660  -58.6250   26.7490 C.3   139  ARG139      0.0307
    132  CG         5.3130  -57.9170   25.7590 C.3   139  ARG139      0.0489
    133  CD         6.4780  -57.2560   26.5490 C.3   139  ARG139      0.2205
    134  NE         7.2350  -56.2130   25.8390 N.pl3 139  ARG139     -0.0865
    135  CZ         8.3970  -55.7150   26.2590 C.cat 139  ARG139      0.5346
    136  NH1        9.0160  -54.8040   25.5110 N.pl3 139  ARG139      0.1354
    137  NH2        8.9670  -56.1520   27.3960 N.pl3 139  ARG139      0.1354
    138  N          4.5340  -51.9510   27.7910 N.3   199  LYS199     -0.1245
    139  CA         5.0010  -53.2440   28.3170 C.3   199  LYS199      0.1561
    140  C          4.8840  -53.3290   29.8310 C.2   199  LYS199      0.2260
    141  O          4.7690  -54.4260   30.3340 O.2   199  LYS199     -0.2867
    142  CB         6.4990  -53.4700   28.0160 C.3   199  LYS199      0.0271
    143  CG         7.4710  -52.4370   28.6090 C.3   199  LYS199      0.0035
    144  CD         7.9340  -51.5420   27.4860 C.3   199  LYS199      0.0206
    145  CE         6.9100  -51.5300   26.3220 C.3   199  LYS199      0.1093
    146  NZ         6.7460  -50.2630   25.5510 N.3   199  LYS199     -0.1314
@<TRIPOS>BOND
     1   119   117   am
     2   116   117    1
     3   116   113    1
     4   115   114    2
     5   117   118    2
     6   112   113    1
     7   114   113    1
     8   114   120   am
     9    95    93    1
    10   126   120    1
    11   126   125    1
    12   120   121    1
    13    93    94    1
    14    93    90    1
    15   125   124    1
    16   121   122    1
    17   121   124    1
    18   123   122    2
    19    89    90    1
    20    90    91    1
    21   136   135    1
    22   146   145    1
    23    70    69    2
    24   132   133    1
    25   132   131    1
    26   134   135    2
    27   134   133    1
    28   135   137    1
    29   145   144    1
    30    72    73    1
    31    72    71    1
    32    92    91    2
    33    69    68    1
    34   131   128    1
    35    73    67    1
    36   127   128    1
    37    71    68    1
    38   102   100    1
    39   144   143    1
    40    80    79    1
    41    68    67    1
    42    67    60   am
    43   128   129    1
    44   138   139    1
    45   130   129    2
    46   142   139    1
    47   142   143    1
    48    32    30    1
    49    12    14   ar
    50    12    10   ar
    51    81    79    1
    52    14    13   ar
    53   139   140    1
    54    60    59    1
    55    60    61    2
    56    52    51    2
    57    66    64   am
    58    79    78    1
    59    59    62    1
    60    59    58    1
    61    18    17    2
    62   100   101    1
    63   100    97    1
    64    15    16    1
    65    62    63    1
    66    10     9   ar
    67    10     8   ar
    68    64    65    2
    69    64    63    1
    70    51    58   am
    71    51    50    1
    72    30    31    1
    73    30    27    1
    74    13    11   ar
    75    96    97    1
    76     9     7   ar
    77    44    43    2
    78    17    16    1
    79    17    26   am
    80   140   141    2
    81    97    98    1
    82    16    19    1
    83    78    75    1
    84    74    75    1
    85    27    26    1
    86    27    28    1
    87    57    56    1
    88    75    76    1
    89    50    49    1
    90    50    53    1
    91     8    11   ar
    92     8     6   ar
    93    43    49   am
    94    43    42    1
    95   110   111    1
    96   110   109    1
    97    54    53    1
    98    54    55    1
    99     7     6   ar
   100    47    46   ar
   101    48    46   ar
   102    46    45    1
   103    98    99    2
   104    98   103   am
   105    22    24   ar
   106    22    20   ar
   107    45    42    1
   108    19    20    1
   109    88    87    1
   110    88    82    1
   111    56    55    1
   112     6     5    1
   113    24    25   ar
   114    87    86    1
   115    28    33   am
   116    28    29    2
   117    20    21   ar
   118    42    41    1
   119   103   104    1
   120    76    82   am
   121    76    77    2
   122    33    34    1
   123    41    35   am
   124    82    83    1
   125   109   108    1
   126   108   107    1
   127    39    38    2
   128    25    23   ar
   129    21    23   ar
   130     5     2    1
   131   107   104    1
   132    86    83    1
   133   104   105    1
   134    35    34    1
   135    35    36    2
   136    34    37    1
   137    83    84    1
   138     1     2    1
   139   106   105    2
   140    38    37    1
   141    38    40   am
   142     2     3    1
   143    85    84    2
   144     3     4    2
