@<TRIPOS>MOLECULE
tmp/4mzuF04.pdb
 98 94 0 0 0
SMALL
GASTEIGER

@<TRIPOS>ATOM
      1  N         -6.8870  -38.8070   49.6040 N.3   189  ARG189     -0.1245
      2  CA        -5.8040  -38.6340   48.6350 C.3   189  ARG189      0.1563
      3  C         -6.2010  -39.0600   47.2080 C.2   189  ARG189      0.2260
      4  O         -7.0920  -39.8860   47.0350 O.2   189  ARG189     -0.2867
      5  CB        -4.5380  -39.3190   49.1520 C.3   189  ARG189      0.0307
      6  CG        -3.6850  -40.0330   48.1430 C.3   189  ARG189      0.0489
      7  CD        -2.5070  -40.7770   48.8000 C.3   189  ARG189      0.2205
      8  NE        -2.9270  -42.0650   49.3400 N.pl3 189  ARG189     -0.0865
      9  CZ        -2.4450  -43.2540   49.0060 C.cat 189  ARG189      0.5346
     10  NH1       -2.9460  -44.3240   49.5940 N.pl3 189  ARG189      0.1354
     11  NH2       -1.4980  -43.3850   48.0850 N.pl3 189  ARG189      0.1354
     12  N         -4.0760  -39.7690   43.3210 N.3   191  PHE191     -0.1241
     13  CA        -2.8590  -39.6710   42.5470 C.3   191  PHE191      0.1605
     14  C         -3.1700  -40.0530   41.1110 C.2   191  PHE191      0.2264
     15  O         -4.2180  -40.6620   40.8130 O.2   191  PHE191     -0.2867
     16  CB        -1.7340  -40.5420   43.1180 C.3   191  PHE191      0.0534
     17  CG        -2.0680  -42.0040   43.2740 C.ar  191  PHE191     -0.0203
     18  CD1       -1.7160  -42.9160   42.2940 C.ar  191  PHE191     -0.0042
     19  CD2       -2.6040  -42.4890   44.4590 C.ar  191  PHE191     -0.0042
     20  CE1       -1.9380  -44.2600   42.4830 C.ar  191  PHE191     -0.0003
     21  CE2       -2.8710  -43.8190   44.6270 C.ar  191  PHE191     -0.0003
     22  CZ        -2.5030  -44.7210   43.6620 C.ar  191  PHE191     -0.0000
     23  N          3.9920  -53.2710   33.8220 N.3   201  VAL201     -0.1231
     24  CA         2.9250  -53.8240   34.6470 C.3   201  VAL201      0.1692
     25  C          2.9980  -53.0730   35.9700 C.2   201  VAL201      0.2592
     26  O          4.0050  -53.1210   36.6610 O.2   201  VAL201     -0.2718
     27  CB         3.0650  -55.3350   34.8290 C.3   201  VAL201      0.0266
     28  CG1        1.9880  -55.8510   35.7200 C.3   201  VAL201      0.0020
     29  CG2        2.9190  -56.0280   33.4840 C.3   201  VAL201      0.0020
     30  N          1.9290  -52.3390   36.2670 N.am  202  ARG202     -0.1966
     31  CA         1.7950  -51.5020   37.4610 C.3   202  ARG202      0.1729
     32  C          0.9750  -52.1900   38.5570 C.2   202  ARG202      0.2616
     33  O          0.2060  -53.0960   38.2620 O.2   202  ARG202     -0.2715
     34  CB         1.1310  -50.1750   37.0400 C.3   202  ARG202      0.0348
     35  CG         2.0750  -49.2140   36.2900 C.3   202  ARG202      0.0492
     36  CD         3.3940  -49.2770   37.0290 C.3   202  ARG202      0.2205
     37  NE         4.1780  -48.0540   36.8950 N.pl3 202  ARG202     -0.0865
     38  CZ         4.1420  -46.9930   37.6910 C.cat 202  ARG202      0.5346
     39  NH1        3.3230  -46.9360   38.7240 N.pl3 202  ARG202      0.1354
     40  NH2        4.9420  -45.9720   37.4260 N.pl3 202  ARG202      0.1354
     41  N          1.1180  -51.7510   39.8040 N.am  203  GLY203     -0.1955
     42  CA         0.4140  -52.3810   40.9270 C.3   203  GLY203      0.1869
     43  C          1.1030  -53.6490   41.4280 C.2   203  GLY203      0.2309
     44  O          2.2170  -53.5780   41.9530 O.2   203  GLY203     -0.2863
     45  N         -0.2500  -55.6420   43.8570 N.3   205  HIS205     -0.1241
     46  CA        -0.4230  -55.5160   45.2970 C.3   205  HIS205      0.1621
     47  C         -1.8650  -55.4680   45.7840 C.2   205  HIS205      0.2264
     48  O         -2.8280  -55.4560   45.0160 O.2   205  HIS205     -0.2867
     49  CB         0.4260  -54.4020   45.9120 C.3   205  HIS205      0.0745
     50  CG         0.0690  -53.0420   45.4100 C.ar  205  HIS205      0.0817
     51  ND1        0.9920  -52.1980   44.8330 N.ar  205  HIS205     -0.2268
     52  CD2       -1.1220  -52.3970   45.3530 C.ar  205  HIS205      0.1154
     53  CE1        0.3860  -51.0820   44.4580 C.ar  205  HIS205      0.1986
     54  NE2       -0.8960  -51.1750   44.7640 N.ar  205  HIS205     -0.2212
     55  N         -2.6260  -53.0070   37.3130 N.3   253  GLN253     -0.1245
     56  CA        -2.9400  -52.2440   36.1060 C.3   253  GLN253      0.1566
     57  C         -1.8200  -52.2940   35.0510 C.2   253  GLN253      0.2260
     58  O         -0.6370  -52.1170   35.3480 O.2   253  GLN253     -0.2867
     59  CB        -3.6680  -50.8960   36.3610 C.3   253  GLN253      0.0367
     60  CG        -3.1940  -49.9880   37.4880 C.3   253  GLN253      0.0905
     61  CD        -3.1730  -50.5730   38.8770 C.2   253  GLN253      0.2608
     62  OE1       -2.2360  -50.2850   39.6080 O.2   253  GLN253     -0.2717
     63  NE2       -4.1520  -51.3980   39.2510 N.am  253  GLN253     -0.0878
     64  N         -0.9070  -41.7540   52.2040 N.3   270  TYR270     -0.1241
     65  CA         0.0660  -42.7240   51.6890 C.3   270  TYR270      0.1605
     66  C          0.7440  -43.3960   52.8890 C.2   270  TYR270      0.2264
     67  O          0.8780  -42.8080   53.9570 O.2   270  TYR270     -0.2867
     68  CB         1.0830  -42.1020   50.7140 C.3   270  TYR270      0.0534
     69  CG         2.2330  -43.0140   50.3370 C.ar  270  TYR270     -0.0201
     70  CD1        2.0200  -44.1920   49.6150 C.ar  270  TYR270     -0.0009
     71  CD2        3.5480  -42.7260   50.7540 C.ar  270  TYR270     -0.0009
     72  CE1        3.0800  -45.0380   49.2820 C.ar  270  TYR270      0.0417
     73  CE2        4.6390  -43.5920   50.4370 C.ar  270  TYR270      0.0417
     74  CZ         4.3850  -44.7460   49.7110 C.ar  270  TYR270      0.1957
     75  OH         5.4180  -45.6040   49.3920 O.3   270  TYR270     -0.2866
     76  N          0.8000  -52.0320   52.2610 N.3   275  TYR275     -0.1241
     77  CA         0.9430  -52.8820   51.0680 C.3   275  TYR275      0.1605
     78  C          1.2120  -54.3690   51.3320 C.2   275  TYR275      0.2264
     79  O          2.1480  -54.6960   52.0510 O.2   275  TYR275     -0.2867
     80  CB         2.1490  -52.4020   50.2430 C.3   275  TYR275      0.0534
     81  CG         1.9360  -51.1440   49.4190 C.ar  275  TYR275     -0.0201
     82  CD1        2.1980  -49.8900   49.9530 C.ar  275  TYR275     -0.0009
     83  CD2        1.4810  -51.2190   48.1070 C.ar  275  TYR275     -0.0009
     84  CE1        2.0040  -48.7460   49.2030 C.ar  275  TYR275      0.0417
     85  CE2        1.2720  -50.0720   47.3530 C.ar  275  TYR275      0.0417
     86  CZ         1.5300  -48.8410   47.9120 C.ar  275  TYR275      0.1957
     87  OH         1.3590  -47.7030   47.1640 O.3   275  TYR275     -0.2866
     88  N          2.6410  -57.2300   48.9290 N.3   277  ARG277     -0.1245
     89  CA         3.1830  -57.4100   47.5870 C.3   277  ARG277      0.1563
     90  C          3.5030  -58.8470   47.2170 C.2   277  ARG277      0.2260
     91  O          4.0930  -59.1040   46.1640 O.2   277  ARG277     -0.2867
     92  CB         4.4390  -56.5710   47.4050 C.3   277  ARG277      0.0307
     93  CG         4.2230  -55.0800   47.6070 C.3   277  ARG277      0.0489
     94  CD         5.4420  -54.3480   47.0870 C.3   277  ARG277      0.2205
     95  NE         5.2260  -52.9250   46.8750 N.pl3 277  ARG277     -0.0865
     96  CZ         5.1390  -52.0130   47.8470 C.cat 277  ARG277      0.5346
     97  NH1        5.2120  -52.3450   49.1340 N.pl3 277  ARG277      0.1354
     98  NH2        4.9310  -50.7440   47.5160 N.pl3 277  ARG277      0.1354
@<TRIPOS>BOND
     1    29    27    1
     2    23    24    1
     3    24    27    1
     4    24    25    1
     5    27    28    1
     6    57    58    2
     7    57    56    1
     8    25    30   am
     9    25    26    2
    10    56    59    1
    11    56    55    1
    12    30    31    1
    13    35    36    1
    14    35    34    1
    15    59    60    1
    16    37    36    1
    17    37    38    2
    18    34    31    1
    19    40    38    1
    20    31    32    1
    21    60    61    1
    22    38    39    1
    23    33    32    2
    24    32    41   am
    25    61    63   am
    26    61    62    2
    27    41    42    1
    28    15    14    2
    29    42    43    1
    30    14    13    1
    31    43    44    2
    32    18    20   ar
    33    18    17   ar
    34    20    22   ar
    35    13    16    1
    36    13    12    1
    37    16    17    1
    38    17    19   ar
    39    22    21   ar
    40    45    46    1
    41    53    54   ar
    42    53    51   ar
    43    19    21   ar
    44    54    52   ar
    45    51    50   ar
    46    48    47    2
    47    46    47    1
    48    46    49    1
    49    52    50   ar
    50    50    49    1
    51    91    90    2
    52    95    94    1
    53    95    96    2
    54     4     3    2
    55    94    93    1
    56    87    86    1
    57     3     2    1
    58    90    89    1
    59    85    86   ar
    60    85    83   ar
    61    92    89    1
    62    92    93    1
    63    98    96    1
    64    89    88    1
    65    96    97    1
    66    86    84   ar
    67    11     9    1
    68    83    81   ar
    69     6     7    1
    70     6     5    1
    71     2     5    1
    72     2     1    1
    73     7     8    1
    74     9     8    2
    75     9    10    1
    76    84    82   ar
    77    72    70   ar
    78    72    74   ar
    79    75    74    1
    80    81    82   ar
    81    81    80    1
    82    70    69   ar
    83    74    73   ar
    84    80    77    1
    85    69    68    1
    86    69    71   ar
    87    73    71   ar
    88    68    65    1
    89    77    78    1
    90    77    76    1
    91    78    79    2
    92    65    64    1
    93    65    66    1
    94    66    67    2
