@<TRIPOS>MOLECULE
tmp/4mzwA00.pdb
 219 214 0 0 0
SMALL
GASTEIGER

@<TRIPOS>ATOM
      1  N         21.4840   50.2560   -7.3790 N.3    27  PHE27      -0.1241
      2  CA        20.1470   50.8600   -7.6130 C.3    27  PHE27       0.1605
      3  C         20.0850   51.8000   -8.8280 C.2    27  PHE27       0.2264
      4  O         19.1640   52.6140   -8.9600 O.2    27  PHE27      -0.2867
      5  CB        19.6570   51.5880   -6.3400 C.3    27  PHE27       0.0534
      6  CG        19.6280   50.7050   -5.1140 C.ar   27  PHE27      -0.0203
      7  CD1       18.7290   49.6470   -5.0160 C.ar   27  PHE27      -0.0042
      8  CD2       20.5180   50.9200   -4.0620 C.ar   27  PHE27      -0.0042
      9  CE1       18.7110   48.8250   -3.8930 C.ar   27  PHE27      -0.0003
     10  CE2       20.5080   50.1000   -2.9450 C.ar   27  PHE27      -0.0003
     11  CZ        19.6040   49.0510   -2.8580 C.ar   27  PHE27      -0.0000
     12  N         16.9180   51.5090  -11.0800 N.3    30  ILE30      -0.1231
     13  CA        15.7080   51.8380  -10.3610 C.3    30  ILE30       0.1692
     14  C         15.5500   53.3330  -10.1020 C.2    30  ILE30       0.2592
     15  O         14.4620   53.8810  -10.3030 O.2    30  ILE30      -0.2718
     16  CB        15.7290   51.0520   -9.0190 C.3    30  ILE30       0.0266
     17  CG1       15.4860   49.5640   -9.2800 C.3    30  ILE30       0.0019
     18  CG2       14.7500   51.5970   -7.9970 C.3    30  ILE30       0.0020
     19  CD1       14.0970   49.2160   -9.7580 C.3    30  ILE30       0.0001
     20  N         16.6170   53.9780   -9.6310 N.am   31  ASN31      -0.1974
     21  CA        16.5650   55.3760   -9.1960 C.3    31  ASN31       0.1688
     22  C         16.3610   56.2930  -10.3930 C.2    31  ASN31       0.2292
     23  O         16.9910   56.1020  -11.4220 O.2    31  ASN31      -0.2864
     24  CB        17.8620   55.7940   -8.4910 C.3    31  ASN31       0.1181
     25  CG        18.1180   55.0320   -7.1980 C.2    31  ASN31       0.2629
     26  OD1       17.2700   54.2870   -6.7140 O.2    31  ASN31      -0.2716
     27  ND2       19.3040   55.2250   -6.6320 N.am   31  ASN31      -0.0877
     28  N         13.8620   44.8950    5.3980 N.3    57  THR57      -0.1204
     29  CA        14.9000   45.8950    5.5130 C.3    57  THR57       0.1979
     30  C         14.8060   46.5060    6.9180 C.2    57  THR57       0.2460
     31  O         13.8870   46.1970    7.6690 O.2    57  THR57      -0.2732
     32  CB        14.6530   47.0180    4.4850 C.3    57  THR57       0.1783
     33  OG1       13.3930   47.6530    4.7650 O.3    57  THR57      -0.2211
     34  CG2       14.6220   46.4560    3.0720 C.3    57  THR57       0.0376
     35  N         15.7300   47.4070    7.2640 N.am   58  PRO58      -0.2717
     36  CA        15.5480   48.0480    8.5400 C.3    58  PRO58       0.1535
     37  C         14.2050   48.7700    8.6980 C.2    58  PRO58       0.2598
     38  O         13.6400   48.7920    9.7930 O.2    58  PRO58      -0.2715
     39  CB        16.7080   49.0290    8.5890 C.3    58  PRO58       0.0310
     40  CG        17.8010   48.3030    7.8720 C.3    58  PRO58       0.0237
     41  CD        17.0930   47.6060    6.7420 C.3    58  PRO58       0.0939
     42  N         13.7070   49.3800    7.6380 N.am   59  ASN59      -0.1973
     43  CA        12.4350   50.0900    7.7320 C.3    59  ASN59       0.1688
     44  C         11.2520   49.1300    7.7790 C.2    59  ASN59       0.2292
     45  O         10.2860   49.3480    8.5050 O.2    59  ASN59      -0.2864
     46  CB        12.3480   51.1260    6.6230 C.3    59  ASN59       0.1181
     47  CG        13.3590   52.2490    6.8170 C.2    59  ASN59       0.2629
     48  OD1       13.4880   52.8010    7.9150 O.2    59  ASN59      -0.2716
     49  ND2       14.1040   52.5650    5.7750 N.am   59  ASN59      -0.0877
     50  N         10.6970   47.1200   11.3510 N.3    62  LYS62      -0.1245
     51  CA        10.0620   47.9250   12.3930 C.3    62  LYS62       0.1561
     52  C          8.6040   47.5230   12.5230 C.2    62  LYS62       0.2260
     53  O          8.0920   47.3840   13.6410 O.2    62  LYS62      -0.2867
     54  CB        10.1010   49.3990   12.0430 C.3    62  LYS62       0.0271
     55  CG        11.4560   50.0630   12.0330 C.3    62  LYS62       0.0035
     56  CD        11.3220   51.4910   11.5370 C.3    62  LYS62       0.0206
     57  CE        12.6650   52.1580   11.2590 C.3    62  LYS62       0.1093
     58  NZ        12.5130   53.4390   10.4950 N.3    62  LYS62      -0.1314
     59  N         12.1570   45.7370   -4.0720 N.3    87  ILE87      -0.1245
     60  CA        12.5900   47.0650   -4.4980 C.3    87  ILE87       0.1561
     61  C         13.6350   47.0370   -5.6320 C.2    87  ILE87       0.2260
     62  O         13.7540   47.9990   -6.3960 O.2    87  ILE87      -0.2867
     63  CB        13.0650   47.9390   -3.3190 C.3    87  ILE87       0.0252
     64  CG1       14.2600   47.3160   -2.5920 C.3    87  ILE87       0.0019
     65  CG2       11.9200   48.1960   -2.3490 C.3    87  ILE87       0.0019
     66  CD1       14.8880   48.2620   -1.5860 C.3    87  ILE87       0.0001
     67  N          7.7620   48.6640   -6.1870 N.3    92  GLN92      -0.1231
     68  CA         7.3450   49.8950   -5.5090 C.3    92  GLN92       0.1698
     69  C          6.8340   50.9830   -6.4730 C.2    92  GLN92       0.2592
     70  O          6.3670   52.0310   -6.0270 O.2    92  GLN92      -0.2718
     71  CB         8.4910   50.4430   -4.6480 C.3    92  GLN92       0.0381
     72  CG         9.6790   51.0440   -5.3850 C.3    92  GLN92       0.0905
     73  CD        10.7280   50.0210   -5.8000 C.2    92  GLN92       0.2608
     74  OE1       10.4080   48.8860   -6.1010 O.2    92  GLN92      -0.2717
     75  NE2       11.9850   50.4300   -5.8070 N.am   92  GLN92      -0.0878
     76  N          6.9270   50.7360   -7.7830 N.am   93  PHE93      -0.1976
     77  CA         6.4190   51.6690   -8.7920 C.3    93  PHE93       0.1639
     78  C          5.1690   51.1550   -9.4900 C.2    93  PHE93       0.2290
     79  O          4.6880   51.7720  -10.4440 O.2    93  PHE93      -0.2864
     80  CB         7.5040   51.9870   -9.8110 C.3    93  PHE93       0.0560
     81  CG         8.7970   52.4430   -9.1880 C.ar   93  PHE93      -0.0200
     82  CD1        8.8610   53.6340   -8.4980 C.ar   93  PHE93      -0.0042
     83  CD2        9.9410   51.6640   -9.2880 C.ar   93  PHE93      -0.0042
     84  CE1       10.0500   54.0540   -7.9220 C.ar   93  PHE93      -0.0003
     85  CE2       11.1300   52.0730   -8.7160 C.ar   93  PHE93      -0.0003
     86  CZ        11.1820   53.2680   -8.0240 C.ar   93  PHE93      -0.0000
     87  N          5.1580   58.0050   -2.6570 N.3   103  ASN103     -0.1225
     88  CA         6.6150   58.1240   -2.5370 C.3   103  ASN103      0.1785
     89  C          7.3460   56.8550   -2.9730 C.2   103  ASN103      0.2598
     90  O          8.5630   56.8800   -3.1390 O.2   103  ASN103     -0.2718
     91  CB         6.9600   58.4960   -1.0760 C.3   103  ASN103      0.1169
     92  CG         8.4240   58.8770   -0.8570 C.2   103  ASN103      0.2627
     93  OD1        9.0320   59.5850   -1.6510 O.2   103  ASN103     -0.2716
     94  ND2        8.9870   58.4120    0.2610 N.am  103  ASN103     -0.0877
     95  N          6.6140   55.7510   -3.1960 N.am  104  SER104     -0.1938
     96  CA         7.2230   54.5040   -3.6730 C.3   104  SER104      0.2055
     97  C          8.3650   53.9920   -2.7710 C.2   104  SER104      0.2643
     98  O          9.4400   53.6420   -3.2520 O.2   104  SER104     -0.2714
     99  CB         7.7320   54.6610   -5.1040 C.3   104  SER104      0.2130
    100  OG         6.6580   54.7050   -6.0250 O.3   104  SER104     -0.2179
    101  N          8.1230   53.9680   -1.4650 N.am  105  LYS105     -0.1963
    102  CA         9.0340   53.3240   -0.5060 C.3   105  LYS105      0.1728
    103  C          8.2620   52.3420    0.3600 C.2   105  LYS105      0.2616
    104  O          7.1020   52.5890    0.7080 O.2   105  LYS105     -0.2715
    105  CB         9.7050   54.3540    0.3960 C.3   105  LYS105      0.0311
    106  CG        10.3870   55.5100   -0.3250 C.3   105  LYS105      0.0038
    107  CD        11.8760   55.3190   -0.4340 C.3   105  LYS105      0.0206
    108  CE        12.5200   56.4850   -1.1670 C.3   105  LYS105      0.1093
    109  NZ        13.8660   56.0740   -1.6290 N.3   105  LYS105     -0.1314
    110  N          8.9010   51.2250    0.6820 N.am  106  ILE106     -0.1964
    111  CA         8.3890   50.3150    1.6840 C.3   106  ILE106      0.1712
    112  C          8.8670   50.8350    3.0480 C.2   106  ILE106      0.2458
    113  O          9.9180   51.4840    3.1390 O.2   106  ILE106     -0.2730
    114  CB         8.7670   48.8290    1.4420 C.3   106  ILE106      0.0289
    115  CG1       10.2840   48.5480    1.5680 C.3   106  ILE106      0.0022
    116  CG2        8.2480   48.3510    0.0960 C.3   106  ILE106      0.0023
    117  CD1       10.7330   48.3170    2.9930 C.3   106  ILE106      0.0001
    118  N          8.1050   50.5600    4.1150 N.am  107  PRO107     -0.2727
    119  CA         6.8430   49.8320    4.1640 C.3   107  PRO107      0.1402
    120  C          5.6250   50.6990    3.8560 C.2   107  PRO107      0.2269
    121  O          5.6590   51.9130    4.0120 O.2   107  PRO107     -0.2865
    122  CB         6.7720   49.3580    5.6140 C.3   107  PRO107      0.0296
    123  CG         7.5170   50.4010    6.3730 C.3   107  PRO107      0.0237
    124  CD         8.6030   50.8890    5.4610 C.3   107  PRO107      0.0939
    125  N          5.4310   55.7110    5.6550 N.3   122  GLU122     -0.1231
    126  CA         6.5010   56.1200    6.5760 C.3   122  GLU122      0.1699
    127  C          6.5090   55.1860    7.7880 C.2   122  GLU122      0.2593
    128  O          5.5670   55.1550    8.5480 O.2   122  GLU122     -0.2718
    129  CB         6.4000   57.5860    6.9750 C.3   122  GLU122      0.0402
    130  CG         6.8180   58.5170    5.8420 C.3   122  GLU122      0.1161
    131  CD         8.3090   58.4650    5.5320 C.2   122  GLU122      0.3649
    132  OE1        9.1140   58.3640    6.4920 O.co2 122  GLU122     -0.2457
    133  OE2        8.6820   58.5340    4.3310 O.co2 122  GLU122     -0.2457
    134  N          7.5810   54.4020    7.9300 N.am  123  SER123     -0.1938
    135  CA         7.6560   53.3610    8.9650 C.3   123  SER123      0.2055
    136  C          7.3430   53.8670   10.3710 C.2   123  SER123      0.2642
    137  O          6.6140   53.2200   11.1100 O.2   123  SER123     -0.2714
    138  CB         9.0190   52.6730    8.9290 C.3   123  SER123      0.2130
    139  OG        10.0890   53.5820    9.1770 O.3   123  SER123     -0.2179
    140  N          7.8690   55.0420   10.7190 N.am  124  ALA124     -0.1977
    141  CA         7.6300   55.6400   12.0390 C.3   124  ALA124      0.1597
    142  C          6.1700   56.0440   12.2260 C.2   124  ALA124      0.2287
    143  O          5.6420   55.9040   13.3050 O.2   124  ALA124     -0.2864
    144  CB         8.5220   56.8490   12.2620 C.3   124  ALA124      0.0319
    145  N         13.5660   59.1220   12.4150 N.3   156  THR156     -0.1218
    146  CA        13.1290   59.3410   11.0470 C.3   156  THR156      0.1862
    147  C         14.0420   60.3490   10.3530 C.2   156  THR156      0.2287
    148  O         14.4000   60.1630    9.1950 O.2   156  THR156     -0.2866
    149  CB        11.6500   59.8040   10.9960 C.3   156  THR156      0.1770
    150  OG1       10.8300   58.7720   11.5320 O.3   156  THR156     -0.2211
    151  CG2       11.2100   60.0880    9.5720 C.3   156  THR156      0.0375
    152  N         18.0890   58.5250   10.2380 N.3   159  ALA159     -0.1231
    153  CA        18.3790   57.3360    9.4350 C.3   159  ALA159      0.1679
    154  C         18.8050   57.6170    7.9870 C.2   159  ALA159      0.2434
    155  O         19.5940   56.8640    7.4390 O.2   159  ALA159     -0.2733
    156  CB        17.1960   56.3740    9.4670 C.3   159  ALA159      0.0304
    157  N         18.2930   58.6860    7.3540 N.am  160  PRO160     -0.2729
    158  CA        18.7970   59.0170    6.0250 C.3   160  PRO160      0.1401
    159  C         20.3040   59.2410    5.9760 C.2   160  PRO160      0.2269
    160  O         20.9410   58.9300    4.9660 O.2   160  PRO160     -0.2865
    161  CB        18.0600   60.3120    5.6830 C.3   160  PRO160      0.0296
    162  CG        16.7910   60.2170    6.4390 C.3   160  PRO160      0.0237
    163  CD        17.1190   59.5070    7.7100 C.3   160  PRO160      0.0939
    164  N         21.6350   55.3770    6.3360 N.3   163  GLY163     -0.1210
    165  CA        21.3890   54.5440    5.1580 C.3   163  GLY163      0.1956
    166  C         21.7600   55.2230    3.8440 C.2   163  GLY163      0.2612
    167  O         22.5380   54.6930    3.0620 O.2   163  GLY163     -0.2717
    168  N         21.1930   56.4010    3.6170 N.am  164  GLY164     -0.1956
    169  CA        21.4220   57.1740    2.4040 C.3   164  GLY164      0.1869
    170  C         22.7820   57.8320    2.2910 C.2   164  GLY164      0.2309
    171  O         23.2050   58.1740    1.1910 O.2   164  GLY164     -0.2863
    172  N         25.2240   54.0210    1.7760 N.3   168  HIS168     -0.1241
    173  CA        25.4600   54.1220    0.3480 C.3   168  HIS168      0.1621
    174  C         26.9420   54.2320   -0.0050 C.2   168  HIS168      0.2264
    175  O         27.4580   53.4570   -0.8200 O.2   168  HIS168     -0.2867
    176  CB        24.7040   55.2830   -0.2880 C.3   168  HIS168      0.0745
    177  CG        24.9510   55.3780   -1.7550 C.ar  168  HIS168      0.0817
    178  ND1       24.4120   54.4800   -2.6500 N.ar  168  HIS168     -0.2268
    179  CD2       25.7690   56.1810   -2.4730 C.ar  168  HIS168      0.1154
    180  CE1       24.8470   54.7600   -3.8650 C.ar  168  HIS168      0.1986
    181  NE2       25.6710   55.7860   -3.7850 N.ar  168  HIS168     -0.2212
    182  N         27.6590   50.7470   -1.1960 N.3   172  TYR172     -0.1241
    183  CA        27.0190   50.6390   -2.5250 C.3   172  TYR172      0.1605
    184  C         27.6680   51.4430   -3.6390 C.2   172  TYR172      0.2264
    185  O         27.6920   51.0030   -4.7840 O.2   172  TYR172     -0.2867
    186  CB        25.5210   50.9540   -2.4470 C.3   172  TYR172      0.0534
    187  CG        24.7220   49.8980   -1.6960 C.ar  172  TYR172     -0.0201
    188  CD1       24.5930   48.6010   -2.1950 C.ar  172  TYR172     -0.0009
    189  CD2       24.1000   50.1930   -0.4880 C.ar  172  TYR172     -0.0009
    190  CE1       23.8640   47.6380   -1.5100 C.ar  172  TYR172      0.0417
    191  CE2       23.3720   49.2390    0.2020 C.ar  172  TYR172      0.0417
    192  CZ        23.2580   47.9660   -0.3120 C.ar  172  TYR172      0.1957
    193  OH        22.5420   47.0290    0.3680 O.3   172  TYR172     -0.2866
    194  N         17.4070   49.9310   12.9240 N.3   220  TRP220     -0.1241
    195  CA        18.6310   50.4220   12.3120 C.3   220  TRP220      0.1605
    196  C         19.8700   50.2280   13.2210 C.2   220  TRP220      0.2264
    197  O         20.7450   49.4140   12.9020 O.2   220  TRP220     -0.2867
    198  CB        18.4910   51.8980   11.9610 C.3   220  TRP220      0.0550
    199  CG        17.8400   52.1590   10.6660 C.ar  220  TRP220      0.0003
    200  CD1       16.5480   52.5750   10.4570 C.ar  220  TRP220      0.0946
    201  CD2       18.4400   52.0480    9.3780 C.ar  220  TRP220      0.0152
    202  NE1       16.3170   52.7160    9.1080 N.ar  220  TRP220     -0.2442
    203  CE2       17.4690   52.4240    8.4290 C.ar  220  TRP220      0.0810
    204  CE3       19.7220   51.6950    8.9310 C.ar  220  TRP220      0.0012
    205  CZ2       17.7300   52.4370    7.0710 C.ar  220  TRP220      0.0191
    206  CZ3       19.9760   51.7070    7.5970 C.ar  220  TRP220      0.0001
    207  CH2       18.9940   52.0730    6.6740 C.ar  220  TRP220      0.0015
    208  N         25.4420   46.2280    6.7700 N.3   230  TYR230     -0.1241
    209  CA        26.4390   46.1670    5.7130 C.3   230  TYR230      0.1605
    210  C         27.7040   45.4590    6.1910 C.2   230  TYR230      0.2264
    211  O         28.1780   45.7200    7.2760 O.2   230  TYR230     -0.2867
    212  CB        26.7890   47.5730    5.2410 C.3   230  TYR230      0.0534
    213  CG        25.6300   48.5330    5.2380 C.ar  230  TYR230     -0.0201
    214  CD1       24.7280   48.5470    4.1920 C.ar  230  TYR230     -0.0009
    215  CD2       25.4370   49.4260    6.2730 C.ar  230  TYR230     -0.0009
    216  CE1       23.6690   49.4230    4.1770 C.ar  230  TYR230      0.0417
    217  CE2       24.3770   50.3060    6.2670 C.ar  230  TYR230      0.0417
    218  CZ        23.4950   50.2980    5.2130 C.ar  230  TYR230      0.1957
    219  OH        22.4380   51.1620    5.1870 O.3   230  TYR230     -0.2866
@<TRIPOS>BOND
     1    23    22    2
     2    12    13    1
     3    79    78    2
     4    22    21    1
     5    13    14    1
     6    13    16    1
     7    15    14    2
     8    14    20   am
     9    80    81    1
    10    80    77    1
    11    19    17    1
    12    20    21    1
    13    78    77    1
    14    83    81   ar
    15    83    85   ar
    16    17    16    1
    17    21    24    1
    18    81    82   ar
    19    16    18    1
    20     4     3    2
    21     3     2    1
    22    77    76    1
    23    85    86   ar
    24    82    84   ar
    25    24    25    1
    26    86    84   ar
    27    76    69   am
    28     2     1    1
    29     2     5    1
    30    25    26    2
    31    25    27   am
    32    69    70    2
    33    69    68    1
    34    62    61    2
    35     5     6    1
    36    67    68    1
    37    74    73    2
    38   100    99    1
    39    75    73   am
    40    73    72    1
    41    61    60    1
    42    68    71    1
    43    72    71    1
    44     6     7   ar
    45     6     8   ar
    46    99    96    1
    47     7     9   ar
    48   185   184    2
    49    60    59    1
    50    60    63    1
    51     8    10   ar
    52     9    11   ar
    53   180   181   ar
    54   180   178   ar
    55   181   179   ar
    56    96    95    1
    57    96    97    1
    58   184   183    1
    59    63    64    1
    60    63    65    1
    61    98    97    2
    62    95    89   am
    63    90    89    2
    64    89    88    1
    65    10    11   ar
    66    97   101   am
    67    87    88    1
    68   178   177   ar
    69    64    66    1
    70    88    91    1
    71   183   186    1
    72   183   182    1
    73   179   177   ar
    74   186   187    1
    75   188   187   ar
    76   188   190   ar
    77   177   176    1
    78   187   189   ar
    79    93    92    2
    80   109   108    1
    81   190   192   ar
    82   101   102    1
    83   108   107    1
    84    91    92    1
    85    92    94   am
    86   175   174    2
    87   102   103    1
    88   102   105    1
    89   189   191   ar
    90   107   106    1
    91   106   105    1
    92   192   191   ar
    93   192   193    1
    94   176   173    1
    95   174   173    1
    96   116   114    1
    97   173   172    1
    98   103   110   am
    99   103   104    2
   100   110   111    1
   101   171   170    2
   102   114   115    1
   103   114   111    1
   104   115   117    1
   105   111   112    1
   106   170   169    1
   107   169   168    1
   108   112   113    2
   109   112   118   am
   110   167   166    2
   111    34    32    1
   112   168   166   am
   113   166   165    1
   114   120   121    2
   115   120   119    1
   116   118   119    1
   117   118   124    1
   118   119   122    1
   119   216   214   ar
   120   216   218   ar
   121   214   213   ar
   122   133   131   ar
   123    32    33    1
   124    32    29    1
   125   160   159    2
   126   165   164    1
   127   219   218    1
   128   218   217   ar
   129   213   212    1
   130   213   215   ar
   131   212   209    1
   132    28    29    1
   133   124   123    1
   134    29    30    1
   135   131   130    1
   136   131   132   ar
   137   122   123    1
   138   125   126    1
   139   161   158    1
   140   161   162    1
   141   209   210    1
   142   209   208    1
   143    49    47   am
   144   130   129    1
   145   159   158    1
   146   158   157    1
   147   210   211    2
   148   217   215   ar
   149   162   163    1
   150   126   129    1
   151   126   127    1
   152    46    47    1
   153    46    43    1
   154   207   205   ar
   155   207   206   ar
   156    41    35    1
   157    41    40    1
   158    47    48    2
   159    30    35   am
   160    30    31    2
   161   205   203   ar
   162    35    36    1
   163   157   163    1
   164   157   154   am
   165   155   154    2
   166   206   204   ar
   167    42    43    1
   168    42    37   am
   169    43    44    1
   170    44    45    2
   171   127   134   am
   172   127   128    2
   173    40    39    1
   174   134   135    1
   175   154   153    1
   176   203   202   ar
   177   203   201   ar
   178    36    39    1
   179    36    37    1
   180    37    38    2
   181   138   135    1
   182   138   139    1
   183   204   201   ar
   184   135   136    1
   185   202   200   ar
   186   148   147    2
   187   201   199   ar
   188   153   156    1
   189   153   152    1
   190   151   149    1
   191   147   146    1
   192   136   140   am
   193   136   137    2
   194   200   199   ar
   195    58    57    1
   196   199   198    1
   197   140   141    1
   198   149   146    1
   199   149   150    1
   200   146   145    1
   201    57    56    1
   202    50    51    1
   203    56    55    1
   204   198   195    1
   205    55    54    1
   206   141   142    1
   207   141   144    1
   208    54    51    1
   209   142   143    2
   210   195   194    1
   211   195   196    1
   212    51    52    1
   213    52    53    2
   214   197   196    2
