@<TRIPOS>MOLECULE
tmp/4mzyA02.pdb
 110 103 0 0 0
SMALL
GASTEIGER

@<TRIPOS>ATOM
      1  N         30.5630   31.9570   52.4450 N.3    36  GLU36      -0.1245
      2  CA        29.4900   32.7400   53.0400 C.3    36  GLU36       0.1567
      3  C         30.0820   33.9880   53.7280 C.2    36  GLU36       0.2260
      4  O         31.1290   33.9200   54.3580 O.2    36  GLU36      -0.2867
      5  CB        28.6770   31.8980   54.0450 C.3    36  GLU36       0.0388
      6  CG        27.7400   30.8940   53.3560 C.3    36  GLU36       0.1160
      7  CD        26.9990   29.9580   54.2980 C.2    36  GLU36       0.3649
      8  OE1       27.2200   30.0210   55.5230 O.co2  36  GLU36      -0.2457
      9  OE2       26.1990   29.1330   53.7920 O.co2  36  GLU36      -0.2457
     10  N         29.3460   36.9930   56.5580 N.3    38  TYR38      -0.1241
     11  CA        28.5780   37.3010   57.7780 C.3    38  TYR38       0.1605
     12  C         29.3790   38.2460   58.6720 C.2    38  TYR38       0.2264
     13  O         30.6050   38.3920   58.4940 O.2    38  TYR38      -0.2867
     14  CB        28.2590   36.0250   58.5520 C.3    38  TYR38       0.0534
     15  CG        29.4760   35.2970   59.0830 C.ar   38  TYR38      -0.0201
     16  CD1       30.2270   34.4500   58.2630 C.ar   38  TYR38      -0.0009
     17  CD2       29.8710   35.4410   60.4160 C.ar   38  TYR38      -0.0009
     18  CE1       31.3360   33.7720   58.7580 C.ar   38  TYR38       0.0417
     19  CE2       30.9810   34.7790   60.9210 C.ar   38  TYR38       0.0417
     20  CZ        31.7090   33.9460   60.0940 C.ar   38  TYR38       0.1957
     21  OH        32.7970   33.3020   60.6120 O.3    38  TYR38      -0.2866
     22  N         29.9130   39.3600   63.0270 N.3    40  ARG40      -0.1245
     23  CA        29.8030   38.6760   64.3170 C.3    40  ARG40       0.1563
     24  C         29.1160   39.4840   65.4220 C.2    40  ARG40       0.2260
     25  O         28.5380   38.9070   66.3290 O.2    40  ARG40      -0.2867
     26  CB        31.1850   38.1880   64.7740 C.3    40  ARG40       0.0307
     27  CG        31.8000   37.1440   63.8430 C.3    40  ARG40       0.0489
     28  CD        33.1030   36.5790   64.3910 C.3    40  ARG40       0.2205
     29  NE        34.0220   36.1380   63.3400 N.pl3  40  ARG40      -0.0865
     30  CZ        34.1640   34.8770   62.9320 C.cat  40  ARG40       0.5346
     31  NH1       35.0340   34.5910   61.9740 N.pl3  40  ARG40       0.1354
     32  NH2       33.4410   33.9010   63.4690 N.pl3  40  ARG40       0.1354
     33  N         25.8890   36.6590   62.8030 N.3   109  ASN109     -0.1225
     34  CA        26.0090   35.2000   62.7500 C.3   109  ASN109      0.1785
     35  C         25.0080   34.4690   61.8530 C.2   109  ASN109      0.2597
     36  O         24.5620   33.3700   62.1650 O.2   109  ASN109     -0.2718
     37  CB        26.0000   34.6190   64.1500 C.3   109  ASN109      0.1169
     38  CG        27.0400   35.2610   65.0350 C.2   109  ASN109      0.2627
     39  OD1       26.7270   35.7870   66.0940 O.2   109  ASN109     -0.2716
     40  ND2       28.2800   35.2380   64.5900 N.am  109  ASN109     -0.0877
     41  N         24.6780   35.0890   60.7310 N.am  110  GLU110     -0.1966
     42  CA        23.8940   34.4350   59.6900 C.3   110  GLU110      0.1718
     43  C         24.4840   34.8240   58.3370 C.2   110  GLU110      0.2458
     44  O         24.9640   35.9440   58.1640 O.2   110  GLU110     -0.2730
     45  CB        22.4210   34.8350   59.7800 C.3   110  GLU110      0.0428
     46  CG        22.1420   36.3190   59.6010 C.3   110  GLU110      0.1163
     47  CD        20.6830   36.6860   59.7330 C.2   110  GLU110      0.3649
     48  OE1       19.8680   35.8660   60.2540 O.co2 110  GLU110     -0.2457
     49  OE2       20.3510   37.8130   59.2790 O.co2 110  GLU110     -0.2457
     50  N         24.4410   33.9100   57.3650 N.am  111  PRO111     -0.2727
     51  CA        24.9630   34.2770   56.0510 C.3   111  PRO111      0.1402
     52  C         24.1140   35.3540   55.3770 C.2   111  PRO111      0.2269
     53  O         22.8850   35.2700   55.3800 O.2   111  PRO111     -0.2865
     54  CB        24.9250   32.9490   55.2610 C.3   111  PRO111      0.0296
     55  CG        23.8970   32.1140   55.9520 C.3   111  PRO111      0.0237
     56  CD        23.9040   32.5340   57.3980 C.3   111  PRO111      0.0939
     57  N         32.9210   27.4320   53.5690 N.3   333  VAL333     -0.1245
     58  CA        32.0850   26.5870   54.4180 C.3   333  VAL333      0.1561
     59  C         31.8720   25.1700   53.8560 C.2   333  VAL333      0.2260
     60  O         31.4230   24.2740   54.5770 O.2   333  VAL333     -0.2867
     61  CB        30.6790   27.2030   54.6880 C.3   333  VAL333      0.0252
     62  CG1       30.7920   28.4330   55.5780 C.3   333  VAL333      0.0019
     63  CG2       29.9220   27.5220   53.4170 C.3   333  VAL333      0.0019
     64  N         34.2360   30.0070   66.2590 N.3   355  VAL355     -0.1231
     65  CA        34.4610   28.9410   65.2900 C.3   355  VAL355      0.1692
     66  C         33.4280   29.0880   64.1850 C.2   355  VAL355      0.2593
     67  O         32.2550   29.3070   64.4690 O.2   355  VAL355     -0.2718
     68  CB        34.2900   27.5650   65.9640 C.3   355  VAL355      0.0266
     69  CG1       34.3530   26.4360   64.9480 C.3   355  VAL355      0.0020
     70  CG2       35.3320   27.3830   67.0620 C.3   355  VAL355      0.0020
     71  N         33.8480   28.9460   62.9300 N.am  356  THR356     -0.1939
     72  CA        32.9170   29.0580   61.8020 C.3   356  THR356      0.2028
     73  C         31.8770   27.9280   61.8420 C.2   356  THR356      0.2642
     74  O         32.1800   26.8340   62.3130 O.2   356  THR356     -0.2714
     75  CB        33.6610   29.0470   60.4520 C.3   356  THR356      0.1808
     76  OG1       34.4910   27.8690   60.3370 O.3   356  THR356     -0.2208
     77  CG2       34.5050   30.3020   60.3260 C.3   356  THR356      0.0379
     78  N         30.6500   28.2370   61.4200 N.am  357  THR357     -0.1950
     79  CA        29.5900   27.2410   61.2630 C.3   357  THR357      0.1897
     80  C         29.6870   26.6780   59.8470 C.2   357  THR357      0.2313
     81  O         29.4920   27.4060   58.8710 O.2   357  THR357     -0.2863
     82  CB        28.1760   27.8140   61.4810 C.3   357  THR357      0.1794
     83  OG1       28.0620   28.3810   62.7950 O.3   357  THR357     -0.2208
     84  CG2       27.1340   26.6940   61.3630 C.3   357  THR357      0.0378
     85  N         24.2670   26.9280   53.8300 N.3   361  LYS361     -0.1245
     86  CA        23.0930   27.1960   54.6640 C.3   361  LYS361      0.1561
     87  C         22.0650   28.1180   53.9970 C.2   361  LYS361      0.2260
     88  O         22.3480   28.7870   52.9960 O.2   361  LYS361     -0.2867
     89  CB        23.5580   27.7660   56.0210 C.3   361  LYS361      0.0271
     90  CG        24.4860   26.7950   56.7660 C.3   361  LYS361      0.0035
     91  CD        25.0350   27.2980   58.0980 C.3   361  LYS361      0.0206
     92  CE        26.0650   28.3980   57.9440 C.3   361  LYS361      0.1093
     93  NZ        27.2770   28.0040   57.1660 N.3   361  LYS361     -0.1314
     94  N         20.4510   28.3170   65.2260 N.3   462  LEU462     -0.1245
     95  CA        20.8400   27.2670   64.2960 C.3   462  LEU462      0.1561
     96  C         19.8850   26.0970   64.4900 C.2   462  LEU462      0.2260
     97  O         19.5240   25.7620   65.6320 O.2   462  LEU462     -0.2867
     98  CB        22.2770   26.7830   64.5640 C.3   462  LEU462      0.0270
     99  CG        23.4890   27.7230   64.4970 C.3   462  LEU462      0.0019
    100  CD1       24.7530   26.8940   64.6340 C.3   462  LEU462      0.0001
    101  CD2       23.5710   28.5640   63.2350 C.3   462  LEU462      0.0001
    102  N         27.8210   21.0790   63.2370 N.3   470  LYS470     -0.1245
    103  CA        28.9380   21.9200   63.6850 C.3   470  LYS470      0.1561
    104  C         29.7430   21.2830   64.8340 C.2   470  LYS470      0.2260
    105  O         30.9880   21.2470   64.7920 O.2   470  LYS470     -0.2867
    106  CB        28.4520   23.3040   64.1030 C.3   470  LYS470      0.0271
    107  CG        29.5850   24.2440   64.5050 C.3   470  LYS470      0.0035
    108  CD        29.0690   25.5940   64.9860 C.3   470  LYS470      0.0206
    109  CE        30.2340   26.5350   65.2500 C.3   470  LYS470      0.1093
    110  NZ        29.8200   27.9570   65.2630 N.3   470  LYS470     -0.1314
@<TRIPOS>BOND
     1     1     2    1
     2    88    87    2
     3     2     3    1
     4     2     5    1
     5     6     5    1
     6     6     7    1
     7    63    61    1
     8    57    58    1
     9     3     4    2
    10     9     7   ar
    11    85    86    1
    12    59    58    1
    13    59    60    2
    14    87    86    1
    15     7     8   ar
    16    58    61    1
    17    86    89    1
    18    61    62    1
    19    54    55    1
    20    54    51    1
    21    52    53    2
    22    52    51    1
    23    55    56    1
    24    89    90    1
    25    51    50    1
    26    10    11    1
    27    90    91    1
    28    93    92    1
    29    50    56    1
    30    50    43   am
    31    11    14    1
    32    11    12    1
    33    92    91    1
    34    44    43    2
    35    16    18   ar
    36    16    15   ar
    37    43    42    1
    38    13    12    2
    39    14    15    1
    40    18    20   ar
    41    81    80    2
    42    15    17   ar
    43    49    47   ar
    44    46    47    1
    45    46    45    1
    46    42    45    1
    47    42    41    1
    48    47    48   ar
    49    80    79    1
    50    20    21    1
    51    20    19   ar
    52    77    75    1
    53    76    75    1
    54    17    19   ar
    55    75    72    1
    56    41    35   am
    57    79    78    1
    58    79    82    1
    59    84    82    1
    60    78    73   am
    61    82    83    1
    62    72    73    1
    63    72    71    1
    64    73    74    2
    65    35    36    2
    66    35    34    1
    67    31    30    1
    68    34    33    1
    69    34    37    1
    70    71    66   am
    71    30    29    2
    72    30    32    1
    73    22    23    1
    74   101    99    1
    75   102   103    1
    76    29    28    1
    77   103   106    1
    78   103   104    1
    79    27    28    1
    80    27    26    1
    81   106   107    1
    82    37    38    1
    83    66    67    2
    84    66    65    1
    85    95    96    1
    86    95    98    1
    87    95    94    1
    88    23    26    1
    89    23    24    1
    90    96    97    2
    91    99    98    1
    92    99   100    1
    93   107   108    1
    94    40    38   am
    95   105   104    2
    96    69    68    1
    97   108   109    1
    98    38    39    2
    99   109   110    1
   100    65    68    1
   101    65    64    1
   102    24    25    2
   103    68    70    1
