@<TRIPOS>MOLECULE
tmp/4n00A00.pdb
 178 170 0 0 0
SMALL
GASTEIGER

@<TRIPOS>ATOM
      1  N         32.1590   23.8920   12.8310 N.3    13  GLY13      -0.1210
      2  CA        31.6510   23.4770   11.5250 C.3    13  GLY13       0.1956
      3  C         31.6350   21.9820   11.2590 C.2    13  GLY13       0.2612
      4  O         31.2930   21.5490   10.1570 O.2    13  GLY13      -0.2717
      5  N         32.0020   21.1850   12.2640 N.am   14  GLN14      -0.1965
      6  CA        32.1310   19.7400   12.0710 C.3    14  GLN14       0.1733
      7  C         31.2550   18.9170   13.0200 C.2    14  GLN14       0.2616
      8  O         31.3610   17.6950   13.0580 O.2    14  GLN14      -0.2715
      9  CB        33.6040   19.3200   12.1530 C.3    14  GLN14       0.0408
     10  CG        34.4690   19.9970   11.0880 C.3    14  GLN14       0.0908
     11  CD        35.8830   19.4520   11.0190 C.2    14  GLN14       0.2608
     12  OE1       36.4510   19.0300   12.0240 O.2    14  GLN14      -0.2717
     13  NE2       36.4690   19.4840    9.8260 N.am   14  GLN14      -0.0878
     14  N         30.3870   19.6070   13.7560 N.am   15  GLY15      -0.1955
     15  CA        29.3490   18.9850   14.5720 C.3    15  GLY15       0.1869
     16  C         29.7580   18.7960   16.0200 C.2    15  GLY15       0.2309
     17  O         30.9440   18.6630   16.3260 O.2    15  GLY15      -0.2863
     18  N         28.3340   12.0020   17.2640 N.3    32  LEU32      -0.1245
     19  CA        27.6800   13.2180   16.7830 C.3    32  LEU32       0.1561
     20  C         26.2330   13.3290   17.2690 C.2    32  LEU32       0.2260
     21  O         25.4370   12.4030   17.1040 O.2    32  LEU32      -0.2867
     22  CB        27.7250   13.2520   15.2470 C.3    32  LEU32       0.0270
     23  CG        27.0300   14.4120   14.5250 C.3    32  LEU32       0.0019
     24  CD1       27.8140   15.7110   14.6650 C.3    32  LEU32       0.0001
     25  CD2       26.8640   14.0490   13.0610 C.3    32  LEU32       0.0001
     26  N         22.7510   14.5240   16.7620 N.3    34  ASP34      -0.1239
     27  CA        22.0200   14.8990   15.5540 C.3    34  ASP34       0.1674
     28  C         20.4920   14.8960   15.7030 C.2    34  ASP34       0.2266
     29  O         19.8490   13.8530   15.6130 O.2    34  ASP34      -0.2867
     30  CB        22.4340   13.9930   14.3950 C.3    34  ASP34       0.1410
     31  CG        21.8790   14.4620   13.0520 C.2    34  ASP34       0.3668
     32  OD1       21.4030   15.6160   12.9490 O.co2  34  ASP34      -0.2456
     33  OD2       21.9300   13.6700   12.0860 O.co2  34  ASP34      -0.2456
     34  N         18.5930   15.9360   13.5120 N.3    36  GLY36      -0.1210
     35  CA        18.0830   15.8050   12.1410 C.3    36  GLY36       0.1956
     36  C         18.0640   14.4050   11.5450 C.2    36  GLY36       0.2612
     37  O         17.9060   14.2630   10.3250 O.2    36  GLY36      -0.2717
     38  N         18.2310   13.3800   12.3850 N.am   37  SER37      -0.1952
     39  CA        18.1640   11.9740   11.9510 C.3    37  SER37       0.1924
     40  C         17.8010   11.0750   13.1230 C.2    37  SER37       0.2314
     41  O         17.7470   11.5460   14.2560 O.2    37  SER37      -0.2863
     42  CB        19.4990   11.5220   11.3610 C.3    37  SER37       0.2116
     43  OG        20.4730   11.3840   12.3830 O.3    37  SER37      -0.2180
     44  N         21.9900    3.6110    3.9520 N.3    71  VAL71      -0.1245
     45  CA        21.5320    4.9810    4.1600 C.3    71  VAL71       0.1561
     46  C         22.2360    5.9540    3.2190 C.2    71  VAL71       0.2260
     47  O         23.2610    6.5430    3.5850 O.2    71  VAL71      -0.2867
     48  CB        21.7110    5.4400    5.6320 C.3    71  VAL71       0.0252
     49  CG1       21.0700    6.8110    5.8490 C.3    71  VAL71       0.0019
     50  CG2       21.1020    4.4240    6.5830 C.3    71  VAL71       0.0019
     51  N         22.3330    9.5950    1.2480 N.3    73  TYR73      -0.1241
     52  CA        21.8440   10.9590    1.4250 C.3    73  TYR73       0.1605
     53  C         22.5620   11.8560    0.4130 C.2    73  TYR73       0.2264
     54  O         23.4520   11.3950   -0.3040 O.2    73  TYR73      -0.2867
     55  CB        22.0410   11.4380    2.8750 C.3    73  TYR73       0.0534
     56  CG        23.4560   11.2850    3.3750 C.ar   73  TYR73      -0.0201
     57  CD1       23.9180   10.0610    3.8650 C.ar   73  TYR73      -0.0009
     58  CD2       24.3410   12.3630    3.3430 C.ar   73  TYR73      -0.0009
     59  CE1       25.2200    9.9230    4.3160 C.ar   73  TYR73       0.0417
     60  CE2       25.6440   12.2320    3.7860 C.ar   73  TYR73       0.0417
     61  CZ        26.0760   11.0090    4.2660 C.ar   73  TYR73       0.1957
     62  OH        27.3700   10.8830    4.7020 O.3    73  TYR73      -0.2866
     63  N         24.9200   14.1550    0.3410 N.3    75  GLN75      -0.1245
     64  CA        26.3790   14.3050    0.3310 C.3    75  GLN75       0.1566
     65  C         27.1760   12.9950    0.3920 C.2    75  GLN75       0.2260
     66  O         28.4080   13.0260    0.3420 O.2    75  GLN75      -0.2867
     67  CB        26.8350   15.2470    1.4590 C.3    75  GLN75       0.0367
     68  CG        26.6240   16.7340    1.1910 C.3    75  GLN75       0.0905
     69  CD        25.1620   17.1490    1.2070 C.2    75  GLN75       0.2608
     70  OE1       24.3100   16.4650    1.7830 O.2    75  GLN75      -0.2717
     71  NE2       24.8620   18.2750    0.5690 N.am   75  GLN75      -0.0878
     72  N         26.1910    5.9370    4.3470 N.3    78  TRP78      -0.1241
     73  CA        26.7740    4.9600    5.2580 C.3    78  TRP78       0.1605
     74  C         25.9390    3.6950    5.2030 C.2    78  TRP78       0.2264
     75  O         24.7580    3.7380    4.8720 O.2    78  TRP78      -0.2867
     76  CB        26.9330    5.5020    6.6910 C.3    78  TRP78       0.0550
     77  CG        25.6540    5.8540    7.4350 C.ar   78  TRP78       0.0003
     78  CD1       25.1220    7.1030    7.6100 C.ar   78  TRP78       0.0946
     79  CD2       24.7860    4.9490    8.1330 C.ar   78  TRP78       0.0152
     80  NE1       23.9660    7.0280    8.3590 N.ar   78  TRP78      -0.2442
     81  CE2       23.7360    5.7170    8.6870 C.ar   78  TRP78       0.0810
     82  CE3       24.7800    3.5600    8.3220 C.ar   78  TRP78       0.0012
     83  CZ2       22.7000    5.1440    9.4360 C.ar   78  TRP78       0.0191
     84  CZ3       23.7380    2.9870    9.0610 C.ar   78  TRP78       0.0001
     85  CH2       22.7220    3.7810    9.6160 C.ar   78  TRP78       0.0015
     86  N         31.9860    9.7840    2.3310 N.3   109  LYS109     -0.1231
     87  CA        31.7710   11.1920    2.6840 C.3   109  LYS109      0.1693
     88  C         30.8400   11.3290    3.8920 C.2   109  LYS109      0.2592
     89  O         30.0000   12.2350    3.9590 O.2   109  LYS109     -0.2718
     90  CB        31.2430   11.9770    1.4770 C.3   109  LYS109      0.0285
     91  CG        32.2030   11.9810    0.2910 C.3   109  LYS109      0.0035
     92  CD        31.4840   12.2010   -1.0360 C.3   109  LYS109      0.0206
     93  CE        31.0650   13.6520   -1.2390 C.3   109  LYS109      0.1093
     94  NZ        32.2050   14.6070   -1.1260 N.3   109  LYS109     -0.1314
     95  N         30.9900   10.3990    4.8300 N.am  110  PHE110     -0.1976
     96  CA        30.2530   10.4330    6.0780 C.3   110  PHE110      0.1639
     97  C         31.1670   10.9450    7.1900 C.2   110  PHE110      0.2290
     98  O         30.9320   12.0180    7.7480 O.2   110  PHE110     -0.2864
     99  CB        29.6600    9.0530    6.4040 C.3   110  PHE110      0.0560
    100  CG        28.9870    8.9840    7.7470 C.ar  110  PHE110     -0.0200
    101  CD1       27.8160    9.6930    7.9900 C.ar  110  PHE110     -0.0042
    102  CD2       29.5380    8.2340    8.7780 C.ar  110  PHE110     -0.0042
    103  CE1       27.1960    9.6360    9.2280 C.ar  110  PHE110     -0.0003
    104  CE2       28.9210    8.1680   10.0200 C.ar  110  PHE110     -0.0003
    105  CZ        27.7480    8.8740   10.2460 C.ar  110  PHE110     -0.0000
    106  N         34.3910   12.6970    8.9520 N.3   112  ILE112     -0.1245
    107  CA        35.0910   13.9340    8.6320 C.3   112  ILE112      0.1561
    108  C         36.4620   13.9090    9.2830 C.2   112  ILE112      0.2260
    109  O         36.5720   13.7480   10.5030 O.2   112  ILE112     -0.2867
    110  CB        34.3090   15.1770    9.1210 C.3   112  ILE112      0.0252
    111  CG1       32.9580   15.2830    8.4010 C.3   112  ILE112      0.0019
    112  CG2       35.1350   16.4490    8.9210 C.3   112  ILE112      0.0019
    113  CD1       32.0370   16.3510    8.9540 C.3   112  ILE112      0.0001
    114  N         34.7450   12.5400   15.9230 N.3   117  TRP117     -0.1241
    115  CA        33.6260   11.6370   16.1970 C.3   117  TRP117      0.1605
    116  C         33.6380   10.4030   15.2900 C.2   117  TRP117      0.2264
    117  O         34.1280   10.4460   14.1500 O.2   117  TRP117     -0.2867
    118  CB        32.2550   12.3650   16.2270 C.3   117  TRP117      0.0550
    119  CG        31.8740   13.1950   15.0010 C.ar  117  TRP117      0.0003
    120  CD1       31.9660   14.5500   14.8750 C.ar  117  TRP117      0.0946
    121  CD2       31.3050   12.7200   13.7720 C.ar  117  TRP117      0.0152
    122  NE1       31.5010   14.9530   13.6410 N.ar  117  TRP117     -0.2442
    123  CE2       31.0920   13.8500   12.9430 C.ar  117  TRP117      0.0810
    124  CE3       30.9680   11.4540   13.2830 C.ar  117  TRP117      0.0012
    125  CZ2       30.5580   13.7490   11.6560 C.ar  117  TRP117      0.0191
    126  CZ3       30.4340   11.3540   12.0030 C.ar  117  TRP117      0.0001
    127  CH2       30.2320   12.4980   11.2070 C.ar  117  TRP117      0.0015
    128  N         27.0710    8.4660   15.0940 N.3   120  ILE120     -0.1245
    129  CA        26.0130    9.4590   15.0430 C.3   120  ILE120      0.1561
    130  C         24.8450    9.0350   15.9330 C.2   120  ILE120      0.2260
    131  O         24.4530    7.8650   15.9490 O.2   120  ILE120     -0.2867
    132  CB        25.5650    9.6970   13.5740 C.3   120  ILE120      0.0252
    133  CG1       24.5130   10.8180   13.4850 C.3   120  ILE120      0.0019
    134  CG2       25.0900    8.4010   12.9210 C.3   120  ILE120      0.0019
    135  CD1       24.3050   11.3300   12.0660 C.3   120  ILE120      0.0001
    136  N         17.7310   21.4720   13.6770 N.3   223  ASP223     -0.1225
    137  CA        18.7080   20.4380   13.3100 C.3   223  ASP223      0.1805
    138  C         20.1280   20.7160   13.8010 C.2   223  ASP223      0.2598
    139  O         20.8770   21.4760   13.1670 O.2   223  ASP223     -0.2718
    140  CB        18.7120   20.2380   11.7850 C.3   223  ASP223      0.1424
    141  CG        19.6150   19.0980   11.3470 C.2   223  ASP223      0.3668
    142  OD1       20.0310   18.2890   12.2130 O.co2 223  ASP223     -0.2456
    143  OD2       19.8970   18.9910   10.1280 O.co2 223  ASP223     -0.2456
    144  N         20.5140   20.0470   14.8870 N.am  224  SER224     -0.1938
    145  CA        21.8580   20.2020   15.4630 C.3   224  SER224      0.2055
    146  C         22.9340   19.6410   14.5260 C.2   224  SER224      0.2644
    147  O         24.1150   19.9390   14.6890 O.2   224  SER224     -0.2714
    148  CB        21.9410   19.5240   16.8370 C.3   224  SER224      0.2130
    149  OG        21.7930   18.1140   16.7270 O.3   224  SER224     -0.2179
    150  N         22.5040   18.8480   13.5420 N.am  225  GLY225     -0.1939
    151  CA        23.4020   18.2110   12.5650 C.3   225  GLY225      0.2014
    152  C         23.6150   19.0010   11.2740 C.2   225  GLY225      0.2640
    153  O         24.1920   18.4880   10.3050 O.2   225  GLY225     -0.2714
    154  N         23.1510   20.2470   11.2630 N.am  226  THR226     -0.1936
    155  CA        23.4280   21.1900   10.1780 C.3   226  THR226      0.2028
    156  C         24.1410   22.3930   10.7780 C.2   226  THR226      0.2642
    157  O         23.6790   22.9380   11.7830 O.2   226  THR226     -0.2714
    158  CB        22.1280   21.6660    9.4820 C.3   226  THR226      0.1808
    159  OG1       21.4980   20.5630    8.8190 O.3   226  THR226     -0.2208
    160  CG2       22.4220   22.7600    8.4470 C.3   226  THR226      0.0379
    161  N         25.2630   22.8110   10.1860 N.am  227  THR227     -0.1950
    162  CA        26.0010   23.9690   10.7150 C.3   227  THR227      0.1897
    163  C         25.2270   25.2690   10.5120 C.2   227  THR227      0.2313
    164  O         25.0860   26.0800   11.4320 O.2   227  THR227     -0.2863
    165  CB        27.4000   24.1150   10.0610 C.3   227  THR227      0.1794
    166  OG1       28.1600   22.9250   10.2910 O.3   227  THR227     -0.2208
    167  CG2       28.1660   25.3200   10.6220 C.3   227  THR227      0.0378
    168  N         19.8310   27.4410    7.0710 N.3   230  ARG230     -0.1245
    169  CA        19.5220   27.2020    5.6590 C.3   230  ARG230      0.1563
    170  C         18.1010   27.6580    5.3750 C.2   230  ARG230      0.2260
    171  O         17.1820   27.3670    6.1410 O.2   230  ARG230     -0.2867
    172  CB        19.7150   25.7290    5.2850 C.3   230  ARG230      0.0307
    173  CG        21.1010   25.1970    5.6230 C.3   230  ARG230      0.0489
    174  CD        21.3050   23.7900    5.0930 C.3   230  ARG230      0.2205
    175  NE        21.3030   23.7640    3.6250 N.pl3 230  ARG230     -0.0865
    176  CZ        20.7500   22.8050    2.8930 C.cat 230  ARG230      0.5346
    177  NH1       20.7940   22.8760    1.5700 N.pl3 230  ARG230      0.1354
    178  NH2       20.1350   21.7790    3.4730 N.pl3 230  ARG230      0.1354
@<TRIPOS>BOND
     1    93    94    1
     2    93    92    1
     3    92    91    1
     4    54    53    2
     5    91    90    1
     6    64    63    1
     7    64    65    1
     8    64    67    1
     9    66    65    2
    10    53    52    1
    11    71    69   am
    12    68    69    1
    13    68    67    1
    14    69    70    2
    15    51    52    1
    16    52    55    1
    17    90    87    1
    18   177   176    1
    19    86    87    1
    20    87    88    1
    21    55    56    1
    22   176   178    1
    23   176   175    2
    24    46    47    2
    25    46    45    1
    26    58    56   ar
    27    58    60   ar
    28    56    57   ar
    29   175   174    1
    30    60    61   ar
    31    57    59   ar
    32    88    89    2
    33    88    95   am
    34    44    45    1
    35    45    48    1
    36    61    59   ar
    37    61    62    1
    38    72    73    1
    39    95    96    1
    40    75    74    2
    41   174   173    1
    42    74    73    1
    43    73    76    1
    44   172   173    1
    45   172   169    1
    46   170   169    1
    47   170   171    2
    48    48    49    1
    49    48    50    1
    50   169   168    1
    51    96    99    1
    52    96    97    1
    53    99   100    1
    54    76    77    1
    55    97    98    2
    56    77    78   ar
    57    77    79   ar
    58    78    80   ar
    59   100   101   ar
    60   100   102   ar
    61   101   103   ar
    62    79    82   ar
    63    79    81   ar
    64    82    84   ar
    65    80    81   ar
    66   111   113    1
    67   111   110    1
    68   160   158    1
    69   107   106    1
    70   107   110    1
    71   107   108    1
    72    81    83   ar
    73   102   104   ar
    74   159   158    1
    75   112   110    1
    76    84    85   ar
    77   103   105   ar
    78   108   109    2
    79    83    85   ar
    80   158   155    1
    81    13    11   am
    82   104   105   ar
    83   165   166    1
    84   165   167    1
    85   165   162    1
    86   143   141   ar
    87     4     3    2
    88   155   156    1
    89   155   154    1
    90   161   162    1
    91   161   156   am
    92   153   152    2
    93    37    36    2
    94   163   162    1
    95   163   164    2
    96   156   157    2
    97    11    10    1
    98    11    12    2
    99    10     9    1
   100   127   125   ar
   101   127   126   ar
   102     3     2    1
   103     3     5   am
   104   154   152   am
   105   152   151    1
   106   141   140    1
   107   141   142   ar
   108    42    39    1
   109    42    43    1
   110     2     1    1
   111    36    35    1
   112    36    38   am
   113   125   123   ar
   114   140   137    1
   115    39    38    1
   116    39    40    1
   117   126   124   ar
   118   135   133    1
   119     6     9    1
   120     6     5    1
   121     6     7    1
   122    33    31   ar
   123    35    34    1
   124   151   150    1
   125   134   132    1
   126   123   122   ar
   127   123   121   ar
   128    32    31   ar
   129     7     8    2
   130     7    14   am
   131    31    30    1
   132    25    23    1
   133    40    41    2
   134   139   138    2
   135   124   121   ar
   136   137   136    1
   137   137   138    1
   138   133   132    1
   139   150   146   am
   140   132   129    1
   141   122   120   ar
   142    14    15    1
   143   121   119   ar
   144   138   144   am
   145   117   116    2
   146    30    27    1
   147    23    24    1
   148    23    22    1
   149   146   147    2
   150   146   145    1
   151    15    16    1
   152   120   119   ar
   153   144   145    1
   154   119   118    1
   155   129   128    1
   156   129   130    1
   157    22    19    1
   158   116   115    1
   159   145   148    1
   160    27    28    1
   161    27    26    1
   162    29    28    2
   163   114   115    1
   164   130   131    2
   165    16    17    2
   166   115   118    1
   167   149   148    1
   168    19    18    1
   169    19    20    1
   170    21    20    2
