@<TRIPOS>MOLECULE
tmp/4n02A00.pdb
 201 189 0 0 0
SMALL
GASTEIGER

@<TRIPOS>ATOM
      1  N         32.8120   48.3980   30.7710 N.3     5  LYS5       -0.1245
      2  CA        33.7460   47.3200   31.0930 C.3     5  LYS5        0.1561
      3  C         34.9160   47.3080   30.1160 C.2     5  LYS5        0.2260
      4  O         36.0750   47.1670   30.5160 O.2     5  LYS5       -0.2867
      5  CB        33.0430   45.9570   31.0650 C.3     5  LYS5        0.0271
      6  CG        31.9410   45.7800   32.1040 C.3     5  LYS5        0.0035
      7  CD        32.4600   45.9740   33.5180 C.3     5  LYS5        0.0206
      8  CE        31.3520   45.7250   34.5350 C.3     5  LYS5        0.1093
      9  NZ        31.7760   46.1030   35.9160 N.3     5  LYS5       -0.1314
     10  N         37.2440   50.2990   30.5460 N.3     8  HIS8       -0.1226
     11  CA        38.1190   50.1030   31.6920 C.3     8  HIS8        0.1752
     12  C         39.3500   49.2980   31.2900 C.2     8  HIS8        0.2595
     13  O         40.4660   49.6460   31.6630 O.2     8  HIS8       -0.2718
     14  CB        37.3780   49.4110   32.8380 C.3     8  HIS8        0.0759
     15  CG        36.4400   50.3140   33.5800 C.ar    8  HIS8        0.0818
     16  ND1       35.6250   49.8600   34.5940 N.ar    8  HIS8       -0.2268
     17  CD2       36.2070   51.6390   33.4640 C.ar    8  HIS8        0.1154
     18  CE1       34.9240   50.8740   35.0710 C.ar    8  HIS8        0.1986
     19  NE2       35.2560   51.9650   34.4090 N.ar    8  HIS8       -0.2212
     20  N         39.1440   48.2390   30.5110 N.am    9  ILE9       -0.1980
     21  CA        40.2480   47.4080   30.0450 C.3     9  ILE9        0.1595
     22  C         41.1720   48.2190   29.1360 C.2     9  ILE9        0.2287
     23  O         42.3910   48.2430   29.3350 O.2     9  ILE9       -0.2864
     24  CB        39.7310   46.1680   29.2850 C.3     9  ILE9        0.0276
     25  CG1       38.9800   45.2340   30.2390 C.3     9  ILE9        0.0022
     26  CG2       40.8810   45.4310   28.6060 C.3     9  ILE9        0.0022
     27  CD1       38.0770   44.2380   29.5240 C.3     9  ILE9        0.0001
     28  N         42.9620   51.1690   31.1360 N.3    12  ALA12      -0.1245
     29  CA        43.9090   50.6060   32.0970 C.3    12  ALA12       0.1562
     30  C         45.2010   50.1710   31.4100 C.2    12  ALA12       0.2260
     31  O         46.2930   50.3730   31.9360 O.2    12  ALA12      -0.2867
     32  CB        43.2870   49.4340   32.8490 C.3    12  ALA12       0.0290
     33  N         43.8400   40.0110   41.0290 N.3    58  ASN58      -0.1225
     34  CA        42.8890   40.8900   41.6810 C.3    58  ASN58       0.1785
     35  C         41.7270   41.2630   40.7770 C.2    58  ASN58       0.2597
     36  O         41.8170   41.1420   39.5570 O.2    58  ASN58      -0.2718
     37  CB        43.5980   42.1540   42.1700 C.3    58  ASN58       0.1169
     38  CG        43.0790   42.6320   43.5110 C.2    58  ASN58       0.2627
     39  OD1       42.0550   42.1400   44.0160 O.2    58  ASN58      -0.2716
     40  ND2       43.7790   43.5940   44.1000 N.am   58  ASN58      -0.0877
     41  N         40.6430   41.7270   41.3930 N.am   59  ALA59      -0.1966
     42  CA        39.3890   42.0280   40.7000 C.3    59  ALA59       0.1728
     43  C         39.5950   42.8860   39.4590 C.2    59  ALA59       0.2616
     44  O         40.2640   43.9230   39.5090 O.2    59  ALA59      -0.2715
     45  CB        38.4270   42.7230   41.6520 C.3    59  ALA59       0.0334
     46  N         39.0200   42.4480   38.3420 N.am   60  MET60      -0.1963
     47  CA        39.0250   43.2500   37.1230 C.3    60  MET60       0.1736
     48  C         37.7100   43.2260   36.3620 C.2    60  MET60       0.2617
     49  O         36.9960   44.2310   36.2830 O.2    60  MET60      -0.2715
     50  CB        40.1680   42.8270   36.1920 C.3    60  MET60       0.0427
     51  CG        41.5430   43.2250   36.7010 C.3    60  MET60       0.0599
     52  SD        42.8720   42.8180   35.5590 S.3    60  MET60      -0.1393
     53  CE        43.1410   41.0860   35.9360 C.3    60  MET60       0.0692
     54  N         37.3740   42.0890   35.7830 N.am   61  THR61      -0.1951
     55  CA        36.3510   42.1570   34.7540 C.3    61  THR61       0.1897
     56  C         35.3110   41.0420   34.7740 C.2    61  THR61       0.2313
     57  O         35.2730   40.2120   35.6910 O.2    61  THR61      -0.2863
     58  CB        37.0000   42.3400   33.3550 C.3    61  THR61       0.1794
     59  OG1       36.0280   42.8290   32.4180 O.3    61  THR61      -0.2208
     60  CG2       37.6210   41.0350   32.8620 C.3    61  THR61       0.0378
     61  N         36.0270   40.6460   38.5390 N.3    88  GLY88      -0.1210
     62  CA        35.5470   42.0030   38.6870 C.3    88  GLY88       0.1956
     63  C         34.1830   42.0080   39.3550 C.2    88  GLY88       0.2612
     64  O         33.5990   40.9490   39.6350 O.2    88  GLY88      -0.2717
     65  N         33.6740   43.2100   39.6160 N.am   89  SER89      -0.1952
     66  CA        32.3470   43.3900   40.1910 C.3    89  SER89       0.1924
     67  C         31.3020   42.5170   39.5040 C.2    89  SER89       0.2314
     68  O         31.2170   42.4800   38.2700 O.2    89  SER89      -0.2863
     69  CB        31.9240   44.8460   40.0680 C.3    89  SER89       0.2116
     70  OG        30.5720   44.9960   40.4590 O.3    89  SER89      -0.2180
     71  N         33.4180   39.9280   43.7550 N.3   116  ASN116     -0.1240
     72  CA        33.5490   41.3400   44.0840 C.3   116  ASN116      0.1653
     73  C         32.2020   42.0320   43.8930 C.2   116  ASN116      0.2266
     74  O         31.4710   41.7170   42.9540 O.2   116  ASN116     -0.2867
     75  CB        34.6210   41.9220   43.1400 C.3   116  ASN116      0.1155
     76  CG        34.8990   43.4060   43.3540 C.2   116  ASN116      0.2627
     77  OD1       34.1310   44.2680   42.9080 O.2   116  ASN116     -0.2716
     78  ND2       36.0460   43.7140   43.9640 N.am  116  ASN116     -0.0877
     79  N         33.9840   46.4910   47.4760 N.3   141  HIS141     -0.1241
     80  CA        34.8490   47.5900   47.0670 C.3   141  HIS141      0.1621
     81  C         34.3330   48.9740   47.4360 C.2   141  HIS141      0.2264
     82  O         33.1190   49.2130   47.5160 O.2   141  HIS141     -0.2867
     83  CB        35.2550   47.5010   45.5820 C.3   141  HIS141      0.0745
     84  CG        34.1800   47.8820   44.6090 C.ar  141  HIS141      0.0817
     85  ND1       33.6170   46.9730   43.7280 N.ar  141  HIS141     -0.2268
     86  CD2       33.6050   49.0790   44.3370 C.ar  141  HIS141      0.1154
     87  CE1       32.7280   47.6010   42.9750 C.ar  141  HIS141      0.1986
     88  NE2       32.7030   48.8660   43.3080 N.ar  141  HIS141     -0.2212
     89  N         37.8030   46.5170   49.9940 N.3   178  LYS178     -0.1245
     90  CA        38.6740   46.5660   48.8250 C.3   178  LYS178      0.1561
     91  C         38.7590   47.9580   48.2010 C.2   178  LYS178      0.2260
     92  O         37.7720   48.4770   47.6870 O.2   178  LYS178     -0.2867
     93  CB        38.1580   45.5220   47.8160 C.3   178  LYS178      0.0271
     94  CG        38.6430   45.6230   46.3690 C.3   178  LYS178      0.0035
     95  CD        40.1100   45.2340   46.1930 C.3   178  LYS178      0.0206
     96  CE        40.4570   45.0460   44.7180 C.3   178  LYS178      0.1093
     97  NZ        40.0870   46.2230   43.8740 N.3   178  LYS178     -0.1314
     98  N         40.4880   50.5190   45.2320 N.3   180  VAL180     -0.1231
     99  CA        40.5380   50.3560   43.7820 C.3   180  VAL180      0.1692
    100  C         41.6810   51.1670   43.1780 C.2   180  VAL180      0.2592
    101  O         41.6910   51.4530   41.9770 O.2   180  VAL180     -0.2718
    102  CB        39.1870   50.7270   43.1090 C.3   180  VAL180      0.0266
    103  CG1       38.0510   49.8320   43.6340 C.3   180  VAL180      0.0020
    104  CG2       38.8680   52.2000   43.3220 C.3   180  VAL180      0.0020
    105  N         42.6490   51.5350   44.0140 N.am  181  GLY181     -0.1957
    106  CA        43.8390   52.2250   43.5390 C.3   181  GLY181      0.1869
    107  C         44.0820   53.5850   44.1590 C.2   181  GLY181      0.2309
    108  O         45.0440   54.2590   43.7930 O.2   181  GLY181     -0.2863
    109  N         44.9420   48.5610   48.1000 N.3   203  SER203     -0.1217
    110  CA        45.0950   48.9820   46.6970 C.3   203  SER203      0.1889
    111  C         45.3650   50.4640   46.4780 C.2   203  SER203      0.2288
    112  O         44.4420   51.2850   46.3880 O.2   203  SER203     -0.2866
    113  CB        43.9000   48.5230   45.8660 C.3   203  SER203      0.2089
    114  OG        44.3330   48.2190   44.5450 O.3   203  SER203     -0.2183
    115  N         49.9680   52.1730   40.1250 N.3   207  GLY207     -0.1210
    116  CA        49.6140   51.3740   38.9730 C.3   207  GLY207      0.1956
    117  C         48.3580   51.9440   38.3590 C.2   207  GLY207      0.2612
    118  O         48.2740   53.1470   38.1090 O.2   207  GLY207     -0.2717
    119  N         47.3730   51.0880   38.1190 N.am  208  THR208     -0.1952
    120  CA        46.1190   51.5470   37.5320 C.3   208  THR208      0.1897
    121  C         45.4550   52.6330   38.3760 C.2   208  THR208      0.2313
    122  O         45.3210   52.4900   39.5940 O.2   208  THR208     -0.2863
    123  CB        45.1440   50.3810   37.3500 C.3   208  THR208      0.1794
    124  OG1       45.8010   49.3450   36.6140 O.3   208  THR208     -0.2208
    125  CG2       43.8990   50.8400   36.5960 C.3   208  THR208      0.0378
    126  N         41.8930   54.7320   38.6010 N.3   210  PHE210     -0.1241
    127  CA        40.5540   54.9340   38.0740 C.3   210  PHE210      0.1605
    128  C         40.1620   56.3930   37.9260 C.2   210  PHE210      0.2264
    129  O         39.1810   56.6910   37.2550 O.2   210  PHE210     -0.2867
    130  CB        39.5110   54.1150   38.8240 C.3   210  PHE210      0.0534
    131  CG        39.3650   52.7310   38.2770 C.ar  210  PHE210     -0.0203
    132  CD1       38.4990   52.4810   37.2250 C.ar  210  PHE210     -0.0042
    133  CD2       40.1470   51.6920   38.7590 C.ar  210  PHE210     -0.0042
    134  CE1       38.3750   51.2120   36.6940 C.ar  210  PHE210     -0.0003
    135  CE2       40.0300   50.4220   38.2290 C.ar  210  PHE210     -0.0003
    136  CZ        39.1420   50.1820   37.1970 C.ar  210  PHE210     -0.0000
    137  N         47.9710   45.8650   46.9760 N.3   250  SER250     -0.1202
    138  CA        47.9730   45.8660   45.5250 C.3   250  SER250      0.2020
    139  C         48.0820   47.3040   45.0590 C.2   250  SER250      0.2619
    140  O         48.0320   48.2330   45.8620 O.2   250  SER250     -0.2717
    141  CB        46.6960   45.2180   44.9800 C.3   250  SER250      0.2103
    142  OG        45.5430   45.9640   45.3280 O.3   250  SER250     -0.2182
    143  N         48.2230   47.4800   43.7510 N.am  251  GLY251     -0.1942
    144  CA        48.3630   48.7950   43.1480 C.3   251  GLY251      0.2014
    145  C         49.7840   48.9880   42.6530 C.2   251  GLY251      0.2639
    146  O         50.7010   49.2700   43.4350 O.2   251  GLY251     -0.2714
    147  N         49.9870   48.8160   41.3510 N.am  252  GLY252     -0.1939
    148  CA        51.3000   48.9990   40.7620 C.3   252  GLY252      0.2014
    149  C         52.3000   47.8950   41.0490 C.2   252  GLY252      0.2638
    150  O         53.5090   48.1220   40.9840 O.2   252  GLY252     -0.2714
    151  N         51.8160   46.6920   41.3400 N.am  253  VAL253     -0.1977
    152  CA        52.7220   45.5670   41.5320 C.3   253  VAL253      0.1596
    153  C         53.1130   45.0330   40.1570 C.2   253  VAL253      0.2287
    154  O         52.2560   44.5980   39.3820 O.2   253  VAL253     -0.2864
    155  CB        52.0880   44.4570   42.4020 C.3   253  VAL253      0.0276
    156  CG1       53.0240   43.2400   42.4980 C.3   253  VAL253      0.0022
    157  CG2       51.7210   45.0070   43.7920 C.3   253  VAL253      0.0022
    158  N         48.1950   41.4990   45.4840 N.3   271  GLY271     -0.1210
    159  CA        47.3090   41.3950   44.3350 C.3   271  GLY271      0.1956
    160  C         47.8460   42.0880   43.0960 C.2   271  GLY271      0.2612
    161  O         48.5370   43.1070   43.1900 O.2   271  GLY271     -0.2717
    162  N         47.5280   41.5200   41.9340 N.am  272  LEU272     -0.1965
    163  CA        47.9300   42.0890   40.6470 C.3   272  LEU272      0.1728
    164  C         46.7460   42.1280   39.7030 C.2   272  LEU272      0.2617
    165  O         46.0200   41.1400   39.5680 O.2   272  LEU272     -0.2715
    166  CB        49.0460   41.2680   39.9920 C.3   272  LEU272      0.0311
    167  CG        50.3740   41.1790   40.7480 C.3   272  LEU272      0.0022
    168  CD1       50.3690   40.0380   41.7750 C.3   272  LEU272      0.0001
    169  CD2       51.5320   41.0320   39.7690 C.3   272  LEU272      0.0001
    170  N         46.5610   43.2680   39.0450 N.am  273  SER273     -0.1936
    171  CA        45.5590   43.3910   37.9940 C.3   273  SER273      0.2055
    172  C         46.2380   43.7260   36.6600 C.2   273  SER273      0.2643
    173  O         46.4270   42.8410   35.8300 O.2   273  SER273     -0.2714
    174  CB        44.4870   44.4190   38.3790 C.3   273  SER273      0.2130
    175  OG        43.7570   43.9810   39.5280 O.3   273  SER273     -0.2179
    176  N         46.6330   44.9830   36.4730 N.am  274  ARG274     -0.1963
    177  CA        47.2270   45.4190   35.1980 C.3   274  ARG274      0.1729
    178  C         48.3500   44.5210   34.6890 C.2   274  ARG274      0.2616
    179  O         48.3830   44.1860   33.5030 O.2   274  ARG274     -0.2715
    180  CB        47.7330   46.8700   35.2980 C.3   274  ARG274      0.0348
    181  CG        48.8380   47.2390   34.3060 C.3   274  ARG274      0.0492
    182  CD        48.3130   47.3760   32.8840 C.3   274  ARG274      0.2205
    183  NE        49.3980   47.6100   31.9290 N.pl3 274  ARG274     -0.0865
    184  CZ        49.8280   48.8130   31.5590 C.cat 274  ARG274      0.5346
    185  NH1       49.2620   49.9060   32.0510 N.pl3 274  ARG274      0.1354
    186  NH2       50.8250   48.9250   30.6890 N.pl3 274  ARG274      0.1354
    187  N         49.2710   44.1250   35.5580 N.am  275  THR275     -0.1951
    188  CA        50.3830   43.2890   35.1030 C.3   275  THR275      0.1897
    189  C         49.8950   41.9810   34.4830 C.2   275  THR275      0.2313
    190  O         50.3610   41.5760   33.4130 O.2   275  THR275     -0.2863
    191  CB        51.3710   43.0140   36.2410 C.3   275  THR275      0.1794
    192  OG1       51.9950   44.2490   36.6080 O.3   275  THR275     -0.2208
    193  CG2       52.4380   42.0070   35.8070 C.3   275  THR275      0.0378
    194  N         46.7240   41.3290   33.4280 N.3   277  LEU277     -0.1245
    195  CA        45.9030   41.6680   32.2700 C.3   277  LEU277      0.1561
    196  C         46.7740   41.8780   31.0280 C.2   277  LEU277      0.2260
    197  O         46.4800   41.3580   29.9440 O.2   277  LEU277     -0.2867
    198  CB        45.0910   42.9290   32.5630 C.3   277  LEU277      0.0270
    199  CG        44.2010   43.4460   31.4330 C.3   277  LEU277      0.0019
    200  CD1       43.1240   42.4210   31.0730 C.3   277  LEU277      0.0001
    201  CD2       43.5790   44.7900   31.8190 C.3   277  LEU277      0.0001
@<TRIPOS>BOND
     1    26    24    1
     2    22    23    2
     3    22    21    1
     4    24    21    1
     5    24    25    1
     6    27    25    1
     7   197   196    2
     8    21    20    1
     9     3     4    2
    10     3     2    1
    11    20    12   am
    12    10    11    1
    13   186   184    1
    14     1     2    1
    15   196   195    1
    16     5     2    1
    17     5     6    1
    18   200   199    1
    19    28    29    1
    20    12    13    2
    21    12    11    1
    22    30    31    2
    23    30    29    1
    24   199   201    1
    25   199   198    1
    26   184   183    2
    27   184   185    1
    28    11    14    1
    29   183   182    1
    30    29    32    1
    31     6     7    1
    32   195   198    1
    33   195   194    1
    34    59    58    1
    35    14    15    1
    36    60    58    1
    37   182   181    1
    38    58    55    1
    39   190   189    2
    40    17    15   ar
    41    17    19   ar
    42   179   178    2
    43     7     8    1
    44    15    16   ar
    45   181   180    1
    46    19    18   ar
    47   189   188    1
    48     8     9    1
    49    16    18   ar
    50   178   177    1
    51   178   187   am
    52    55    56    1
    53    55    54    1
    54    56    57    2
    55   188   187    1
    56   188   191    1
    57   177   180    1
    58   177   176    1
    59    52    53    1
    60    52    51    1
    61    54    48   am
    62   193   191    1
    63   173   172    2
    64    50    51    1
    65    50    47    1
    66   191   192    1
    67    49    48    2
    68    48    47    1
    69   176   172   am
    70   125   123    1
    71   124   123    1
    72   172   171    1
    73   134   136   ar
    74   134   132   ar
    75    47    46    1
    76   136   135   ar
    77   132   131   ar
    78   129   128    2
    79   123   120    1
    80   120   119    1
    81   120   121    1
    82   128   127    1
    83   171   174    1
    84   171   170    1
    85   127   126    1
    86   127   130    1
    87   118   117    2
    88   119   117   am
    89   135   133   ar
    90    68    67    2
    91   131   133   ar
    92   131   130    1
    93    46    43   am
    94   117   116    1
    95   121   122    2
    96   174   175    1
    97    61    62    1
    98    62    63    1
    99   116   115    1
   100   170   164   am
   101    63    65   am
   102    63    64    2
   103   154   153    2
   104    43    44    2
   105    43    42    1
   106    67    66    1
   107    36    35    2
   108   165   164    2
   109    65    66    1
   110   164   163    1
   111   169   167    1
   112   166   163    1
   113   166   167    1
   114    69    66    1
   115    69    70    1
   116   153   152    1
   117   163   162    1
   118    42    41    1
   119    42    45    1
   120   167   168    1
   121   148   149    1
   122   148   147    1
   123    35    41   am
   124    35    34    1
   125   150   149    2
   126    33    34    1
   127   149   151   am
   128   151   152    1
   129   147   145   am
   130   152   155    1
   131    34    37    1
   132   162   160   am
   133   101   100    2
   134    37    38    1
   135   155   156    1
   136   155   157    1
   137   145   144    1
   138   145   146    2
   139    77    76    2
   140    74    73    2
   141    87    88   ar
   142    87    85   ar
   143   160   161    2
   144   160   159    1
   145   102   104    1
   146   102   103    1
   147   102    99    1
   148    75    76    1
   149    75    72    1
   150   144   143    1
   151   100    99    1
   152   100   105   am
   153    88    86   ar
   154    76    78   am
   155    38    39    2
   156    38    40   am
   157   106   105    1
   158   106   107    1
   159    85    84   ar
   160   143   139   am
   161    71    72    1
   162    99    98    1
   163   108   107    2
   164    97    96    1
   165    73    72    1
   166   159   158    1
   167    86    84   ar
   168   114   113    1
   169    84    83    1
   170    96    95    1
   171   141   142    1
   172   141   138    1
   173   139   138    1
   174   139   140    2
   175   138   137    1
   176    83    80    1
   177   113   110    1
   178    95    94    1
   179    94    93    1
   180   112   111    2
   181   111   110    1
   182   110   109    1
   183    80    81    1
   184    80    79    1
   185    81    82    2
   186    92    91    2
   187    93    90    1
   188    91    90    1
   189    90    89    1
