@<TRIPOS>MOLECULE
tmp/4n03A00.pdb
 169 163 0 0 0
SMALL
GASTEIGER

@<TRIPOS>ATOM
      1  N         13.1080   23.1930   21.4420 N.3    30  TYR30      -0.1241
      2  CA        13.4130   21.8540   20.9300 C.3    30  TYR30       0.1605
      3  C         13.7740   21.8190   19.4430 C.2    30  TYR30       0.2264
      4  O         13.8760   20.7440   18.8970 O.2    30  TYR30      -0.2867
      5  CB        12.2890   20.8750   21.2540 C.3    30  TYR30       0.0534
      6  CG        12.2540   20.5900   22.7230 C.ar   30  TYR30      -0.0201
      7  CD1       13.2700   19.9170   23.3080 C.ar   30  TYR30      -0.0009
      8  CD2       11.2170   21.0260   23.5380 C.ar   30  TYR30      -0.0009
      9  CE1       13.3040   19.6520   24.6670 C.ar   30  TYR30       0.0417
     10  CE2       11.2160   20.7600   24.9180 C.ar   30  TYR30       0.0417
     11  CZ        12.2600   20.0830   25.4730 C.ar   30  TYR30       0.1957
     12  OH        12.2700   19.7630   26.7970 O.3    30  TYR30      -0.2866
     13  N         16.0250   19.0230   17.8890 N.3    33  LEU33      -0.1245
     14  CA        15.4670   17.6820   18.1230 C.3    33  LEU33       0.1561
     15  C         14.2130   17.4890   17.3000 C.2    33  LEU33       0.2260
     16  O         14.0430   16.4240   16.7080 O.2    33  LEU33      -0.2867
     17  CB        15.2300   17.4170   19.5970 C.3    33  LEU33       0.0270
     18  CG        16.5570   17.3030   20.3830 C.3    33  LEU33       0.0019
     19  CD1       16.2910   17.4860   21.8550 C.3    33  LEU33       0.0001
     20  CD2       17.2630   15.9790   20.1700 C.3    33  LEU33       0.0001
     21  N         13.7730   14.4850   14.5650 N.3    37  ILE37      -0.1245
     22  CA        12.6410   13.5710   14.5900 C.3    37  ILE37       0.1561
     23  C         11.8950   13.5820   13.2500 C.2    37  ILE37       0.2260
     24  O         11.5570   12.5550   12.6890 O.2    37  ILE37      -0.2867
     25  CB        11.7020   13.8940   15.7630 C.3    37  ILE37       0.0252
     26  CG1       12.4170   13.6890   17.0950 C.3    37  ILE37       0.0019
     27  CG2       10.4770   13.0300   15.7020 C.3    37  ILE37       0.0019
     28  CD1       11.7160   14.3590   18.2560 C.3    37  ILE37       0.0001
     29  N          6.9830   24.9760   20.0190 N.3    68  TYR68      -0.1241
     30  CA         6.7870   24.6370   21.4430 C.3    68  TYR68       0.1605
     31  C          5.8330   25.6290   22.1270 C.2    68  TYR68       0.2264
     32  O          6.1040   26.0830   23.2220 O.2    68  TYR68      -0.2867
     33  CB         8.1240   24.4540   22.1970 C.3    68  TYR68       0.0534
     34  CG         8.0130   23.5550   23.4110 C.ar   68  TYR68      -0.0201
     35  CD1        7.7990   22.2180   23.2750 C.ar   68  TYR68      -0.0009
     36  CD2        8.1860   24.0520   24.6850 C.ar   68  TYR68      -0.0009
     37  CE1        7.6640   21.3790   24.3710 C.ar   68  TYR68       0.0417
     38  CE2        8.1030   23.2160   25.7990 C.ar   68  TYR68       0.0417
     39  CZ         7.8430   21.8840   25.6250 C.ar   68  TYR68       0.1957
     40  OH         7.7460   21.0810   26.7440 O.3    68  TYR68      -0.2866
     41  N          5.0530   16.7650   18.7780 N.3    91  LEU91      -0.1231
     42  CA         6.0460   17.0450   19.8110 C.3    91  LEU91       0.1693
     43  C          5.4070   17.8160   20.9690 C.2    91  LEU91       0.2593
     44  O          4.7420   18.8080   20.7520 O.2    91  LEU91      -0.2718
     45  CB         7.1830   17.8840   19.2330 C.3    91  LEU91       0.0284
     46  CG         8.3950   18.0390   20.1510 C.3    91  LEU91       0.0019
     47  CD1        9.6660   18.0450   19.3100 C.3    91  LEU91       0.0001
     48  CD2        8.3200   19.2900   21.0060 C.3    91  LEU91       0.0001
     49  N          5.7110   17.4020   22.1820 N.am   92  GLY92      -0.1942
     50  CA         5.4690   18.2260   23.3450 C.3    92  GLY92       0.2014
     51  C          4.2510   17.8720   24.1830 C.2    92  GLY92       0.2640
     52  O          3.1600   17.7240   23.6540 O.2    92  GLY92      -0.2714
     53  N          4.4350   17.7670   25.5100 N.am   93  SER93      -0.1936
     54  CA         3.3520   17.3520   26.3860 C.3    93  SER93       0.2040
     55  C          2.2120   18.3700   26.4460 C.2    93  SER93       0.2485
     56  O          1.0470   17.9800   26.2300 O.2    93  SER93      -0.2729
     57  CB         3.8540   16.9510   27.7800 C.3    93  SER93       0.2129
     58  OG         4.7050   15.8290   27.6990 O.3    93  SER93      -0.2179
     59  N          2.4920   19.6360   26.7150 N.am   94  PRO94      -0.2726
     60  CA         1.3510   20.5680   26.7770 C.3    94  PRO94       0.1402
     61  C          0.6380   20.7530   25.4620 C.2    94  PRO94       0.2269
     62  O         -0.5590   21.0620   25.4150 O.2    94  PRO94      -0.2865
     63  CB         1.9710   21.8550   27.2780 C.3    94  PRO94       0.0296
     64  CG         3.2270   21.4470   27.9810 C.3    94  PRO94       0.0237
     65  CD         3.7400   20.2810   27.1630 C.3    94  PRO94       0.0939
     66  N          5.9410   12.8290   20.7060 N.3   111  SER111     -0.1202
     67  CA         7.2970   12.8970   21.3530 C.3   111  SER111      0.2020
     68  C          7.1070   13.7480   22.6130 C.2   111  SER111      0.2619
     69  O          7.2610   14.9630   22.6740 O.2   111  SER111     -0.2717
     70  CB         8.3540   13.4510   20.4180 C.3   111  SER111      0.2103
     71  OG         8.5150   12.6340   19.2930 O.3   111  SER111     -0.2182
     72  N          6.5850   13.0660   23.6280 N.am  112  ALA112     -0.1965
     73  CA         6.0550   13.6010   24.8390 C.3   112  ALA112      0.1728
     74  C          5.7040   12.4150   25.7370 C.2   112  ALA112      0.2616
     75  O          5.1370   11.4470   25.2560 O.2   112  ALA112     -0.2715
     76  CB         4.8300   14.4060   24.5710 C.3   112  ALA112      0.0334
     77  N          6.0870   12.4730   26.9780 N.am  113  TRP113     -0.1974
     78  CA         6.0020   11.3150   27.8390 C.3   113  TRP113      0.1640
     79  C          5.3170   11.5640   29.1880 C.2   113  TRP113      0.2290
     80  O          5.5260   10.8540   30.1380 O.2   113  TRP113     -0.2864
     81  CB         7.3870   10.6510   27.9550 C.3   113  TRP113      0.0576
     82  CG         7.8520   10.1480   26.6320 C.ar  113  TRP113      0.0006
     83  CD1        7.4330    9.0110   26.0790 C.ar  113  TRP113      0.0946
     84  CD2        8.6610   10.8140   25.6260 C.ar  113  TRP113      0.0152
     85  NE1        7.9410    8.8510   24.8140 N.ar  113  TRP113     -0.2442
     86  CE2        8.6760    9.9850   24.5010 C.ar  113  TRP113      0.0810
     87  CE3        9.3290   12.0330   25.5620 C.ar  113  TRP113      0.0012
     88  CZ2        9.3790   10.3130   23.3360 C.ar  113  TRP113      0.0191
     89  CZ3       10.0250   12.3440   24.4250 C.ar  113  TRP113      0.0001
     90  CH2       10.0510   11.4930   23.3320 C.ar  113  TRP113      0.0015
     91  N          4.9020    6.4160   23.8360 N.3   126  THR126     -0.1218
     92  CA         5.9510    5.4160   23.6400 C.3   126  THR126      0.1862
     93  C          6.8380    5.3080   24.8720 C.2   126  THR126      0.2287
     94  O          6.7830    6.1770   25.7390 O.2   126  THR126     -0.2866
     95  CB         6.7960    5.7750   22.4230 C.3   126  THR126      0.1770
     96  OG1        7.3510    7.0680   22.6210 O.3   126  THR126     -0.2211
     97  CG2        5.9560    5.7600   21.1320 C.3   126  THR126      0.0375
     98  N          7.4980   10.0670   32.1980 N.3   130  TYR130     -0.1241
     99  CA         8.5420   10.8490   32.8310 C.3   130  TYR130      0.1605
    100  C          8.7900   10.5140   34.2750 C.2   130  TYR130      0.2264
    101  O          9.8820   10.5750   34.8000 O.2   130  TYR130     -0.2867
    102  CB         8.2290   12.3220   32.7390 C.3   130  TYR130      0.0534
    103  CG         8.3680   12.9180   31.3760 C.ar  130  TYR130     -0.0201
    104  CD1        9.5340   12.7610   30.5940 C.ar  130  TYR130     -0.0009
    105  CD2        7.3430   13.6280   30.8200 C.ar  130  TYR130     -0.0009
    106  CE1        9.6450   13.3420   29.3420 C.ar  130  TYR130      0.0417
    107  CE2        7.4700   14.2170   29.5720 C.ar  130  TYR130      0.0417
    108  CZ         8.6370   14.0760   28.8290 C.ar  130  TYR130      0.1957
    109  OH         8.8230   14.6340   27.5780 O.3   130  TYR130     -0.2866
    110  N          5.0010   18.1380   31.4770 N.3   160  TYR160     -0.1241
    111  CA         6.3120   17.4800   31.3250 C.3   160  TYR160      0.1605
    112  C          7.0470   17.5320   32.6720 C.2   160  TYR160      0.2264
    113  O          7.2510   16.4950   33.3080 O.2   160  TYR160     -0.2867
    114  CB         7.1080   18.1390   30.1800 C.3   160  TYR160      0.0534
    115  CG         8.5960   17.9290   30.1720 C.ar  160  TYR160     -0.0201
    116  CD1        9.2170   16.8020   30.6770 C.ar  160  TYR160     -0.0009
    117  CD2        9.4160   18.8720   29.5740 C.ar  160  TYR160     -0.0009
    118  CE1       10.5990   16.6370   30.6290 C.ar  160  TYR160      0.0417
    119  CE2       10.7840   18.6980   29.4710 C.ar  160  TYR160      0.0417
    120  CZ        11.3750   17.6040   29.9960 C.ar  160  TYR160      0.1957
    121  OH        12.7480   17.4040   29.9160 O.3   160  TYR160     -0.2866
    122  N         14.6490   13.0650   29.4100 N.3   233  ASN233     -0.1225
    123  CA        15.2140   12.5580   28.1590 C.3   233  ASN233      0.1785
    124  C         15.5420   13.5830   27.1080 C.2   233  ASN233      0.2597
    125  O         16.3220   13.3000   26.1940 O.2   233  ASN233     -0.2718
    126  CB        14.3760   11.4120   27.5740 C.3   233  ASN233      0.1169
    127  CG        12.9960   11.8290   27.1100 C.2   233  ASN233      0.2627
    128  OD1       12.8210   12.9210   26.6110 O.2   233  ASN233     -0.2716
    129  ND2       12.0280   10.9190   27.2350 N.am  233  ASN233     -0.0877
    130  N         15.0010   14.7890   27.2150 N.am  234  SER234     -0.1952
    131  CA        15.1810   15.8290   26.2050 C.3   234  SER234      0.1924
    132  C         16.0580   16.9600   26.6810 C.2   234  SER234      0.2314
    133  O         16.2240   17.9640   25.9550 O.2   234  SER234     -0.2863
    134  CB        13.8490   16.3840   25.7350 C.3   234  SER234      0.2116
    135  OG        13.2060   17.0850   26.7830 O.3   234  SER234     -0.2180
    136  N         16.3850    7.9480   30.1300 N.3   257  THR257     -0.1203
    137  CA        15.6100    7.8750   28.9180 C.3   257  THR257      0.1994
    138  C         15.2880    6.4410   28.5660 C.2   257  THR257      0.2618
    139  O         16.1380    5.5620   28.7410 O.2   257  THR257     -0.2717
    140  CB        16.3960    8.5070   27.7390 C.3   257  THR257      0.1784
    141  OG1       15.6190    8.3520   26.5550 O.3   257  THR257     -0.2211
    142  CG2       17.7800    7.9130   27.5480 C.3   257  THR257      0.0376
    143  N         14.0910    6.1860   28.0480 N.am  258  ALA258     -0.1965
    144  CA        13.7250    4.8740   27.5580 C.3   258  ALA258      0.1728
    145  C         14.3460    4.5590   26.1900 C.2   258  ALA258      0.2616
    146  O         14.2790    3.4320   25.7480 O.2   258  ALA258     -0.2715
    147  CB        12.2170    4.7530   27.4150 C.3   258  ALA258      0.0334
    148  N         14.8870    5.5800   25.5050 N.am  259  GLY259     -0.1955
    149  CA        15.4320    5.4130   24.1640 C.3   259  GLY259      0.1869
    150  C         16.9240    5.1570   24.1390 C.2   259  GLY259      0.2309
    151  O         17.6830    5.7670   24.8700 O.2   259  GLY259     -0.2863
    152  N         19.5160   11.4940   19.4940 N.3   286  SER286     -0.1202
    153  CA        18.5690   10.4980   19.9690 C.3   286  SER286      0.2020
    154  C         17.1670   10.7770   19.3960 C.2   286  SER286      0.2619
    155  O         16.3300    9.8840   19.3470 O.2   286  SER286     -0.2717
    156  CB        18.6130   10.4410   21.4760 C.3   286  SER286      0.2103
    157  OG        19.8630    9.9290   21.9090 O.3   286  SER286     -0.2182
    158  N         16.9120   11.9950   18.9020 N.am  287  GLY287     -0.1956
    159  CA        15.7000   12.2820   18.1900 C.3   287  GLY287      0.1869
    160  C         15.5790   11.5350   16.8720 C.2   287  GLY287      0.2309
    161  O         14.4810   11.1930   16.4190 O.2   287  GLY287     -0.2863
    162  N         14.1110    8.2690   17.8020 N.3   290  ASN290     -0.1240
    163  CA        12.7300    8.4730   18.1490 C.3   290  ASN290      0.1653
    164  C         11.8330    8.6460   16.9460 C.2   290  ASN290      0.2266
    165  O         10.7620    8.0520   16.8510 O.2   290  ASN290     -0.2867
    166  CB        12.6080    9.6860   19.0860 C.3   290  ASN290      0.1155
    167  CG        11.1840    9.9390   19.5350 C.2   290  ASN290      0.2627
    168  OD1       10.5030    9.0630   20.1300 O.2   290  ASN290     -0.2716
    169  ND2       10.7400   11.0960   19.2910 N.am  290  ASN290     -0.0877
@<TRIPOS>BOND
     1    24    23    2
     2    23    22    1
     3    21    22    1
     4    22    25    1
     5    27    25    1
     6    25    26    1
     7   161   160    2
     8    16    15    2
     9   165   164    2
    10   160   159    1
    11   164   163    1
    12    26    28    1
    13    15    14    1
    14   162   163    1
    15    13    14    1
    16    14    17    1
    17   163   166    1
    18   159   158    1
    19    41    42    1
    20     4     3    2
    21   158   154   am
    22   166   167    1
    23    45    42    1
    24    45    46    1
    25   169   167   am
    26    71    70    1
    27    47    46    1
    28   155   154    2
    29   154   153    1
    30     3     2    1
    31   152   153    1
    32   167   168    2
    33    17    18    1
    34    42    43    1
    35   153   156    1
    36    29    30    1
    37    46    48    1
    38    20    18    1
    39    18    19    1
    40    70    67    1
    41    66    67    1
    42    44    43    2
    43     2     5    1
    44     2     1    1
    45    43    49   am
    46    97    95    1
    47     5     6    1
    48    67    68    1
    49    30    31    1
    50    30    33    1
    51   156   157    1
    52    31    32    2
    53    49    50    1
    54    33    34    1
    55    95    96    1
    56    95    92    1
    57    68    69    2
    58    68    72   am
    59     6     7   ar
    60     6     8   ar
    61    35    34   ar
    62    35    37   ar
    63     7     9   ar
    64    90    88   ar
    65    90    89   ar
    66    88    86   ar
    67    50    51    1
    68    34    36   ar
    69     8    10   ar
    70    72    73    1
    71    92    91    1
    72    92    93    1
    73    52    51    2
    74   150   149    1
    75   150   151    2
    76   149   148    1
    77    51    53   am
    78    37    39   ar
    79    89    87   ar
    80    86    85   ar
    81    86    84   ar
    82    76    73    1
    83     9    11   ar
    84    36    38   ar
    85    85    83   ar
    86    73    74    1
    87    93    94    2
    88    10    11   ar
    89    75    74    2
    90    62    61    2
    91    61    60    1
    92    11    12    1
    93   148   145   am
    94    53    54    1
    95    87    84   ar
    96    39    38   ar
    97    39    40    1
    98    84    82   ar
    99   134   131    1
   100   134   135    1
   101    74    77   am
   102   146   145    2
   103   133   132    2
   104    83    82   ar
   105   145   144    1
   106   125   124    2
   107   131   132    1
   108   131   130    1
   109    56    55    2
   110    54    55    1
   111    54    57    1
   112    55    59   am
   113   141   140    1
   114   128   127    2
   115    82    81    1
   116    59    60    1
   117    59    65    1
   118    60    63    1
   119    77    78    1
   120   124   130   am
   121   124   123    1
   122   127   129   am
   123   127   126    1
   124    65    64    1
   125    63    64    1
   126   147   144    1
   127   142   140    1
   128   144   143    1
   129   126   123    1
   130   109   108    1
   131    58    57    1
   132   140   137    1
   133    78    81    1
   134    78    79    1
   135   143   138   am
   136   123   122    1
   137   138   139    2
   138   138   137    1
   139   108   106   ar
   140   108   107   ar
   141   137   136    1
   142    79    80    2
   143   106   104   ar
   144   119   117   ar
   145   119   120   ar
   146   107   105   ar
   147   117   115   ar
   148   121   120    1
   149   120   118   ar
   150   115   114    1
   151   115   116   ar
   152   114   111    1
   153   104   103   ar
   154   118   116   ar
   155   105   103   ar
   156   111   110    1
   157   111   112    1
   158   103   102    1
   159    98    99    1
   160   112   113    2
   161   102    99    1
   162    99   100    1
   163   100   101    2
