@<TRIPOS>MOLECULE
tmp/4n07A00.pdb
 78 76 0 0 0
SMALL
GASTEIGER

@<TRIPOS>ATOM
      1  N          3.7760   -0.3050   34.1120 N.3   104  LYS104     -0.1231
      2  CA         3.1330   -0.6150   35.3800 C.3   104  LYS104      0.1678
      3  C          4.0140   -0.0740   36.5170 C.2   104  LYS104      0.2434
      4  O          5.2290    0.0950   36.3510 O.2   104  LYS104     -0.2733
      5  CB         2.9570   -2.1280   35.5250 C.3   104  LYS104      0.0284
      6  CG         1.8690   -2.7240   34.6150 C.3   104  LYS104      0.0035
      7  CD         0.4850   -2.2940   35.0880 C.3   104  LYS104      0.0206
      8  CE        -0.5960   -2.9830   34.2760 C.3   104  LYS104      0.1093
      9  NZ        -0.4310   -2.6930   32.8200 N.3   104  LYS104     -0.1314
     10  N          3.4130    0.2020   37.6830 N.am  105  PRO105     -0.2718
     11  CA         4.1990    0.8820   38.7180 C.3   105  PRO105      0.1535
     12  C          5.3190    0.0310   39.2960 C.2   105  PRO105      0.2599
     13  O          5.1420   -1.1830   39.5020 O.2   105  PRO105     -0.2715
     14  CB         3.1600    1.1950   39.8090 C.3   105  PRO105      0.0310
     15  CG         2.0580    0.1770   39.6000 C.3   105  PRO105      0.0237
     16  CD         2.0150   -0.0260   38.0970 C.3   105  PRO105      0.0939
     17  N          6.4570    0.6690   39.5740 N.am  106  PHE106     -0.1960
     18  CA         7.5580   -0.0180   40.2400 C.3   106  PHE106      0.1771
     19  C          7.6440    0.3180   41.7290 C.2   106  PHE106      0.2619
     20  O          8.4020   -0.3190   42.4620 O.2   106  PHE106     -0.2715
     21  CB         8.9040    0.2580   39.5510 C.3   106  PHE106      0.0574
     22  CG         9.3510    1.6960   39.6060 C.ar  106  PHE106     -0.0200
     23  CD1       10.0080    2.2030   40.7270 C.ar  106  PHE106     -0.0042
     24  CD2        9.1460    2.5360   38.5260 C.ar  106  PHE106     -0.0042
     25  CE1       10.4250    3.5330   40.7760 C.ar  106  PHE106     -0.0003
     26  CE2        9.5630    3.8540   38.5630 C.ar  106  PHE106     -0.0003
     27  CZ        10.2060    4.3610   39.6870 C.ar  106  PHE106     -0.0000
     28  N          6.8680    1.3030   42.1720 N.am  107  MET107     -0.1963
     29  CA         6.8400    1.6750   43.5900 C.3   107  MET107      0.1736
     30  C          5.5210    2.3890   43.8990 C.2   107  MET107      0.2617
     31  O          5.0630    3.2020   43.0990 O.2   107  MET107     -0.2715
     32  CB         8.0380    2.5700   43.9320 C.3   107  MET107      0.0427
     33  CG         8.1290    2.9280   45.4340 C.3   107  MET107      0.0599
     34  SD         9.5980    3.9070   45.8680 S.3   107  MET107     -0.1393
     35  CE        10.9060    2.7850   45.4690 C.3   107  MET107      0.0692
     36  N          4.9000    2.0640   45.0360 N.am  108  SER108     -0.1950
     37  CA         3.6480    2.6900   45.4750 C.3   108  SER108      0.1924
     38  C          3.9200    3.8920   46.3680 C.2   108  SER108      0.2314
     39  O          4.8880    3.8920   47.1360 O.2   108  SER108     -0.2863
     40  CB         2.8090    1.6870   46.2780 C.3   108  SER108      0.2116
     41  OG         2.5610    0.5140   45.5380 O.3   108  SER108     -0.2180
     42  N          9.5300   -4.4850   34.4180 N.3   238  VAL238     -0.1231
     43  CA         9.1010   -4.0290   35.7460 C.3   238  VAL238      0.1692
     44  C          8.3270   -5.1240   36.4640 C.2   238  VAL238      0.2591
     45  O          8.5630   -5.3930   37.6470 O.2   238  VAL238     -0.2718
     46  CB         8.2490   -2.7610   35.6590 C.3   238  VAL238      0.0266
     47  CG1        7.6420   -2.4170   37.0280 C.3   238  VAL238      0.0020
     48  CG2        9.0990   -1.5980   35.1420 C.3   238  VAL238      0.0020
     49  N          7.4070   -5.7640   35.7570 N.am  239  LEU239     -0.1980
     50  CA         6.5940   -6.8150   36.3690 C.3   239  LEU239      0.1596
     51  C          7.4540   -8.0310   36.7290 C.2   239  LEU239      0.2287
     52  O          7.1900   -8.7050   37.7260 O.2   239  LEU239     -0.2864
     53  CB         5.4320   -7.2080   35.4510 C.3   239  LEU239      0.0297
     54  CG         4.3630   -6.1380   35.1830 C.3   239  LEU239      0.0022
     55  CD1        3.2520   -6.7250   34.3220 C.3   239  LEU239      0.0001
     56  CD2        3.7990   -5.5970   36.5000 C.3   239  LEU239      0.0001
     57  N          9.3220   -7.0610   39.7920 N.3   242  SER242     -0.1217
     58  CA         8.3790   -7.0870   40.9110 C.3   242  SER242      0.1889
     59  C          8.2040   -8.5130   41.4460 C.2   242  SER242      0.2288
     60  O          8.3620   -8.7720   42.6440 O.2   242  SER242     -0.2866
     61  CB         7.0210   -6.5380   40.4650 C.3   242  SER242      0.2089
     62  OG         6.1240   -6.4950   41.5680 O.3   242  SER242     -0.2183
     63  N         12.3980   -5.4330   43.4480 N.3   247  LEU247     -0.1231
     64  CA        11.9210   -4.0970   43.8290 C.3   247  LEU247      0.1693
     65  C         11.8110   -3.9320   45.3540 C.2   247  LEU247      0.2592
     66  O         12.1770   -2.8790   45.9000 O.2   247  LEU247     -0.2718
     67  CB        10.5950   -3.7720   43.1340 C.3   247  LEU247      0.0284
     68  CG        10.5960   -3.8250   41.6070 C.3   247  LEU247      0.0019
     69  CD1        9.1950   -3.5240   41.0900 C.3   247  LEU247      0.0001
     70  CD2       11.5960   -2.8640   41.0070 C.3   247  LEU247      0.0001
     71  N         11.3270   -4.9700   46.0450 N.am  248  ASP248     -0.1974
     72  CA        11.2980   -4.9600   47.5150 C.3   248  ASP248      0.1709
     73  C         12.7160   -4.8570   48.0950 C.2   248  ASP248      0.2293
     74  O         12.9760   -4.0900   49.0260 O.2   248  ASP248     -0.2864
     75  CB        10.6030   -6.2170   48.0600 C.3   248  ASP248      0.1436
     76  CG         9.1190   -6.2720   47.7150 C.2   248  ASP248      0.3671
     77  OD1        8.4440   -5.2280   47.7940 O.co2 248  ASP248     -0.2456
     78  OD2        8.6300   -7.3690   47.3560 O.co2 248  ASP248     -0.2456
@<TRIPOS>BOND
     1     9     8    1
     2     1     2    1
     3     8     7    1
     4    55    54    1
     5    42    43    1
     6     6     7    1
     7     6     5    1
     8    48    46    1
     9    54    53    1
    10    54    56    1
    11     2     5    1
    12     2     3    1
    13    53    50    1
    14    46    43    1
    15    46    47    1
    16    43    44    1
    17    49    50    1
    18    49    44   am
    19     4     3    2
    20    50    51    1
    21    44    45    2
    22     3    10   am
    23    51    52    2
    24    10    16    1
    25    10    11    1
    26    16    15    1
    27    24    26   ar
    28    24    22   ar
    29    26    27   ar
    30    11    12    1
    31    11    14    1
    32    12    13    2
    33    12    17   am
    34    21    22    1
    35    21    18    1
    36    17    18    1
    37    15    14    1
    38    22    23   ar
    39    27    25   ar
    40    57    58    1
    41    18    19    1
    42    61    58    1
    43    61    62    1
    44    23    25   ar
    45    58    59    1
    46    70    68    1
    47    69    68    1
    48    59    60    2
    49    68    67    1
    50    19    28   am
    51    19    20    2
    52    28    29    1
    53    31    30    2
    54    67    64    1
    55    63    64    1
    56    29    30    1
    57    29    32    1
    58    64    65    1
    59    30    36   am
    60    32    33    1
    61    36    37    1
    62    65    66    2
    63    65    71   am
    64    33    34    1
    65    35    34    1
    66    37    40    1
    67    37    38    1
    68    41    40    1
    69    71    72    1
    70    38    39    2
    71    78    76   ar
    72    72    75    1
    73    72    73    1
    74    76    77   ar
    75    76    75    1
    76    73    74    2
