@<TRIPOS>MOLECULE
tmp/4n09B00.pdb
 155 141 0 0 0
SMALL
GASTEIGER

@<TRIPOS>ATOM
      1  N         10.2530    2.8370   16.5260 N.3    12  CYS12      -0.1221
      2  CA        10.5680    4.1610   17.0280 C.3    12  CYS12       0.1808
      3  C         10.9060    5.0690   15.8450 C.2    12  CYS12       0.2601
      4  O         10.7110    4.6920   14.7140 O.2    12  CYS12      -0.2717
      5  CB        11.7280    4.1010   18.0190 C.3    12  CYS12       0.0970
      6  SG        11.9560    5.5880   19.0350 S.3    12  CYS12      -0.0800
      7  N         11.4090    6.2520   16.1410 N.am   13  ASN13      -0.1974
      8  CA        11.7620    7.2260   15.1640 C.3    13  ASN13       0.1688
      9  C         13.2750    7.1970   14.9950 C.2    13  ASN13       0.2292
     10  O         13.9990    7.6020   15.8880 O.2    13  ASN13      -0.2864
     11  CB        11.3360    8.5810   15.6660 C.3    13  ASN13       0.1181
     12  CG         9.8500    8.6190   16.0040 C.2    13  ASN13       0.2629
     13  OD1        9.0400    7.9700   15.3400 O.2    13  ASN13      -0.2716
     14  ND2        9.4860    9.3790   17.0240 N.am   13  ASN13      -0.0877
     15  N         16.6610    8.6450   14.1660 N.3    15  LEU15      -0.1245
     16  CA        17.1520    9.9990   14.0690 C.3    15  LEU15       0.1561
     17  C         18.6640    9.9880   14.1170 C.2    15  LEU15       0.2260
     18  O         19.2710    9.1950   14.8330 O.2    15  LEU15      -0.2867
     19  CB        16.6790   10.8430   15.2530 C.3    15  LEU15       0.0270
     20  CG        15.1880   10.8830   15.5480 C.3    15  LEU15       0.0019
     21  CD1       14.9570   11.6900   16.8110 C.3    15  LEU15       0.0001
     22  CD2       14.4120   11.4400   14.3720 C.3    15  LEU15       0.0001
     23  N         21.8170   11.8510   15.4310 N.3    17  ASP17      -0.1239
     24  CA        22.1820   12.7950   16.4880 C.3    17  ASP17       0.1674
     25  C         23.3090   13.7030   16.0270 C.2    17  ASP17       0.2266
     26  O         24.4090   13.2370   15.6600 O.2    17  ASP17      -0.2867
     27  CB        22.5970   12.0650   17.7810 C.3    17  ASP17       0.1410
     28  CG        21.4090   11.4180   18.5140 C.2    17  ASP17       0.3668
     29  OD1       20.2450   11.7810   18.2040 O.co2  17  ASP17      -0.2456
     30  OD2       21.6580   10.5820   19.4250 O.co2  17  ASP17      -0.2456
     31  N         14.2580   16.5720   26.7590 N.3    37  ALA37      -0.1231
     32  CA        14.0220   16.3490   25.3440 C.3    37  ALA37       0.1694
     33  C         12.7170   17.0150   24.9550 C.2    37  ALA37       0.2592
     34  O         11.7370   16.9030   25.6770 O.2    37  ALA37      -0.2718
     35  CB        13.9560   14.8650   25.0460 C.3    37  ALA37       0.0304
     36  N         12.7130   17.6880   23.8020 N.am   38  ILE38      -0.1966
     37  CA        11.5000   18.2450   23.2170 C.3    38  ILE38       0.1727
     38  C         11.4650   17.9700   21.7400 C.2    38  ILE38       0.2616
     39  O         12.4280   17.4700   21.1830 O.2    38  ILE38      -0.2715
     40  CB        11.4000   19.7600   23.4350 C.3    38  ILE38       0.0290
     41  CG1       12.5980   20.4500   22.7980 C.3    38  ILE38       0.0022
     42  CG2       11.3480   20.0840   24.9240 C.3    38  ILE38       0.0023
     43  CD1       12.4010   21.9370   22.6420 C.3    38  ILE38       0.0001
     44  N         10.3410   18.2860   21.1150 N.am   39  LEU39      -0.1977
     45  CA        10.2590   18.3070   19.6540 C.3    39  LEU39       0.1596
     46  C         10.5810   19.7210   19.1730 C.2    39  LEU39       0.2287
     47  O         10.1930   20.7180   19.8250 O.2    39  LEU39      -0.2864
     48  CB         8.8540   17.9310   19.1600 C.3    39  LEU39       0.0297
     49  CG         8.3780   16.5230   19.4510 C.3    39  LEU39       0.0022
     50  CD1        6.9870   16.3370   18.9000 C.3    39  LEU39       0.0001
     51  CD2        9.2800   15.4490   18.8760 C.3    39  LEU39       0.0001
     52  N         21.3640    7.7740   16.0400 N.3    62  GLY62      -0.1210
     53  CA        20.6520    7.7700   17.3030 C.3    62  GLY62       0.1956
     54  C         19.2380    7.2830   17.1550 C.2    62  GLY62       0.2612
     55  O         18.9740    6.3770   16.3950 O.2    62  GLY62      -0.2717
     56  N         18.3280    7.9320   17.8540 N.am   63  GLY63      -0.1942
     57  CA        16.9520    7.4630   17.9500 C.3    63  GLY63       0.2014
     58  C         16.8220    6.5670   19.1570 C.2    63  GLY63       0.2639
     59  O         17.5930    5.6030   19.3090 O.2    63  GLY63      -0.2714
     60  N         15.8890    6.9040   20.0540 N.am   64  SER64      -0.1949
     61  CA        15.7540    6.1930   21.3320 C.3    64  SER64       0.1924
     62  C         15.5500    4.7010   21.1640 C.2    64  SER64       0.2314
     63  O         16.2920    3.8800   21.7290 O.2    64  SER64      -0.2863
     64  CB        14.5750    6.7420   22.1040 C.3    64  SER64       0.2116
     65  OG        14.4490    6.1230   23.3670 O.3    64  SER64      -0.2180
     66  N         18.6250    3.0010   19.6350 N.3    67  ASN67      -0.1240
     67  CA        19.6200    2.7130   20.6530 C.3    67  ASN67       0.1653
     68  C         19.2230    1.4950   21.4580 C.2    67  ASN67       0.2266
     69  O         20.0750    0.6620   21.7860 O.2    67  ASN67      -0.2867
     70  CB        19.8000    3.8660   21.6380 C.3    67  ASN67       0.1155
     71  CG        20.3340    5.1380   20.9960 C.2    67  ASN67       0.2627
     72  OD1       21.0170    5.1170   19.9850 O.2    67  ASN67      -0.2716
     73  ND2       19.9690    6.2580   21.5760 N.am   67  ASN67      -0.0877
     74  N         18.3380   14.8410   15.5500 N.3   123  CYS123     -0.1235
     75  CA        18.1830   15.3440   16.8780 C.3   123  CYS123      0.1677
     76  C         19.3910   16.2110   17.2400 C.2   123  CYS123      0.2270
     77  O         20.5190   15.7650   17.1840 O.2   123  CYS123     -0.2867
     78  CB        18.0790   14.1790   17.8500 C.3   123  CYS123      0.0956
     79  SG        17.6170   14.6760   19.5160 S.3   123  CYS123     -0.0801
     80  N         18.1120   17.6680   24.3720 N.3   134  LEU134     -0.1245
     81  CA        17.7560   17.0960   23.0620 C.3   134  LEU134      0.1561
     82  C         16.6280   17.8420   22.3470 C.2   134  LEU134      0.2260
     83  O         15.5970   18.1420   22.9370 O.2   134  LEU134     -0.2867
     84  CB        17.3450   15.6540   23.2280 C.3   134  LEU134      0.0270
     85  CG        18.2920   14.8530   24.0930 C.3   134  LEU134      0.0019
     86  CD1       17.8420   13.3970   24.2080 C.3   134  LEU134      0.0001
     87  CD2       19.7120   14.9020   23.5640 C.3   134  LEU134      0.0001
     88  N         14.4060   17.2930   18.9350 N.3   136  ALA136     -0.1245
     89  CA        14.2110   16.2860   17.8900 C.3   136  ALA136      0.1562
     90  C         13.4290   16.8530   16.7390 C.2   136  ALA136      0.2260
     91  O         12.3640   17.4170   16.9360 O.2   136  ALA136     -0.2867
     92  CB        13.5040   15.0630   18.4460 C.3   136  ALA136      0.0290
     93  N         11.8550   15.3590   13.6380 N.3   138  LEU138     -0.1245
     94  CA        11.5160   14.0350   13.1300 C.3   138  LEU138      0.1561
     95  C         11.6430   13.8940   11.6230 C.2   138  LEU138      0.2260
     96  O         12.0490   12.8450   11.1500 O.2   138  LEU138     -0.2867
     97  CB        10.1130   13.6780   13.5740 C.3   138  LEU138      0.0270
     98  CG         9.9290   12.9000   14.8900 C.3   138  LEU138      0.0019
     99  CD1       10.8340   13.3850   15.9970 C.3   138  LEU138      0.0001
    100  CD2        8.4780   12.9270   15.3310 C.3   138  LEU138      0.0001
    101  N          7.7960    7.9700   22.4130 N.3   169  PHE169     -0.1241
    102  CA         7.9990    8.8980   21.3480 C.3   169  PHE169      0.1605
    103  C          7.2160    8.5770   20.0570 C.2   169  PHE169      0.2264
    104  O          6.9640    9.4880   19.2740 O.2   169  PHE169     -0.2867
    105  CB         9.4810    8.9280   20.9780 C.3   169  PHE169      0.0534
    106  CG        10.3740    9.6470   21.9510 C.ar  169  PHE169     -0.0203
    107  CD1       10.0750   10.9260   22.3940 C.ar  169  PHE169     -0.0042
    108  CD2       11.5670    9.0690   22.3480 C.ar  169  PHE169     -0.0042
    109  CE1       10.8960   11.5740   23.3020 C.ar  169  PHE169     -0.0003
    110  CE2       12.4120    9.7290   23.2270 C.ar  169  PHE169     -0.0003
    111  CZ        12.0780   10.9890   23.7080 C.ar  169  PHE169     -0.0000
    112  N          3.7410   10.4380   19.0690 N.3   172  THR172     -0.1218
    113  CA         3.5770   11.7450   18.4110 C.3   172  THR172      0.1862
    114  C          3.3850   11.6110   16.9040 C.2   172  THR172      0.2287
    115  O          3.0240   12.5710   16.2430 O.2   172  THR172     -0.2866
    116  CB         4.7330   12.7190   18.6780 C.3   172  THR172      0.1770
    117  OG1        5.8520   12.3940   17.8590 O.3   172  THR172     -0.2211
    118  CG2        5.1320   12.6930   20.1600 C.3   172  THR172      0.0375
    119  N          6.9180   15.3790   28.1710 N.3   200  PHE200     -0.1241
    120  CA         6.0000   16.0410   27.2380 C.3   200  PHE200      0.1605
    121  C          4.9990   15.0820   26.6190 C.2   200  PHE200      0.2264
    122  O          3.9030   15.4890   26.2600 O.2   200  PHE200     -0.2867
    123  CB         6.7410   16.8690   26.1830 C.3   200  PHE200      0.0534
    124  CG         7.2870   16.0890   25.0440 C.ar  200  PHE200     -0.0203
    125  CD1        6.4670   15.6350   24.0470 C.ar  200  PHE200     -0.0042
    126  CD2        8.6480   15.8500   24.9440 C.ar  200  PHE200     -0.0042
    127  CE1        6.9880   14.9360   22.9730 C.ar  200  PHE200     -0.0003
    128  CE2        9.1750   15.1500   23.8920 C.ar  200  PHE200     -0.0003
    129  CZ         8.3340   14.7040   22.8890 C.ar  200  PHE200     -0.0000
    130  N         23.1340   10.8680   29.5780 N.3   295  ASN295     -0.1225
    131  CA        22.2550   10.7450   28.4270 C.3   295  ASN295      0.1785
    132  C         22.2050    9.3400   27.8520 C.2   295  ASN295      0.2597
    133  O         23.2550    8.7150   27.6670 O.2   295  ASN295     -0.2718
    134  CB        22.7460   11.6480   27.3320 C.3   295  ASN295      0.1169
    135  CG        21.8120   11.6680   26.1630 C.2   295  ASN295      0.2627
    136  OD1       20.6720   12.1150   26.2850 O.2   295  ASN295     -0.2716
    137  ND2       22.2870   11.2200   25.0130 N.am  295  ASN295     -0.0877
    138  N         20.9910    8.8440   27.5910 N.am  296  GLY296     -0.1957
    139  CA        20.7680    7.4840   27.0700 C.3   296  GLY296      0.1869
    140  C         20.8560    6.3560   28.0750 C.2   296  GLY296      0.2309
    141  O         20.7360    5.1730   27.6870 O.2   296  GLY296     -0.2863
    142  N         17.7540    4.3210   27.6730 N.3   299  ASP299     -0.1239
    143  CA        17.7700    3.5040   26.4590 C.3   299  ASP299      0.1674
    144  C         18.6310    2.2990   26.6840 C.2   299  ASP299      0.2266
    145  O         18.2680    1.1760   26.3140 O.2   299  ASP299     -0.2867
    146  CB        18.3450    4.2440   25.2600 C.3   299  ASP299      0.1410
    147  CG        17.4580    5.4200   24.7890 C.2   299  ASP299      0.3668
    148  OD1       16.2490    5.4540   25.0950 O.co2 299  ASP299     -0.2456
    149  OD2       17.9920    6.3360   24.1240 O.co2 299  ASP299     -0.2456
    150  N         26.8740    7.1530   23.3070 N.3   335  CYS335     -0.1235
    151  CA        26.2610    5.8220   23.4330 C.3   335  CYS335      0.1677
    152  C         27.2890    4.7850   22.9570 C.2   335  CYS335      0.2270
    153  O         27.3110    4.3650   21.8110 O.2   335  CYS335     -0.2867
    154  CB        24.8150    5.7260   22.8540 C.3   335  CYS335      0.0956
    155  SG        23.5390    6.4430   24.0590 S.3   335  CYS335     -0.0801
@<TRIPOS>BOND
     1    96    95    2
     2    95    94    1
     3    94    97    1
     4    94    93    1
     5    97    98    1
     6    16    17    1
     7    16    15    1
     8    16    19    1
     9    17    18    2
    10    22    20    1
    11     4     3    2
    12    98   100    1
    13    98    99    1
    14     9     8    1
    15     9    10    2
    16     8    11    1
    17     8     7    1
    18    19    20    1
    19    13    12    2
    20    23    24    1
    21    20    21    1
    22    74    75    1
    23    26    25    2
    24    11    12    1
    25     3     7   am
    26     3     2    1
    27    12    14   am
    28    25    24    1
    29    52    53    1
    30   115   114    2
    31    55    54    2
    32    24    27    1
    33     1     2    1
    34    90    91    2
    35    90    89    1
    36    75    76    1
    37    75    78    1
    38   114   113    1
    39     2     5    1
    40    54    53    1
    41    54    56   am
    42    77    76    2
    43    27    28    1
    44    78    79    1
    45    56    57    1
    46   117   116    1
    47    89    92    1
    48    89    88    1
    49    57    58    1
    50     5     6    1
    51    29    28   ar
    52   113   116    1
    53   113   112    1
    54    28    30   ar
    55   116   118    1
    56    51    49    1
    57    50    49    1
    58    58    59    2
    59    58    60   am
    60    48    49    1
    61    48    45    1
    62    46    45    1
    63    46    47    2
    64   104   103    2
    65    66    67    1
    66    45    44    1
    67    72    71    2
    68    60    61    1
    69   103   102    1
    70    67    68    1
    71    67    70    1
    72   105   102    1
    73   105   106    1
    74    71    73   am
    75    71    70    1
    76    44    38   am
    77    62    61    1
    78    62    63    2
    79    39    38    2
    80    61    64    1
    81   102   101    1
    82    68    69    2
    83    38    37    1
    84   153   152    2
    85   106   108   ar
    86   106   107   ar
    87    64    65    1
    88    82    83    2
    89    82    81    1
    90   108   110   ar
    91   107   109   ar
    92    43    41    1
    93    41    40    1
    94   154   151    1
    95   154   155    1
    96   129   127   ar
    97   129   128   ar
    98   152   151    1
    99   127   125   ar
   100    81    84    1
   101    81    80    1
   102    37    40    1
   103    37    36    1
   104   110   111   ar
   105    84    85    1
   106   109   111   ar
   107   150   151    1
   108    40    42    1
   109    87    85    1
   110    36    33   am
   111   128   126   ar
   112   125   124   ar
   113    85    86    1
   114   149   147   ar
   115   147   148   ar
   116   147   146    1
   117   126   124   ar
   118    33    32    1
   119    33    34    2
   120   137   135   am
   121   124   123    1
   122    35    32    1
   123   146   143    1
   124    32    31    1
   125   135   136    2
   126   135   134    1
   127   123   120    1
   128   122   121    2
   129   145   144    2
   130   143   144    1
   131   143   142    1
   132   121   120    1
   133   139   138    1
   134   139   140    1
   135   120   119    1
   136   134   131    1
   137   138   132   am
   138   133   132    2
   139   141   140    2
   140   132   131    1
   141   131   130    1
