@<TRIPOS>MOLECULE
tmp/4n09B01.pdb
 181 172 0 0 0
SMALL
GASTEIGER

@<TRIPOS>ATOM
      1  N         11.4440    6.4740   33.8370 N.3   222  ASN222     -0.1225
      2  CA        12.2860    6.9880   34.9350 C.3   222  ASN222      0.1785
      3  C         11.4610    7.7750   35.9670 C.2   222  ASN222      0.2597
      4  O         10.2500    7.9520   35.8320 O.2   222  ASN222     -0.2718
      5  CB        13.4220    7.8340   34.3940 C.3   222  ASN222      0.1169
      6  CG        12.9440    9.1110   33.7510 C.2   222  ASN222      0.2627
      7  OD1       11.9210    9.6720   34.1160 O.2   222  ASN222     -0.2716
      8  ND2       13.6960    9.5910   32.7970 N.am  222  ASN222     -0.0877
      9  N         12.1390    8.2070   37.0110 N.am  223  ARG223     -0.1966
     10  CA        11.5460    8.9840   38.0990 C.3   223  ARG223      0.1729
     11  C         10.7040   10.1870   37.6120 C.2   223  ARG223      0.2616
     12  O          9.5770   10.3480   38.0170 O.2   223  ARG223     -0.2715
     13  CB        12.7060    9.4840   38.9750 C.3   223  ARG223      0.0348
     14  CG        12.3670    9.9930   40.3630 C.3   223  ARG223      0.0492
     15  CD        13.4250   11.0050   40.8270 C.3   223  ARG223      0.2205
     16  NE        14.7830   10.4500   40.8800 N.pl3 223  ARG223     -0.0865
     17  CZ        15.2970    9.7780   41.9130 C.cat 223  ARG223      0.5346
     18  NH1       14.5860    9.5420   43.0200 N.pl3 223  ARG223      0.1354
     19  NH2       16.5410    9.3410   41.8380 N.pl3 223  ARG223      0.1354
     20  N         11.2620   11.0430   36.7650 N.am  224  HIS224     -0.1959
     21  CA        10.5670   12.2500   36.3590 C.3   224  HIS224      0.1787
     22  C          9.3090   11.9120   35.5660 C.2   224  HIS224      0.2620
     23  O          8.2620   12.5040   35.7750 O.2   224  HIS224     -0.2715
     24  CB        11.5090   13.1760   35.5850 C.3   224  HIS224      0.0785
     25  CG        12.7130   13.5690   36.3830 C.ar  224  HIS224      0.0821
     26  ND1       13.9010   12.8620   36.3570 N.ar  224  HIS224     -0.2267
     27  CD2       12.8850   14.5580   37.2920 C.ar  224  HIS224      0.1154
     28  CE1       14.7630   13.4260   37.1830 C.ar  224  HIS224      0.1986
     29  NE2       14.1710   14.4540   37.7640 N.ar  224  HIS224     -0.2212
     30  N          9.4270   10.9520   34.6650 N.am  225  GLU225     -0.1977
     31  CA         8.3220   10.5340   33.8360 C.3   225  GLU225      0.1602
     32  C          7.2190    9.9440   34.6890 C.2   225  GLU225      0.2287
     33  O          6.0330   10.0940   34.3890 O.2   225  GLU225     -0.2864
     34  CB         8.8090    9.5200   32.8040 C.3   225  GLU225      0.0415
     35  CG         9.7180   10.1440   31.7410 C.3   225  GLU225      0.1163
     36  CD        10.7210    9.1720   31.0980 C.2   225  GLU225      0.3649
     37  OE1       10.6690    7.9350   31.3430 O.co2 225  GLU225     -0.2457
     38  OE2       11.5520    9.6650   30.2870 O.co2 225  GLU225     -0.2457
     39  N         12.9470    3.4220   36.8400 N.3   264  THR264     -0.1203
     40  CA        14.3160    3.5910   37.2500 C.3   264  THR264      0.1994
     41  C         14.4230    4.8780   38.0270 C.2   264  THR264      0.2618
     42  O         13.5500    5.7430   37.9560 O.2   264  THR264     -0.2717
     43  CB        15.2790    3.6080   36.0580 C.3   264  THR264      0.1784
     44  OG1       14.8920    4.6180   35.1110 O.3   264  THR264     -0.2211
     45  CG2       15.2820    2.2550   35.3760 C.3   264  THR264      0.0376
     46  N         15.5370    5.0200   38.7370 N.am  265  ARG265     -0.1965
     47  CA        15.7680    6.1640   39.6340 C.3   265  ARG265      0.1729
     48  C         17.2370    6.4850   39.7510 C.2   265  ARG265      0.2616
     49  O         17.7490    6.6490   40.8400 O.2   265  ARG265     -0.2715
     50  CB        15.2290    5.8490   41.0170 C.3   265  ARG265      0.0348
     51  CG        13.7320    5.6220   41.0140 C.3   265  ARG265      0.0492
     52  CD        13.1630    5.7480   42.4040 C.3   265  ARG265      0.2205
     53  NE        13.5440    4.6160   43.2380 N.pl3 265  ARG265     -0.0865
     54  CZ        13.1060    4.4220   44.4760 C.cat 265  ARG265      0.5346
     55  NH1       12.2830    5.2900   45.0120 N.pl3 265  ARG265      0.1354
     56  NH2       13.4920    3.3640   45.1700 N.pl3 265  ARG265      0.1354
     57  N         17.9050    6.5730   38.6150 N.am  266  ASP266     -0.1957
     58  CA        19.3270    6.8440   38.5660 C.3   266  ASP266      0.1840
     59  C         20.0910    6.0920   39.6610 C.2   266  ASP266      0.2621
     60  O         20.1870    4.8650   39.6150 O.2   266  ASP266     -0.2715
     61  CB        19.6380    8.3570   38.4800 C.3   266  ASP266      0.1450
     62  CG        18.9740    9.1910   39.5670 C.2   266  ASP266      0.3671
     63  OD1       17.8450    9.6810   39.3480 O.co2 266  ASP266     -0.2456
     64  OD2       19.6170    9.4030   40.6290 O.co2 266  ASP266     -0.2456
     65  N         20.6250    6.8010   40.6400 N.am  267  ILE267     -0.1977
     66  CA        21.4990    6.1970   41.6130 C.3   267  ILE267      0.1596
     67  C         20.7530    5.2950   42.5990 C.2   267  ILE267      0.2287
     68  O         21.3190    4.3700   43.1530 O.2   267  ILE267     -0.2864
     69  CB        22.3320    7.2680   42.2990 C.3   267  ILE267      0.0276
     70  CG1       23.5680    6.5930   42.8710 C.3   267  ILE267      0.0022
     71  CG2       21.5390    7.9820   43.3780 C.3   267  ILE267      0.0022
     72  CD1       24.4250    7.5060   43.7240 C.3   267  ILE267      0.0001
     73  N         15.7700    0.5800   41.5370 N.3   270  THR270     -0.1218
     74  CA        14.7350    0.5200   40.5450 C.3   270  THR270      0.1862
     75  C         13.4800   -0.0790   41.1790 C.2   270  THR270      0.2287
     76  O         13.5500   -1.0750   41.8730 O.2   270  THR270     -0.2866
     77  CB        15.2180   -0.2900   39.3500 C.3   270  THR270      0.1770
     78  OG1       16.2390    0.4690   38.6780 O.3   270  THR270     -0.2211
     79  CG2       14.1000   -0.5770   38.4030 C.3   270  THR270      0.0375
     80  N         20.7330   -0.6520   42.6240 N.3   283  VAL283     -0.1231
     81  CA        21.7120   -0.3230   41.6090 C.3   283  VAL283      0.1678
     82  C         23.1170   -0.5050   42.1760 C.2   283  VAL283      0.2434
     83  O         23.4700    0.1720   43.1360 O.2   283  VAL283     -0.2733
     84  CB        21.5420    1.1540   41.2060 C.3   283  VAL283      0.0265
     85  CG1       22.6480    1.5970   40.2790 C.3   283  VAL283      0.0020
     86  CG2       20.1770    1.3650   40.5570 C.3   283  VAL283      0.0020
     87  N         23.9280   -1.4050   41.6060 N.am  284  PRO284     -0.2729
     88  CA        25.2880   -1.6320   42.1160 C.3   284  PRO284      0.1401
     89  C         26.0700   -0.3600   42.3070 C.2   284  PRO284      0.2269
     90  O         25.9940    0.5330   41.4350 O.2   284  PRO284     -0.2865
     91  CB        25.9620   -2.4330   40.9890 C.3   284  PRO284      0.0296
     92  CG        24.8320   -3.0800   40.2510 C.3   284  PRO284      0.0237
     93  CD        23.6940   -2.1040   40.3330 C.3   284  PRO284      0.0939
     94  N         28.8270    2.4240   42.2630 N.3   286  LEU286     -0.1245
     95  CA        29.7280    2.8380   41.2200 C.3   286  LEU286      0.1561
     96  C         30.3150    4.1850   41.6500 C.2   286  LEU286      0.2260
     97  O         29.5770    5.0660   42.0620 O.2   286  LEU286     -0.2867
     98  CB        28.9490    2.9730   39.9060 C.3   286  LEU286      0.0270
     99  CG        29.6940    3.5530   38.7080 C.3   286  LEU286      0.0019
    100  CD1       30.7940    2.6270   38.2350 C.3   286  LEU286      0.0001
    101  CD2       28.7330    3.8680   37.5830 C.3   286  LEU286      0.0001
    102  N         31.1170    7.6730   41.6630 N.3   288  GLN288     -0.1245
    103  CA        30.4110    8.6940   40.8790 C.3   288  GLN288      0.1566
    104  C         31.3060    9.5700   40.0150 C.2   288  GLN288      0.2260
    105  O         30.8300   10.1850   39.0560 O.2   288  GLN288     -0.2867
    106  CB        29.5570    9.5640   41.7710 C.3   288  GLN288      0.0367
    107  CG        28.4190    8.7840   42.4180 C.3   288  GLN288      0.0905
    108  CD        27.5150    8.0730   41.4020 C.2   288  GLN288      0.2608
    109  OE1       26.7390    8.7210   40.6960 O.2   288  GLN288     -0.2717
    110  NE2       27.6360    6.7670   41.3000 N.am  288  GLN288     -0.0878
    111  N         31.1320    8.3680   36.4810 N.3   291  VAL291     -0.1245
    112  CA        29.8950    8.6670   35.7880 C.3   291  VAL291      0.1561
    113  C         30.0170   10.0030   35.1030 C.2   291  VAL291      0.2260
    114  O         30.0270   11.0360   35.7470 O.2   291  VAL291     -0.2867
    115  CB        28.7090    8.7380   36.7390 C.3   291  VAL291      0.0252
    116  CG1       27.4620    9.1340   35.9690 C.3   291  VAL291      0.0019
    117  CG2       28.4880    7.4040   37.4200 C.3   291  VAL291      0.0019
    118  N         25.1040   11.0550   31.5240 N.3   294  MET294     -0.1245
    119  CA        23.7960   10.5880   31.9100 C.3   294  MET294      0.1570
    120  C         22.8530   10.3090   30.7430 C.2   294  MET294      0.2261
    121  O         21.8780    9.6070   30.9050 O.2   294  MET294     -0.2867
    122  CB        23.1510   11.6540   32.7850 C.3   294  MET294      0.0387
    123  CG        23.8740   11.8980   34.1010 C.3   294  MET294      0.0595
    124  SD        24.0870   10.2780   34.9130 S.3   294  MET294     -0.1393
    125  CE        22.3950    9.8470   35.3130 C.3   294  MET294      0.0692
    126  N         20.9910    8.8440   27.5910 N.3   296  GLY296     -0.1210
    127  CA        20.7680    7.4840   27.0700 C.3   296  GLY296      0.1956
    128  C         20.8560    6.3560   28.0750 C.2   296  GLY296      0.2612
    129  O         20.7360    5.1730   27.6870 O.2   296  GLY296     -0.2717
    130  N         21.0270    6.6860   29.3660 N.am  297  ALA297     -0.1965
    131  CA        21.0830    5.6400   30.4090 C.3   297  ALA297      0.1728
    132  C         19.8410    4.7880   30.3490 C.2   297  ALA297      0.2616
    133  O         19.9130    3.5540   30.4160 O.2   297  ALA297     -0.2715
    134  CB        21.1970    6.2360   31.7780 C.3   297  ALA297      0.0334
    135  N         18.7020    5.4480   30.1750 N.am  298  GLY298     -0.1955
    136  CA        17.4260    4.7540   30.0540 C.3   298  GLY298      0.1869
    137  C         17.2980    3.8500   28.8370 C.2   298  GLY298      0.2309
    138  O         16.7980    2.7340   28.9620 O.2   298  GLY298     -0.2863
    139  N         19.3170    0.9300   29.6060 N.3   301  PHE301     -0.1241
    140  CA        18.6860    0.0720   30.5840 C.3   301  PHE301      0.1605
    141  C         17.6430   -0.8310   29.9010 C.2   301  PHE301      0.2264
    142  O         17.5810   -2.0300   30.1130 O.2   301  PHE301     -0.2867
    143  CB        18.0200    0.9260   31.6570 C.3   301  PHE301      0.0534
    144  CG        17.1670    0.1270   32.5900 C.ar  301  PHE301     -0.0203
    145  CD1       17.7310   -0.5140   33.6650 C.ar  301  PHE301     -0.0042
    146  CD2       15.8160   -0.0510   32.3340 C.ar  301  PHE301     -0.0042
    147  CE1       16.9700   -1.3140   34.4950 C.ar  301  PHE301     -0.0003
    148  CE2       15.0440   -0.8280   33.1680 C.ar  301  PHE301     -0.0003
    149  CZ        15.6250   -1.4630   34.2530 C.ar  301  PHE301     -0.0000
    150  N         20.6780   -2.6570   34.6100 N.3   323  HIS323     -0.1241
    151  CA        21.6510   -1.9040   35.4030 C.3   323  HIS323      0.1621
    152  C         23.0630   -2.0900   34.8920 C.2   323  HIS323      0.2264
    153  O         23.8010   -1.1400   34.7860 O.2   323  HIS323     -0.2867
    154  CB        21.6090   -2.3140   36.8460 C.3   323  HIS323      0.0745
    155  CG        20.3380   -1.9590   37.5300 C.ar  323  HIS323      0.0817
    156  ND1       19.9760   -2.4850   38.7510 N.ar  323  HIS323     -0.2268
    157  CD2       19.3430   -1.1150   37.1750 C.ar  323  HIS323      0.1154
    158  CE1       18.8080   -1.9820   39.1190 C.ar  323  HIS323      0.1986
    159  NE2       18.4050   -1.1420   38.1830 N.ar  323  HIS323     -0.2212
    160  N         23.2660   -0.0580   31.4570 N.3   326  ALA326     -0.1231
    161  CA        23.2100    1.3740   31.7070 C.3   326  ALA326      0.1694
    162  C         24.4900    1.8650   32.3440 C.2   326  ALA326      0.2591
    163  O         24.9460    2.9710   32.0600 O.2   326  ALA326     -0.2718
    164  CB        22.0510    1.6990   32.6000 C.3   326  ALA326      0.0304
    165  N         25.0570    1.0570   33.2220 N.am  327  GLN327     -0.1979
    166  CA        26.2840    1.4400   33.9210 C.3   327  GLN327      0.1601
    167  C         27.5030    1.3910   33.0130 C.2   327  GLN327      0.2287
    168  O         28.4600    2.1360   33.2250 O.2   327  GLN327     -0.2864
    169  CB        26.5020    0.6350   35.1980 C.3   327  GLN327      0.0394
    170  CG        25.5580    1.0850   36.2830 C.3   327  GLN327      0.0908
    171  CD        25.9420    0.5820   37.6480 C.2   327  GLN327      0.2608
    172  OE1       26.6210   -0.4180   37.7880 O.2   327  GLN327     -0.2717
    173  NE2       25.4330    1.2320   38.6660 N.am  327  GLN327     -0.0878
    174  N         27.0190    5.0100   30.9380 N.3   330  ILE330     -0.1245
    175  CA        27.2360    6.2710   31.6620 C.3   330  ILE330      0.1561
    176  C         28.7070    6.5350   31.9930 C.2   330  ILE330      0.2260
    177  O         29.0770    7.6650   32.2610 O.2   330  ILE330     -0.2867
    178  CB        26.3640    6.4010   32.9160 C.3   330  ILE330      0.0252
    179  CG1       26.7250    5.3330   33.9280 C.3   330  ILE330      0.0019
    180  CG2       24.9030    6.3280   32.5020 C.3   330  ILE330      0.0019
    181  CD1       25.8750    5.3630   35.1720 C.3   330  ILE330      0.0001
@<TRIPOS>BOND
     1   127   126    1
     2   127   128    1
     3   129   128    2
     4   128   130   am
     5   137   138    2
     6   137   136    1
     7   130   131    1
     8   139   140    1
     9   141   142    2
    10   141   140    1
    11   136   135    1
    12   135   132   am
    13    38    36   ar
    14   132   131    1
    15   132   133    2
    16   131   134    1
    17   140   143    1
    18   120   121    2
    19   120   119    1
    20   174   175    1
    21    36    37   ar
    22    36    35    1
    23   160   161    1
    24   118   119    1
    25   143   144    1
    26   175   176    1
    27   175   178    1
    28   161   162    1
    29   161   164    1
    30    35    34    1
    31   119   122    1
    32   176   177    2
    33   163   162    2
    34   146   144   ar
    35   146   148   ar
    36   162   165   am
    37   180   178    1
    38   144   145   ar
    39   122   123    1
    40     8     6   am
    41    34    31    1
    42   178   179    1
    43   167   168    2
    44   167   166    1
    45   148   149   ar
    46   165   166    1
    47   145   147   ar
    48     6     7    2
    49     6     5    1
    50    31    30    1
    51    31    32    1
    52     1     2    1
    53   166   169    1
    54   179   181    1
    55   123   124    1
    56   149   147   ar
    57    33    32    2
    58     5     2    1
    59   150   151    1
    60    30    22   am
    61   153   152    2
    62   152   151    1
    63   124   125    1
    64     2     3    1
    65   113   114    2
    66   113   112    1
    67    44    43    1
    68   169   170    1
    69    45    43    1
    70   151   154    1
    71    22    23    2
    72    22    21    1
    73    24    21    1
    74    24    25    1
    75   112   111    1
    76   112   115    1
    77     4     3    2
    78     3     9   am
    79   116   115    1
    80    43    40    1
    81   170   171    1
    82    26    25   ar
    83    26    28   ar
    84    21    20    1
    85    25    27   ar
    86   115   117    1
    87    20    11   am
    88    39    40    1
    89   154   155    1
    90     9    10    1
    91   157   155   ar
    92   157   159   ar
    93    28    29   ar
    94    40    41    1
    95    27    29   ar
    96   155   156   ar
    97   101    99    1
    98    11    12    2
    99    11    10    1
   100   171   172    2
   101   171   173   am
   102    42    41    2
   103    41    46   am
   104    10    13    1
   105   159   158   ar
   106   100    99    1
   107    79    77    1
   108    61    58    1
   109    61    62    1
   110    58    57    1
   111    58    59    1
   112    57    48   am
   113    78    77    1
   114    99    98    1
   115    46    47    1
   116   156   158   ar
   117    13    14    1
   118   105   104    2
   119    63    62   ar
   120    77    74    1
   121    62    64   ar
   122    60    59    2
   123    47    48    1
   124    47    50    1
   125    59    65   am
   126    48    49    2
   127    98    95    1
   128   104   103    1
   129    92    93    1
   130    92    91    1
   131    85    84    1
   132    93    87    1
   133    14    15    1
   134    74    75    1
   135    74    73    1
   136    86    84    1
   137    65    66    1
   138   109   108    2
   139    15    16    1
   140   103   102    1
   141   103   106    1
   142    16    17    2
   143    91    88    1
   144    51    50    1
   145    51    52    1
   146    75    76    2
   147    84    81    1
   148    95    96    1
   149    95    94    1
   150   110   108   am
   151   108   107    1
   152    90    89    2
   153    87    88    1
   154    87    82   am
   155    81    82    1
   156    81    80    1
   157    66    69    1
   158    66    67    1
   159    96    97    2
   160   106   107    1
   161    19    17    1
   162    17    18    1
   163    88    89    1
   164    82    83    2
   165    69    70    1
   166    69    71    1
   167    52    53    1
   168    67    68    2
   169    70    72    1
   170    53    54    2
   171    54    55    1
   172    54    56    1
