@<TRIPOS>MOLECULE
tmp/4n0iA00.pdb
 96 90 0 0 0
SMALL
GASTEIGER

@<TRIPOS>ATOM
      1  N         10.9240   -9.3510  -15.5620 N.3    87  GLY87      -0.1225
      2  CA        10.8700   -7.9900  -15.0610 C.3    87  GLY87       0.1811
      3  C          9.4790   -7.3980  -15.0870 C.2    87  GLY87       0.2280
      4  O          9.2890   -6.2230  -14.7530 O.2    87  GLY87      -0.2866
      5  N          6.0280   -6.7870  -13.7110 N.3    89  GLY89      -0.1210
      6  CA         5.1570   -6.7830  -12.5490 C.3    89  GLY89       0.1956
      7  C          5.6500   -5.7620  -11.5420 C.2    89  GLY89       0.2612
      8  O          6.7950   -5.3190  -11.6240 O.2    89  GLY89      -0.2717
      9  N          4.7920   -5.3830  -10.5980 N.am   90  SER90      -0.1952
     10  CA         5.1670   -4.4030   -9.5840 C.3    90  SER90       0.1924
     11  C          5.0670   -4.9430   -8.1520 C.2    90  SER90       0.2314
     12  O          5.3320   -4.2160   -7.1900 O.2    90  SER90      -0.2863
     13  CB         4.3040   -3.1480   -9.7290 C.3    90  SER90       0.2116
     14  OG         2.9300   -3.4820   -9.8440 O.3    90  SER90      -0.2180
     15  N          7.9470   -5.3500   -6.6180 N.3   115  GLY115     -0.1210
     16  CA         8.7310   -5.8790   -7.7240 C.3   115  GLY115      0.1956
     17  C          9.1530   -4.7960   -8.6980 C.2   115  GLY115      0.2612
     18  O          8.7670   -3.6420   -8.5190 O.2   115  GLY115     -0.2717
     19  N          9.9120   -5.1500   -9.7370 N.am  116  SER116     -0.1952
     20  CA        10.2570   -6.5380  -10.0550 C.3   116  SER116      0.1924
     21  C         11.4810   -7.1280   -9.3100 C.2   116  SER116      0.2314
     22  O         11.6320   -8.3540   -9.2330 O.2   116  SER116     -0.2863
     23  CB        10.4100   -6.7050  -11.5730 C.3   116  SER116      0.2116
     24  OG        11.5100   -5.9690  -12.0940 O.3   116  SER116     -0.2180
     25  N         12.9870   -0.5910  -14.6060 N.3   137  THR137     -0.1203
     26  CA        12.5050   -0.1980  -15.9210 C.3   137  THR137      0.1994
     27  C         11.3880    0.8300  -15.7740 C.2   137  THR137      0.2618
     28  O         11.2470    1.7420  -16.5930 O.2   137  THR137     -0.2717
     29  CB        12.0270   -1.4190  -16.7160 C.3   137  THR137      0.1784
     30  OG1       13.1480   -2.2800  -16.9620 O.3   137  THR137     -0.2211
     31  CG2       11.4250   -0.9980  -18.0500 C.3   137  THR137      0.0376
     32  N         10.6050    0.6790  -14.7110 N.am  138  GLY138     -0.1956
     33  CA         9.5560    1.6240  -14.3960 C.3   138  GLY138      0.1869
     34  C          9.3850    1.8160  -12.9030 C.2   138  GLY138      0.2309
     35  O          8.3730    2.3490  -12.4620 O.2   138  GLY138     -0.2863
     36  N         11.3380   -0.6410  -10.6560 N.3   140  SER140     -0.1217
     37  CA        11.5340   -1.9860  -10.1210 C.3   140  SER140      0.1889
     38  C         12.7120   -2.1370   -9.1630 C.2   140  SER140      0.2288
     39  O         12.9170   -3.2170   -8.6150 O.2   140  SER140     -0.2866
     40  CB        11.6730   -2.9980  -11.2680 C.3   140  SER140      0.2089
     41  OG        10.4130   -3.2870  -11.8330 O.3   140  SER140     -0.2183
     42  N         14.3490   -6.1450  -21.2050 N.3   168  TYR168     -0.1241
     43  CA        12.9030   -6.0330  -20.9860 C.3   168  TYR168      0.1605
     44  C         12.4030   -4.8710  -21.8640 C.2   168  TYR168      0.2264
     45  O         11.7980   -5.1080  -22.9120 O.2   168  TYR168     -0.2867
     46  CB        12.5940   -5.8360  -19.4900 C.3   168  TYR168      0.0534
     47  CG        11.1700   -5.4280  -19.1440 C.ar  168  TYR168     -0.0201
     48  CD1       10.1040   -5.6870  -20.0100 C.ar  168  TYR168     -0.0009
     49  CD2       10.8930   -4.7810  -17.9400 C.ar  168  TYR168     -0.0009
     50  CE1        8.8120   -5.3030  -19.6910 C.ar  168  TYR168      0.0417
     51  CE2        9.5970   -4.3980  -17.6090 C.ar  168  TYR168      0.0417
     52  CZ         8.5660   -4.6630  -18.4900 C.ar  168  TYR168      0.1957
     53  OH         7.2840   -4.2830  -18.1700 O.3   168  TYR168     -0.2866
     54  N          4.1180    5.0480  -20.5950 N.3   271  TYR271     -0.1227
     55  CA         4.9080    3.8600  -20.2740 C.3   271  TYR271      0.1736
     56  C          4.2740    2.5710  -20.7970 C.2   271  TYR271      0.2595
     57  O          4.9490    1.7550  -21.4200 O.2   271  TYR271     -0.2718
     58  CB         5.1250    3.7690  -18.7590 C.3   271  TYR271      0.0548
     59  CG         5.9380    2.5840  -18.2990 C.ar  271  TYR271     -0.0200
     60  CD1        7.3230    2.6810  -18.1610 C.ar  271  TYR271     -0.0009
     61  CD2        5.3290    1.3660  -17.9990 C.ar  271  TYR271     -0.0009
     62  CE1        8.0730    1.6030  -17.7340 C.ar  271  TYR271      0.0417
     63  CE2        6.0740    0.2820  -17.5720 C.ar  271  TYR271      0.0417
     64  CZ         7.4440    0.4060  -17.4390 C.ar  271  TYR271      0.1957
     65  OH         8.1990   -0.6660  -17.0170 O.3   271  TYR271     -0.2866
     66  N          2.9790    2.3790  -20.5550 N.am  272  TYR272     -0.1976
     67  CA         2.3210    1.1440  -20.9920 C.3   272  TYR272      0.1639
     68  C          1.9980    1.1190  -22.4910 C.2   272  TYR272      0.2290
     69  O          1.4320    0.1570  -23.0110 O.2   272  TYR272     -0.2864
     70  CB         1.1280    0.8000  -20.0820 C.3   272  TYR272      0.0560
     71  CG         1.6370    0.2520  -18.7660 C.ar  272  TYR272     -0.0198
     72  CD1        2.1770   -1.0270  -18.7010 C.ar  272  TYR272     -0.0009
     73  CD2        1.6600    1.0320  -17.6110 C.ar  272  TYR272     -0.0009
     74  CE1        2.6840   -1.5380  -17.5210 C.ar  272  TYR272      0.0417
     75  CE2        2.1620    0.5250  -16.4160 C.ar  272  TYR272      0.0417
     76  CZ         2.6730   -0.7700  -16.3850 C.ar  272  TYR272      0.1957
     77  OH         3.1860   -1.3030  -15.2210 O.3   272  TYR272     -0.2866
     78  N          1.3920   -8.9660  -21.6850 N.3   320  ARG320     -0.1245
     79  CA         2.1920   -7.8130  -22.0900 C.3   320  ARG320      0.1563
     80  C          2.6930   -7.9220  -23.5310 C.2   320  ARG320      0.2260
     81  O          2.6890   -6.9410  -24.2750 O.2   320  ARG320     -0.2867
     82  CB         3.3750   -7.6500  -21.1420 C.3   320  ARG320      0.0307
     83  CG         3.5270   -6.2500  -20.6070 C.3   320  ARG320      0.0489
     84  CD         2.8640   -6.0890  -19.2470 C.3   320  ARG320      0.2205
     85  NE         3.6700   -5.2000  -18.4130 N.pl3 320  ARG320     -0.0865
     86  CZ         3.5780   -5.1230  -17.0950 C.cat 320  ARG320      0.5346
     87  NH1        2.7090   -5.8630  -16.4260 N.pl3 320  ARG320      0.1354
     88  NH2        4.3540   -4.2880  -16.4430 N.pl3 320  ARG320      0.1354
     89  N          3.0990    2.3070   -9.9800 N.3   404  ASP404     -0.1239
     90  CA         4.3190    2.9730  -10.3940 C.3   404  ASP404      0.1674
     91  C          4.0930    4.4490  -10.7360 C.2   404  ASP404      0.2266
     92  O          4.9220    5.0630  -11.4070 O.2   404  ASP404     -0.2867
     93  CB         4.9300    2.2470  -11.5930 C.3   404  ASP404      0.1410
     94  CG         5.4940    0.8740  -11.2270 C.2   404  ASP404      0.3668
     95  OD1        6.3530    0.7860  -10.3210 O.co2 404  ASP404     -0.2456
     96  OD2        5.0810   -0.1180  -11.8580 O.co2 404  ASP404     -0.2456
@<TRIPOS>BOND
     1    81    80    2
     2    80    79    1
     3    69    68    2
     4    45    44    2
     5    68    67    1
     6    79    78    1
     7    79    82    1
     8    44    43    1
     9    57    56    2
    10    42    43    1
    11    82    83    1
    12    67    66    1
    13    67    70    1
    14    43    46    1
    15    56    66   am
    16    56    55    1
    17    83    84    1
    18    54    55    1
    19    55    58    1
    20    70    71    1
    21    48    50   ar
    22    48    47   ar
    23    50    52   ar
    24    46    47    1
    25    84    85    1
    26    47    49   ar
    27    71    72   ar
    28    71    73   ar
    29    58    59    1
    30    72    74   ar
    31    52    53    1
    32    52    51   ar
    33    85    86    2
    34    59    60   ar
    35    59    61   ar
    36    60    62   ar
    37    31    29    1
    38    61    63   ar
    39    49    51   ar
    40    62    64   ar
    41    73    75   ar
    42    63    64   ar
    43    74    76   ar
    44    64    65    1
    45    86    88    1
    46    86    87    1
    47    30    29    1
    48    29    26    1
    49    28    27    2
    50    75    76   ar
    51    76    77    1
    52    26    27    1
    53    26    25    1
    54    27    32   am
    55     1     2    1
    56     3     2    1
    57     3     4    2
    58    32    33    1
    59    33    34    1
    60     5     6    1
    61    34    35    2
    62     6     7    1
    63    24    23    1
    64    96    94   ar
    65    41    40    1
    66     8     7    2
    67    93    94    1
    68    93    90    1
    69    23    20    1
    70     7     9   am
    71    92    91    2
    72    40    37    1
    73    94    95   ar
    74    91    90    1
    75    36    37    1
    76     9    10    1
    77    90    89    1
    78    37    38    1
    79    20    19    1
    80    20    21    1
    81    14    13    1
    82    19    17   am
    83    13    10    1
    84    10    11    1
    85    21    22    2
    86    38    39    2
    87    17    18    2
    88    17    16    1
    89    11    12    2
    90    16    15    1
