@<TRIPOS>MOLECULE
tmp/4n0jB01.pdb
 90 86 0 0 0
SMALL
GASTEIGER

@<TRIPOS>ATOM
      1  N        -29.5170  -15.7100   -8.8990 N.3     2  PHE2       -0.1241
      2  CA       -30.3800  -14.6140   -8.5120 C.3     2  PHE2        0.1605
      3  C        -31.5540  -14.5170   -9.4630 C.2     2  PHE2        0.2264
      4  O        -31.4300  -14.8470  -10.6490 O.2     2  PHE2       -0.2867
      5  CB       -29.5970  -13.2850   -8.5580 C.3     2  PHE2        0.0534
      6  CG       -28.6780  -13.0850   -7.3880 C.ar    2  PHE2       -0.0203
      7  CD1      -27.3820  -13.6090   -7.3920 C.ar    2  PHE2       -0.0042
      8  CD2      -29.1130  -12.3860   -6.2680 C.ar    2  PHE2       -0.0042
      9  CE1      -26.5340  -13.4440   -6.2970 C.ar    2  PHE2       -0.0003
     10  CE2      -28.2660  -12.2010   -5.1730 C.ar    2  PHE2       -0.0003
     11  CZ       -26.9770  -12.7370   -5.1840 C.ar    2  PHE2       -0.0000
     12  N        -34.7610   -9.0740   -9.4560 N.3     5  CYS5       -0.1221
     13  CA       -35.0630   -8.1700   -8.3320 C.3     5  CYS5        0.1808
     14  C        -34.1910   -8.4420   -7.0990 C.2     5  CYS5        0.2601
     15  O        -33.7830   -7.4950   -6.4110 O.2     5  CYS5       -0.2717
     16  CB       -36.5540   -8.2090   -7.9570 C.3     5  CYS5        0.0970
     17  SG       -37.6800   -7.6840   -9.2670 S.3     5  CYS5       -0.0800
     18  N        -33.9090   -9.7190   -6.8220 N.am    6  GLU6       -0.1979
     19  CA       -32.9430  -10.1140   -5.7840 C.3     6  GLU6        0.1602
     20  C        -31.6050   -9.4430   -6.0580 C.2     6  GLU6        0.2287
     21  O        -31.0130   -8.7990   -5.1810 O.2     6  GLU6       -0.2864
     22  CB       -32.6860  -11.6280   -5.7820 C.3     6  GLU6        0.0415
     23  CG       -33.8570  -12.5600   -5.5390 C.3     6  GLU6        0.1163
     24  CD       -33.4520  -14.0150   -5.7420 C.2     6  GLU6        0.3649
     25  OE1      -34.2570  -14.7970   -6.2950 O.co2   6  GLU6       -0.2457
     26  OE2      -32.3090  -14.3760   -5.3690 O.co2   6  GLU6       -0.2457
     27  N        -31.4870   -5.6490   -5.7830 N.3     9  ALA9       -0.1231
     28  CA       -31.4730   -5.2220   -4.3900 C.3     9  ALA9        0.1694
     29  C        -30.0820   -5.3890   -3.7870 C.2     9  ALA9        0.2591
     30  O        -29.5870   -4.4730   -3.1350 O.2     9  ALA9       -0.2718
     31  CB       -32.5400   -5.9470   -3.5790 C.3     9  ALA9        0.0304
     32  N        -29.4430   -6.5350   -4.0440 N.am   10  ALA10      -0.1980
     33  CA       -28.0980   -6.8110   -3.5440 C.3    10  ALA10       0.1597
     34  C        -27.0870   -5.8220   -4.1130 C.2    10  ALA10       0.2287
     35  O        -26.1910   -5.3570   -3.4070 O.2    10  ALA10      -0.2864
     36  CB       -27.6850   -8.2270   -3.8850 C.3    10  ALA10       0.0319
     37  N        -27.6560   -2.4590   -2.4750 N.3    12  ARG12      -0.1231
     38  CA       -27.1000   -2.4980   -1.1090 C.3    12  ARG12       0.1694
     39  C        -25.6020   -2.2500   -1.0950 C.2    12  ARG12       0.2592
     40  O        -25.0750   -1.6290   -0.1700 O.2    12  ARG12      -0.2718
     41  CB       -27.4150   -3.8300   -0.4250 C.3    12  ARG12       0.0321
     42  CG       -28.8810   -3.9700   -0.0440 C.3    12  ARG12       0.0489
     43  CD       -29.1380   -5.1970    0.8100 C.3    12  ARG12       0.2205
     44  NE       -29.1680   -6.4440    0.0420 N.pl3  12  ARG12      -0.0865
     45  CZ       -30.2650   -7.0200   -0.4450 C.cat  12  ARG12       0.5346
     46  NH1      -31.4720   -6.4800   -0.2720 N.pl3  12  ARG12       0.1354
     47  NH2      -30.1560   -8.1520   -1.1020 N.pl3  12  ARG12       0.1354
     48  N        -24.9410   -2.7110   -2.1500 N.am   13  HIS13      -0.1976
     49  CA       -23.4930   -2.6280   -2.2970 C.3    13  HIS13       0.1656
     50  C        -23.0520   -1.3620   -3.0090 C.2    13  HIS13       0.2291
     51  O        -21.9080   -1.2640   -3.4370 O.2    13  HIS13      -0.2864
     52  CB       -22.9940   -3.8370   -3.0880 C.3    13  HIS13       0.0771
     53  CG       -22.9090   -5.0920   -2.2830 C.ar   13  HIS13       0.0820
     54  ND1      -23.9520   -5.9890   -2.1820 N.ar   13  HIS13      -0.2267
     55  CD2      -21.9030   -5.5920   -1.5260 C.ar   13  HIS13       0.1154
     56  CE1      -23.5900   -6.9890   -1.4030 C.ar   13  HIS13       0.1986
     57  NE2      -22.3530   -6.7740   -0.9910 N.ar   13  HIS13      -0.2212
     58  N        -21.2670  -17.2000   -3.2140 N.3    83  SER83      -0.1202
     59  CA       -22.6840  -16.8590   -3.1760 C.3    83  SER83       0.2020
     60  C        -22.8730  -15.4080   -2.7650 C.2    83  SER83       0.2619
     61  O        -23.8000  -14.7440   -3.2200 O.2    83  SER83      -0.2717
     62  CB       -23.4270  -17.7670   -2.2040 C.3    83  SER83       0.2103
     63  OG       -23.6010  -19.0520   -2.7590 O.3    83  SER83      -0.2182
     64  N        -21.9840  -14.9160   -1.9080 N.am   84  ASP84      -0.1959
     65  CA       -22.0400  -13.5220   -1.5060 C.3    84  ASP84       0.1840
     66  C        -21.3260  -12.6760   -2.5610 C.2    84  ASP84       0.2621
     67  O        -20.1740  -12.9480   -2.8940 O.2    84  ASP84      -0.2715
     68  CB       -21.4020  -13.3310   -0.1270 C.3    84  ASP84       0.1450
     69  CG       -21.4820  -11.9000    0.3380 C.2    84  ASP84       0.3671
     70  OD1      -20.6970  -11.0820   -0.1420 O.co2  84  ASP84      -0.2456
     71  OD2      -22.3650  -11.5840    1.1540 O.co2  84  ASP84      -0.2456
     72  N        -21.9990  -11.6520   -3.0920 N.am   85  ILE85      -0.1977
     73  CA       -21.4480  -10.9480   -4.2550 C.3    85  ILE85       0.1596
     74  C        -20.4520   -9.8280   -3.9150 C.2    85  ILE85       0.2287
     75  O        -20.0100   -9.1040   -4.8050 O.2    85  ILE85      -0.2864
     76  CB       -22.5560  -10.4330   -5.2340 C.3    85  ILE85       0.0276
     77  CG1      -23.4230   -9.3420   -4.5790 C.3    85  ILE85       0.0022
     78  CG2      -23.3840  -11.6180   -5.7620 C.3    85  ILE85       0.0022
     79  CD1      -24.3180   -8.5730   -5.5570 C.3    85  ILE85       0.0001
     80  N        -39.4600   -4.5490   -5.7410 N.3   122  ARG122     -0.1245
     81  CA       -39.7890   -3.7850   -4.5390 C.3   122  ARG122      0.1563
     82  C        -38.4990   -3.1690   -4.0060 C.2   122  ARG122      0.2260
     83  O        -37.8830   -3.6940   -3.0680 O.2   122  ARG122     -0.2867
     84  CB       -40.4720   -4.6700   -3.4870 C.3   122  ARG122      0.0307
     85  CG       -40.9850   -3.9190   -2.2620 C.3   122  ARG122      0.0489
     86  CD       -40.7840   -4.7420   -0.9950 C.3   122  ARG122      0.2205
     87  NE       -40.9120   -3.9400    0.2270 N.pl3 122  ARG122     -0.0865
     88  CZ       -39.9450   -3.1860    0.7520 C.cat 122  ARG122      0.5346
     89  NH1      -38.7530   -3.1000    0.1690 N.pl3 122  ARG122      0.1354
     90  NH2      -40.1760   -2.5060    1.8660 N.pl3 122  ARG122      0.1354
@<TRIPOS>BOND
     1     4     3    2
     2     3     2    1
     3    12    13    1
     4    17    16    1
     5     1     2    1
     6     5     2    1
     7     5     6    1
     8    13    16    1
     9    13    14    1
    10     7     6   ar
    11     7     9   ar
    12     6     8   ar
    13    14    18   am
    14    14    15    2
    15    18    19    1
    16     9    11   ar
    17    25    24   ar
    18     8    10   ar
    19    20    19    1
    20    20    21    2
    21    19    22    1
    22    27    28    1
    23    22    23    1
    24    78    76    1
    25    24    23    1
    26    24    26   ar
    27    80    81    1
    28    79    77    1
    29    76    77    1
    30    76    73    1
    31    11    10   ar
    32    75    74    2
    33    81    82    1
    34    81    84    1
    35    28    29    1
    36    28    31    1
    37    73    74    1
    38    73    72    1
    39    34    33    1
    40    34    35    2
    41    32    29   am
    42    32    33    1
    43    82    83    2
    44    36    33    1
    45    29    30    2
    46    84    85    1
    47    51    50    2
    48    61    60    2
    49    58    59    1
    50    59    60    1
    51    59    62    1
    52    72    66   am
    53    52    49    1
    54    52    53    1
    55    50    49    1
    56    67    66    2
    57    60    64   am
    58    63    62    1
    59    66    65    1
    60    37    38    1
    61    49    48    1
    62    53    54   ar
    63    53    55   ar
    64    85    86    1
    65    54    56   ar
    66    48    39   am
    67    64    65    1
    68    55    57   ar
    69    65    68    1
    70    56    57   ar
    71    38    39    1
    72    38    41    1
    73    47    45    1
    74    39    40    2
    75    86    87    1
    76    45    46    1
    77    45    44    2
    78    41    42    1
    79    70    69   ar
    80    68    69    1
    81    42    43    1
    82    44    43    1
    83    89    88    1
    84    87    88    2
    85    69    71   ar
    86    88    90    1
