@<TRIPOS>MOLECULE
tmp/4n0kA01.pdb
 84 80 0 0 0
SMALL
GASTEIGER

@<TRIPOS>ATOM
      1  N          0.1590    9.0400  -11.5950 N.3     4  LYS4       -0.1231
      2  CA         0.3600   10.4820  -11.6780 C.3     4  LYS4        0.1693
      3  C          1.3090   10.8930  -10.5630 C.2     4  LYS4        0.2592
      4  O          1.1390   10.4900   -9.4060 O.2     4  LYS4       -0.2718
      5  CB        -0.9700   11.2330  -11.5530 C.3     4  LYS4        0.0285
      6  CG        -0.8950   12.7120  -11.9060 C.3     4  LYS4        0.0035
      7  CD        -2.2440   13.3890  -11.7230 C.3     4  LYS4        0.0206
      8  CE        -2.2090   14.8420  -12.1740 C.3     4  LYS4        0.1093
      9  NZ        -1.2630   15.6600  -11.3670 N.3     4  LYS4       -0.1314
     10  N          2.3180   11.6800  -10.9190 N.am    5  ALA5       -0.1966
     11  CA         3.2990   12.1290   -9.9550 C.3     5  ALA5        0.1728
     12  C          2.6090   12.8760   -8.8240 C.2     5  ALA5        0.2617
     13  O          1.7640   13.7470   -9.0310 O.2     5  ALA5       -0.2715
     14  CB         4.3550   13.0000  -10.6150 C.3     5  ALA5        0.0334
     15  N          2.9330   12.4360   -7.4180 N.am    6  GLY6       -0.1940
     16  CA         2.2670   12.9790   -6.2570 C.3     6  GLY6        0.2014
     17  C          3.2760   13.5520   -5.2990 C.2     6  GLY6        0.2639
     18  O          4.2110   14.2520   -5.6930 O.2     6  GLY6       -0.2714
     19  N          3.0790   13.2450   -4.0280 N.am    7  SER7       -0.1949
     20  CA         3.9070   13.7840   -2.9700 C.3     7  SER7        0.1924
     21  C          4.8180   12.7140   -2.3930 C.2     7  SER7        0.2314
     22  O          4.3490   11.8020   -1.6990 O.2     7  SER7       -0.2863
     23  CB         3.0270   14.3490   -1.8610 C.3     7  SER7        0.2116
     24  OG         3.8010   14.6620   -0.7160 O.3     7  SER7       -0.2180
     25  N          4.4140   12.6140    1.5000 N.3    10  LYS10      -0.1245
     26  CA         3.3310   11.7380    1.9620 C.3    10  LYS10       0.1561
     27  C          3.7020   10.2750    1.7310 C.2    10  LYS10       0.2260
     28  O          3.4240    9.4040    2.5650 O.2    10  LYS10      -0.2867
     29  CB         2.0000   12.0780    1.2710 C.3    10  LYS10       0.0271
     30  CG         0.8130   11.1900    1.6590 C.3    10  LYS10       0.0035
     31  CD         0.4070   11.2740    3.1280 C.3    10  LYS10       0.0206
     32  CE        -0.6270   10.2150    3.4930 C.3    10  LYS10       0.1093
     33  NZ        -1.9290   10.3500    2.7860 N.3    10  LYS10      -0.1314
     34  N         -6.5500    3.1490   -2.2420 N.3    92  LYS92      -0.1231
     35  CA        -6.7300    4.5640   -2.5920 C.3    92  LYS92       0.1693
     36  C         -5.7090    5.0480   -3.6150 C.2    92  LYS92       0.2592
     37  O         -4.5000    4.8990   -3.4270 O.2    92  LYS92      -0.2718
     38  CB        -6.6870    5.4350   -1.3390 C.3    92  LYS92       0.0285
     39  CG        -7.7810    5.0920   -0.3370 C.3    92  LYS92       0.0035
     40  CD        -7.9510    6.1630    0.7280 C.3    92  LYS92       0.0206
     41  CE        -6.8550    6.1070    1.7770 C.3    92  LYS92       0.1093
     42  NZ        -7.0370    7.1470    2.8270 N.3    92  LYS92      -0.1314
     43  N         -6.2100    5.6490   -4.6920 N.am   93  GLU93      -0.1966
     44  CA        -5.3620    6.1010   -5.7990 C.3    93  GLU93       0.1733
     45  C         -4.2970    7.1040   -5.3580 C.2    93  GLU93       0.2616
     46  O         -3.1420    6.9920   -5.7840 O.2    93  GLU93      -0.2715
     47  CB        -6.2110    6.6900   -6.9430 C.3    93  GLU93       0.0429
     48  CG        -5.4420    7.0230   -8.2230 C.3    93  GLU93       0.1163
     49  CD        -5.2360    5.8290   -9.1360 C.2    93  GLU93       0.3649
     50  OE1       -4.3990    5.9170  -10.0580 O.co2  93  GLU93      -0.2457
     51  OE2       -5.9090    4.8010   -8.9430 O.co2  93  GLU93      -0.2457
     52  N         -4.6660    8.0840   -4.5230 N.am   94  LYS94      -0.1963
     53  CA        -3.6800    9.0720   -4.0740 C.3    94  LYS94       0.1728
     54  C         -2.5680    8.4040   -3.2580 C.2    94  LYS94       0.2616
     55  O         -1.4050    8.7800   -3.3830 O.2    94  LYS94      -0.2715
     56  CB        -4.3280   10.2190   -3.2960 C.3    94  LYS94       0.0311
     57  CG        -3.3910   11.3900   -3.0290 C.3    94  LYS94       0.0038
     58  CD        -4.0580   12.4900   -2.2120 C.3    94  LYS94       0.0206
     59  CE        -3.1520   13.7050   -2.0510 C.3    94  LYS94       0.1093
     60  NZ        -1.9330   13.3970   -1.2440 N.3    94  LYS94      -0.1314
     61  N         -2.9180    7.4130   -2.4360 N.am   95  ASP95      -0.1971
     62  CA        -1.8980    6.6730   -1.6910 C.3    95  ASP95       0.1709
     63  C         -0.8990    5.9860   -2.6290 C.2    95  ASP95       0.2293
     64  O          0.3050    6.0210   -2.3890 O.2    95  ASP95      -0.2864
     65  CB        -2.5170    5.6160   -0.7730 C.3    95  ASP95       0.1436
     66  CG        -3.1160    6.1850    0.4980 C.2    95  ASP95       0.3671
     67  OD1       -2.9560    7.3900    0.7880 O.co2  95  ASP95      -0.2456
     68  OD2       -3.7420    5.3860    1.2250 O.co2  95  ASP95      -0.2456
     69  N         -0.1970    6.8000   -5.7900 N.3    97  ASN97      -0.1225
     70  CA         0.6160    7.8080   -6.4520 C.3    97  ASN97       0.1785
     71  C          1.7010    8.3660   -5.5200 C.2    97  ASN97       0.2597
     72  O          2.8640    8.4840   -5.9100 O.2    97  ASN97      -0.2718
     73  CB        -0.2600    8.9260   -7.0190 C.3    97  ASN97       0.1169
     74  CG        -1.0200    8.4930   -8.2600 C.2    97  ASN97       0.2627
     75  OD1       -0.5610    7.6200   -9.0140 O.2    97  ASN97      -0.2716
     76  ND2       -2.1740    9.1080   -8.4920 N.am   97  ASN97      -0.0877
     77  N          1.3230    8.6950   -4.2880 N.am   98  ASP98      -0.1974
     78  CA         2.2800    9.2430   -3.3200 C.3    98  ASP98       0.1709
     79  C          3.3870    8.2310   -2.9910 C.2    98  ASP98       0.2293
     80  O          4.5840    8.5680   -3.0260 O.2    98  ASP98      -0.2864
     81  CB         1.5440    9.7040   -2.0540 C.3    98  ASP98       0.1436
     82  CG         0.6510   10.9130   -2.3010 C.2    98  ASP98       0.3671
     83  OD1        0.8580   11.6140   -3.3170 O.co2  98  ASP98      -0.2456
     84  OD2       -0.2480   11.1570   -1.4680 O.co2  98  ASP98      -0.2456
@<TRIPOS>BOND
     1     8     7    1
     2     8     9    1
     3     6     7    1
     4     6     5    1
     5     2     1    1
     6     2     5    1
     7     2     3    1
     8    10     3   am
     9    10    11    1
    10    14    11    1
    11     3     4    2
    12    50    49   ar
    13    11    12    1
    14    49    51   ar
    15    49    48    1
    16    13    12    2
    17    75    74    2
    18    12    15   am
    19    76    74   am
    20    74    73    1
    21    48    47    1
    22    15    16    1
    23    73    70    1
    24    47    44    1
    25    70    69    1
    26    70    71    1
    27    16    17    1
    28    72    71    2
    29    44    45    1
    30    44    43    1
    31    46    45    2
    32    18    17    2
    33    71    77   am
    34    45    52   am
    35    17    19   am
    36    43    36   am
    37    52    53    1
    38    77    78    1
    39    53    56    1
    40    53    54    1
    41    19    20    1
    42    36    37    2
    43    36    35    1
    44    55    54    2
    45    78    79    1
    46    78    81    1
    47    83    82   ar
    48    56    57    1
    49    54    61   am
    50    57    58    1
    51    80    79    2
    52    20    21    1
    53    20    23    1
    54    63    64    2
    55    63    62    1
    56    35    34    1
    57    35    38    1
    58    61    62    1
    59    21    22    2
    60    82    81    1
    61    82    84   ar
    62    58    59    1
    63    59    60    1
    64    23    24    1
    65    62    65    1
    66    38    39    1
    67    65    66    1
    68    39    40    1
    69    66    67   ar
    70    66    68   ar
    71    40    41    1
    72    29    30    1
    73    29    26    1
    74    25    26    1
    75    30    31    1
    76    27    26    1
    77    27    28    2
    78    41    42    1
    79    33    32    1
    80    31    32    1
