@<TRIPOS>MOLECULE
tmp/4n0qB00.pdb
 99 96 0 0 0
SMALL
GASTEIGER

@<TRIPOS>ATOM
      1  N         40.4940   27.8750  150.1840 N.3    18  PHE18      -0.1241
      2  CA        41.6190   27.0090  149.7480 C.3    18  PHE18       0.1605
      3  C         41.7210   25.7380  150.6020 C.2    18  PHE18       0.2264
      4  O         41.8770   24.6460  150.0810 O.2    18  PHE18      -0.2867
      5  CB        42.9630   27.7370  149.8040 C.3    18  PHE18       0.0534
      6  CG        43.0600   28.9380  148.9410 C.ar   18  PHE18      -0.0203
      7  CD1       42.5640   28.9420  147.6460 C.ar   18  PHE18      -0.0042
      8  CD2       43.7030   30.0880  149.4160 C.ar   18  PHE18      -0.0042
      9  CE1       42.6890   30.0690  146.8590 C.ar   18  PHE18      -0.0003
     10  CE2       43.8060   31.2120  148.6290 C.ar   18  PHE18      -0.0003
     11  CZ        43.3160   31.1980  147.3580 C.ar   18  PHE18      -0.0000
     12  N         49.3090   24.7600  153.0420 N.3    77  VAL77      -0.1231
     13  CA        48.5540   25.2810  151.9410 C.3    77  VAL77       0.1692
     14  C         49.0690   26.6570  151.4450 C.2    77  VAL77       0.2593
     15  O         49.2800   26.8220  150.2870 O.2    77  VAL77      -0.2718
     16  CB        47.0680   25.3650  152.3400 C.3    77  VAL77       0.0266
     17  CG1       46.2440   26.0750  151.3020 C.3    77  VAL77       0.0020
     18  CG2       46.5230   23.9770  152.5840 C.3    77  VAL77       0.0020
     19  N         49.2430   27.6220  152.3240 N.am   78  THR78      -0.1939
     20  CA        49.8910   28.8870  151.9520 C.3    78  THR78       0.2028
     21  C         51.3980   28.8870  152.3210 C.2    78  THR78       0.2642
     22  O         51.8060   28.3140  153.3360 O.2    78  THR78      -0.2714
     23  CB        49.2400   30.1250  152.6090 C.3    78  THR78       0.1808
     24  OG1       49.2990   30.0090  154.0300 O.3    78  THR78      -0.2208
     25  CG2       47.8170   30.2830  152.1780 C.3    78  THR78       0.0379
     26  N         52.1830   29.5950  151.5340 N.am   79  THR79      -0.1950
     27  CA        53.6430   29.6640  151.7250 C.3    79  THR79       0.1897
     28  C         54.0360   30.1650  153.1110 C.2    79  THR79       0.2313
     29  O         54.8980   29.5780  153.7740 O.2    79  THR79      -0.2863
     30  CB        54.2850   30.5190  150.6090 C.3    79  THR79       0.1794
     31  OG1       54.1910   29.8060  149.3750 O.3    79  THR79      -0.2208
     32  CG2       55.7750   30.8870  150.9130 C.3    79  THR79       0.0378
     33  N         49.6360   22.9940  147.3080 N.3   100  THR100     -0.1203
     34  CA        49.3790   24.4000  146.9310 C.3   100  THR100      0.1994
     35  C         50.5240   25.4170  147.1170 C.2   100  THR100      0.2618
     36  O         50.5820   26.3900  146.3500 O.2   100  THR100     -0.2717
     37  CB        48.1310   24.9580  147.6710 C.3   100  THR100      0.1784
     38  OG1       48.2370   24.7100  149.0700 O.3   100  THR100     -0.2211
     39  CG2       46.8300   24.3380  147.1180 C.3   100  THR100      0.0376
     40  N         51.3930   25.2300  148.1120 N.am  101  ALA101     -0.1965
     41  CA        52.4430   26.2180  148.3720 C.3   101  ALA101      0.1728
     42  C         53.4500   26.2660  147.2130 C.2   101  ALA101      0.2616
     43  O         54.0260   25.2730  146.8790 O.2   101  ALA101     -0.2715
     44  CB        53.1480   25.9900  149.7070 C.3   101  ALA101      0.0334
     45  N         53.6140   27.4440  146.6100 N.am  102  THR102     -0.1951
     46  CA        54.4550   27.6390  145.4270 C.3   102  THR102      0.1897
     47  C         55.7440   28.5050  145.7420 C.2   102  THR102      0.2313
     48  O         56.5910   28.7380  144.8810 O.2   102  THR102     -0.2863
     49  CB        53.6160   28.2680  144.2960 C.3   102  THR102      0.1794
     50  OG1       52.9790   29.4580  144.7680 O.3   102  THR102     -0.2208
     51  CG2       52.5080   27.3380  143.8480 C.3   102  THR102      0.0378
     52  N         54.0920   34.5270  149.8630 N.3   150  TYR150     -0.1241
     53  CA        53.6290   34.2300  148.5110 C.3   150  TYR150      0.1605
     54  C         53.4530   35.4660  147.6200 C.2   150  TYR150      0.2264
     55  O         54.1280   35.6110  146.6080 O.2   150  TYR150     -0.2867
     56  CB        52.3150   33.4380  148.5390 C.3   150  TYR150      0.0534
     57  CG        51.5980   33.3300  147.2090 C.ar  150  TYR150     -0.0201
     58  CD1       52.1520   32.6430  146.1740 C.ar  150  TYR150     -0.0009
     59  CD2       50.3250   33.9220  146.9990 C.ar  150  TYR150     -0.0009
     60  CE1       51.4950   32.5030  144.9680 C.ar  150  TYR150      0.0417
     61  CE2       49.6640   33.8090  145.7750 C.ar  150  TYR150      0.0417
     62  CZ        50.2500   33.0780  144.7660 C.ar  150  TYR150      0.1957
     63  OH        49.6550   32.9330  143.5190 O.3   150  TYR150     -0.2866
     64  N         45.9050   36.7670  147.5530 N.3   202  TYR202     -0.1241
     65  CA        44.6760   35.9840  147.5800 C.3   202  TYR202      0.1605
     66  C         43.3550   36.7420  147.2470 C.2   202  TYR202      0.2264
     67  O         43.3570   37.9440  147.0400 O.2   202  TYR202     -0.2867
     68  CB        44.6070   35.3230  148.9420 C.3   202  TYR202      0.0534
     69  CG        45.9160   34.6690  149.3510 C.ar  202  TYR202     -0.0201
     70  CD1       46.5190   33.7150  148.5580 C.ar  202  TYR202     -0.0009
     71  CD2       46.5310   35.0080  150.5310 C.ar  202  TYR202     -0.0009
     72  CE1       47.7000   33.1100  148.9320 C.ar  202  TYR202      0.0417
     73  CE2       47.7160   34.4040  150.9320 C.ar  202  TYR202      0.0417
     74  CZ        48.2940   33.4610  150.1190 C.ar  202  TYR202      0.1957
     75  OH        49.4540   32.8920  150.4990 O.3   202  TYR202     -0.2866
     76  N         47.8150   31.7360  141.0740 N.3   226  GLU226     -0.1231
     77  CA        46.7250   30.8220  141.4080 C.3   226  GLU226      0.1699
     78  C         46.0590   31.1810  142.7600 C.2   226  GLU226      0.2592
     79  O         45.0210   30.6290  143.1300 O.2   226  GLU226     -0.2718
     80  CB        47.1150   29.3180  141.2840 C.3   226  GLU226      0.0402
     81  CG        48.5530   28.9240  141.6030 C.3   226  GLU226      0.1161
     82  CD        48.9980   29.3230  143.0040 C.2   226  GLU226      0.3649
     83  OE1       49.7620   30.2990  143.1810 O.co2 226  GLU226     -0.2457
     84  OE2       48.6050   28.6430  143.9310 O.co2 226  GLU226     -0.2457
     85  N         46.6060   32.2030  143.4020 N.am  227  GLY227     -0.1957
     86  CA        45.9550   32.8710  144.4990 C.3   227  GLY227      0.1869
     87  C         44.6190   33.5020  144.1450 C.2   227  GLY227      0.2309
     88  O         43.8100   33.7440  145.0410 O.2   227  GLY227     -0.2863
     89  N         43.3680   22.8260  142.8210 N.3   275  PHE275     -0.1241
     90  CA        43.8390   22.5960  144.1690 C.3   275  PHE275      0.1605
     91  C         43.3000   21.3090  144.7710 C.2   275  PHE275      0.2264
     92  O         43.9880   20.6010  145.4800 O.2   275  PHE275     -0.2867
     93  CB        43.5430   23.7650  145.0870 C.3   275  PHE275      0.0534
     94  CG        44.2880   25.0520  144.7440 C.ar  275  PHE275     -0.0203
     95  CD1       45.3240   25.0930  143.8230 C.ar  275  PHE275     -0.0042
     96  CD2       43.9320   26.2450  145.3800 C.ar  275  PHE275     -0.0042
     97  CE1       45.9700   26.2940  143.5230 C.ar  275  PHE275     -0.0003
     98  CE2       44.5690   27.4440  145.0780 C.ar  275  PHE275     -0.0003
     99  CZ        45.5780   27.4680  144.1460 C.ar  275  PHE275     -0.0000
@<TRIPOS>BOND
     1    76    77    1
     2    80    77    1
     3    80    81    1
     4    77    78    1
     5    81    82    1
     6    78    79    2
     7    78    85   am
     8    89    90    1
     9    82    83   ar
    10    82    84   ar
    11    85    86    1
    12    63    62    1
    13    97    95   ar
    14    97    99   ar
    15    95    94   ar
    16    51    49    1
    17    87    86    1
    18    87    88    2
    19    99    98   ar
    20    90    91    1
    21    90    93    1
    22    49    50    1
    23    49    46    1
    24    94    93    1
    25    94    96   ar
    26    62    60   ar
    27    62    61   ar
    28    91    92    2
    29    48    47    2
    30    60    58   ar
    31    98    96   ar
    32    46    47    1
    33    46    45    1
    34    61    59   ar
    35    58    57   ar
    36    36    35    2
    37    55    54    2
    38    45    42   am
    39     9    11   ar
    40     9     7   ar
    41    43    42    2
    42    34    35    1
    43    34    33    1
    44    34    37    1
    45    59    57   ar
    46    67    66    2
    47    35    40   am
    48    39    37    1
    49    57    56    1
    50    42    41    1
    51    66    65    1
    52    11    10   ar
    53    64    65    1
    54    65    68    1
    55    54    53    1
    56     7     6   ar
    57    37    38    1
    58    40    41    1
    59    41    44    1
    60    53    56    1
    61    53    52    1
    62    70    72   ar
    63    70    69   ar
    64    10     8   ar
    65    72    74   ar
    66     6     8   ar
    67     6     5    1
    68    68    69    1
    69    69    71   ar
    70    31    30    1
    71     2     5    1
    72     2     1    1
    73     2     3    1
    74     4     3    2
    75    74    75    1
    76    74    73   ar
    77    15    14    2
    78    71    73   ar
    79    30    32    1
    80    30    27    1
    81    17    16    1
    82    14    13    1
    83    14    19   am
    84    26    27    1
    85    26    21   am
    86    27    28    1
    87    13    16    1
    88    13    12    1
    89    20    21    1
    90    20    19    1
    91    20    23    1
    92    25    23    1
    93    21    22    2
    94    16    18    1
    95    23    24    1
    96    28    29    2
