@<TRIPOS>MOLECULE
tmp/4n0sA00.pdb
 105 96 0 0 0
SMALL
GASTEIGER

@<TRIPOS>ATOM
      1  N        -20.2520   20.2010   38.7020 N.3    26  ILE26      -0.1245
      2  CA       -19.8620   19.7590   40.0400 C.3    26  ILE26       0.1561
      3  C        -18.7280   20.6290   40.5740 C.2    26  ILE26       0.2260
      4  O        -18.8870   21.3200   41.5790 O.2    26  ILE26      -0.2867
      5  CB       -19.4330   18.2770   40.0600 C.3    26  ILE26       0.0252
      6  CG1      -20.6350   17.3830   39.7380 C.3    26  ILE26       0.0019
      7  CG2      -18.8360   17.9110   41.4230 C.3    26  ILE26       0.0019
      8  CD1      -20.3240   15.8950   39.7120 C.3    26  ILE26       0.0001
      9  N        -14.1020   21.7240   39.8010 N.3    28  GLU28      -0.1231
     10  CA       -12.8960   21.7090   38.9800 C.3    28  GLU28       0.1699
     11  C        -11.9960   20.5490   39.3760 C.2    28  GLU28       0.2593
     12  O        -11.5910   20.4360   40.5310 O.2    28  GLU28      -0.2718
     13  CB       -12.1270   23.0200   39.1420 C.3    28  GLU28       0.0402
     14  CG       -12.9520   24.2720   38.8720 C.3    28  GLU28       0.1161
     15  CD       -13.4370   24.3610   37.4380 C.2    28  GLU28       0.3649
     16  OE1      -12.8980   23.6350   36.5730 O.co2  28  GLU28      -0.2457
     17  OE2      -14.3610   25.1610   37.1760 O.co2  28  GLU28      -0.2457
     18  N        -11.6860   19.6880   38.4120 N.am   29  GLY29      -0.1942
     19  CA       -10.7720   18.5850   38.6470 C.3    29  GLY29       0.2014
     20  C         -9.3480   19.0940   38.7230 C.2    29  GLY29       0.2638
     21  O         -9.0020   19.8620   39.6200 O.2    29  GLY29      -0.2714
     22  N         -8.5180   18.6530   37.7840 N.am   30  ALA30      -0.1977
     23  CA        -7.1770   19.2040   37.6250 C.3    30  ALA30       0.1597
     24  C         -6.9780   19.6460   36.1790 C.2    30  ALA30       0.2287
     25  O         -6.2810   20.6280   35.9180 O.2    30  ALA30      -0.2864
     26  CB        -6.1230   18.1780   38.0250 C.3    30  ALA30       0.0319
     27  N        -15.7120   19.0200   36.0790 N.3    34  VAL34      -0.1245
     28  CA       -16.4130   17.7760   36.3320 C.3    34  VAL34       0.1561
     29  C        -17.9020   18.0810   36.3710 C.2    34  VAL34       0.2260
     30  O        -18.3220   19.0780   36.9550 O.2    34  VAL34      -0.2867
     31  CB       -15.9760   17.1540   37.6650 C.3    34  VAL34       0.0252
     32  CG1      -16.7220   15.8570   37.9140 C.3    34  VAL34       0.0019
     33  CG2      -14.4710   16.9200   37.6680 C.3    34  VAL34       0.0019
     34  N        -20.8550   10.5150   36.7550 N.3    47  ALA47      -0.1245
     35  CA       -19.9170   11.6340   36.8140 C.3    47  ALA47       0.1562
     36  C        -19.0440   11.6000   35.5620 C.2    47  ALA47       0.2260
     37  O        -18.7520   10.5260   35.0380 O.2    47  ALA47      -0.2867
     38  CB       -19.0540   11.5410   38.0560 C.3    47  ALA47       0.0290
     39  N        -15.4190   13.5180   34.0160 N.3    49  LYS49      -0.1245
     40  CA       -14.2830   14.4250   34.1280 C.3    49  LYS49       0.1561
     41  C        -13.8250   14.7980   32.7300 C.2    49  LYS49       0.2260
     42  O        -13.4920   13.9210   31.9490 O.2    49  LYS49      -0.2867
     43  CB       -13.1000   13.7490   34.8220 C.3    49  LYS49       0.0271
     44  CG       -13.3520   13.2150   36.2160 C.3    49  LYS49       0.0035
     45  CD       -12.0250   12.9040   36.9270 C.3    49  LYS49       0.0206
     46  CE       -11.1390   11.9430   36.1310 C.3    49  LYS49       0.1093
     47  NZ        -9.8140   11.7110   36.7850 N.3    49  LYS49      -0.1314
     48  N        -12.5860    3.4430   42.4000 N.3    78  ILE78      -0.1245
     49  CA       -13.4160    3.9980   41.3410 C.3    78  ILE78       0.1561
     50  C        -13.0270    3.3570   40.0060 C.2    78  ILE78       0.2260
     51  O        -11.8470    3.1180   39.7290 O.2    78  ILE78      -0.2867
     52  CB       -13.2870    5.5350   41.2670 C.3    78  ILE78       0.0252
     53  CG1      -14.4120    6.1330   40.4170 C.3    78  ILE78       0.0019
     54  CG2      -11.9180    5.9300   40.7240 C.3    78  ILE78       0.0019
     55  CD1      -15.7930    6.0280   41.0390 C.3    78  ILE78       0.0001
     56  N        -17.5150    7.9520   35.1260 N.3    99  GLN99      -0.1231
     57  CA       -17.3950    7.1270   36.3210 C.3    99  GLN99       0.1698
     58  C        -18.7020    7.1040   37.1090 C.2    99  GLN99       0.2592
     59  O        -19.5970    7.9210   36.8680 O.2    99  GLN99      -0.2718
     60  CB       -16.2670    7.6670   37.1980 C.3    99  GLN99       0.0381
     61  CG       -14.9360    7.7500   36.4740 C.3    99  GLN99       0.0905
     62  CD       -13.8160    8.2750   37.3460 C.2    99  GLN99       0.2608
     63  OE1      -13.9390    9.3240   37.9760 O.2    99  GLN99      -0.2717
     64  NE2      -12.7200    7.5350   37.4010 N.am   99  GLN99      -0.0878
     65  N        -18.8180    6.1720   38.0500 N.am  100  ASP100     -0.1960
     66  CA       -19.9780    6.1520   38.9300 C.3   100  ASP100      0.1840
     67  C        -20.1030    7.5030   39.6120 C.2   100  ASP100      0.2622
     68  O        -19.0960    8.1120   39.9860 O.2   100  ASP100     -0.2715
     69  CB       -19.8450    5.0740   40.0070 C.3   100  ASP100      0.1450
     70  CG       -19.9500    3.6680   39.4570 C.2   100  ASP100      0.3671
     71  OD1      -20.4530    3.4880   38.3250 O.co2 100  ASP100     -0.2456
     72  OD2      -19.5370    2.7340   40.1800 O.co2 100  ASP100     -0.2456
     73  N        -21.3350    7.9680   39.7780 N.am  101  LEU101     -0.1963
     74  CA       -21.5760    9.2310   40.4550 C.3   101  LEU101      0.1728
     75  C        -21.4720    9.0370   41.9600 C.2   101  LEU101      0.2616
     76  O        -22.2080    8.2480   42.5500 O.2   101  LEU101     -0.2715
     77  CB       -22.9470    9.8030   40.0970 C.3   101  LEU101      0.0311
     78  CG       -23.2930   11.1220   40.8000 C.3   101  LEU101      0.0022
     79  CD1      -22.2380   12.1860   40.5210 C.3   101  LEU101      0.0001
     80  CD2      -24.6770   11.6180   40.3830 C.3   101  LEU101      0.0001
     81  N        -20.5450    9.7660   42.5640 N.am  102  MET102     -0.1977
     82  CA       -20.3410    9.7280   44.0010 C.3   102  MET102      0.1605
     83  C        -20.6140   11.1350   44.4970 C.2   102  MET102      0.2287
     84  O        -19.9210   12.0760   44.1140 O.2   102  MET102     -0.2864
     85  CB       -18.9100    9.2930   44.3210 C.3   102  MET102      0.0413
     86  CG       -18.5170    7.9680   43.6730 C.3   102  MET102      0.0598
     87  SD       -19.4150    6.5570   44.3680 S.3   102  MET102     -0.1393
     88  CE       -18.5090    6.3080   45.8910 C.3   102  MET102      0.0692
     89  N        -14.8590   16.9700   51.7790 N.3   108  LYS108     -0.1245
     90  CA       -16.0650   17.7740   51.8950 C.3   108  LYS108      0.1561
     91  C        -16.8800   17.3780   53.1230 C.2   108  LYS108      0.2260
     92  O        -17.4160   18.2390   53.8200 O.2   108  LYS108     -0.2867
     93  CB       -16.9130   17.6330   50.6310 C.3   108  LYS108      0.0271
     94  CG       -16.3090   18.3430   49.4300 C.3   108  LYS108      0.0035
     95  CD       -17.2740   18.4180   48.2540 C.3   108  LYS108      0.0206
     96  CE       -17.4080   17.0840   47.5400 C.3   108  LYS108      0.1093
     97  NZ       -17.3850   17.2530   46.0550 N.3   108  LYS108     -0.1314
     98  N        -13.8610    9.0590   47.5620 N.3   150  LEU150     -0.1245
     99  CA       -15.2230    9.3890   47.1640 C.3   150  LEU150      0.1561
    100  C        -16.2350    8.6110   47.9910 C.2   150  LEU150      0.2260
    101  O        -15.9830    7.4820   48.3680 O.2   150  LEU150     -0.2867
    102  CB       -15.4160    9.0470   45.6850 C.3   150  LEU150      0.0270
    103  CG       -14.4330    9.7260   44.7270 C.3   150  LEU150      0.0019
    104  CD1      -14.6290    9.2080   43.3150 C.3   150  LEU150      0.0001
    105  CD2      -14.6090   11.2280   44.7750 C.3   150  LEU150      0.0001
@<TRIPOS>BOND
     1    42    41    2
     2    41    40    1
     3    39    40    1
     4    40    43    1
     5    43    44    1
     6    37    36    2
     7    56    57    1
     8    36    35    1
     9    25    24    2
    10    27    28    1
    11    46    47    1
    12    46    45    1
    13    24    23    1
    14    44    45    1
    15    57    58    1
    16    57    60    1
    17    28    29    1
    18    28    31    1
    19    29    30    2
    20    61    60    1
    21    61    62    1
    22    16    15   ar
    23    34    35    1
    24    35    38    1
    25    59    58    2
    26    58    65   am
    27    17    15   ar
    28    62    64   am
    29    62    63    2
    30    15    14    1
    31    23    22    1
    32    23    26    1
    33    31    33    1
    34    31    32    1
    35    22    20   am
    36    65    66    1
    37    71    70   ar
    38    18    19    1
    39    18    11   am
    40    19    20    1
    41     1     2    1
    42    20    21    2
    43    14    13    1
    44    66    67    1
    45    66    69    1
    46    10    13    1
    47    10    11    1
    48    10     9    1
    49    11    12    2
    50    70    69    1
    51    70    72   ar
    52    67    73   am
    53    67    68    2
    54     8     6    1
    55    51    50    2
    56     6     5    1
    57    73    74    1
    58    50    49    1
    59     2     5    1
    60     2     3    1
    61     5     7    1
    62    77    74    1
    63    77    78    1
    64    80    78    1
    65    53    55    1
    66    53    52    1
    67    74    75    1
    68    79    78    1
    69     3     4    2
    70    54    52    1
    71    52    49    1
    72    49    48    1
    73    75    76    2
    74    75    81   am
    75    81    82    1
    76   104   103    1
    77    86    85    1
    78    86    87    1
    79    82    85    1
    80    82    83    1
    81    84    83    2
    82    87    88    1
    83   103   105    1
    84   103   102    1
    85   102    99    1
    86    97    96    1
    87    99    98    1
    88    99   100    1
    89    96    95    1
    90   100   101    2
    91    95    94    1
    92    94    93    1
    93    93    90    1
    94    89    90    1
    95    90    91    1
    96    91    92    2
