@<TRIPOS>MOLECULE
tmp/4n0xA00.pdb
 132 130 0 0 0
SMALL
GASTEIGER

@<TRIPOS>ATOM
      1  N         20.6970   -4.2240    6.3270 N.3    62  HIS62      -0.1241
      2  CA        20.5590   -5.2780    7.4910 C.3    62  HIS62       0.1621
      3  C         19.1370   -5.7590    7.9050 C.2    62  HIS62       0.2264
      4  O         18.8960   -6.7780    8.5790 O.2    62  HIS62      -0.2867
      5  CB        21.2810   -4.7670    8.7050 C.3    62  HIS62       0.0745
      6  CG        20.8410   -3.4220    9.1410 C.ar   62  HIS62       0.0817
      7  ND1       21.5180   -2.2760    8.7810 N.ar   62  HIS62      -0.2268
      8  CD2       19.8030   -3.0250    9.9120 C.ar   62  HIS62       0.1154
      9  CE1       20.9160   -1.2290    9.3160 C.ar   62  HIS62       0.1986
     10  NE2       19.8750   -1.6540   10.0100 N.ar   62  HIS62      -0.2212
     11  N          8.7060    3.8900   11.3020 N.3    90  GLN90      -0.1245
     12  CA         8.9710    2.7500   10.4250 C.3    90  GLN90       0.1566
     13  C          8.6870    1.4580   11.1970 C.2    90  GLN90       0.2260
     14  O          8.6670    1.4700   12.4160 O.2    90  GLN90      -0.2867
     15  CB        10.4400    2.7340    9.9550 C.3    90  GLN90       0.0367
     16  CG        11.4310    2.8660   11.1030 C.3    90  GLN90       0.0905
     17  CD        12.2290    1.6020   11.3560 C.2    90  GLN90       0.2608
     18  OE1       11.7180    0.5040   11.2120 O.2    90  GLN90      -0.2717
     19  NE2       13.4840    1.7680   11.7270 N.am   90  GLN90      -0.0878
     20  N         10.1010   -2.8500   10.9680 N.3    92  HIS92      -0.1241
     21  CA        11.0300   -3.7980   10.3500 C.3    92  HIS92       0.1621
     22  C         10.9580   -5.0890   11.1510 C.2    92  HIS92       0.2264
     23  O         10.3000   -5.1490   12.1880 O.2    92  HIS92      -0.2867
     24  CB        12.4700   -3.2430   10.3290 C.3    92  HIS92       0.0745
     25  CG        13.0080   -2.9910   11.7010 C.ar   92  HIS92       0.0817
     26  ND1       12.8290   -1.8040   12.3790 N.ar   92  HIS92      -0.2268
     27  CD2       13.6390   -3.8290   12.5520 C.ar   92  HIS92       0.1154
     28  CE1       13.3660   -1.9200   13.5920 C.ar   92  HIS92       0.1986
     29  NE2       13.8690   -3.1430   13.7200 N.ar   92  HIS92      -0.2212
     30  N         13.2890   -8.7900   12.4830 N.3    94  HIS94      -0.1241
     31  CA        14.5180   -9.5730   12.6390 C.3    94  HIS94       0.1621
     32  C         14.0980  -11.0290   12.4970 C.2    94  HIS94       0.2264
     33  O         13.0190  -11.4070   12.9660 O.2    94  HIS94      -0.2867
     34  CB        15.1370   -9.3430   14.0220 C.3    94  HIS94       0.0745
     35  CG        15.4080   -7.9060   14.3340 C.ar   94  HIS94       0.0817
     36  ND1       16.6650   -7.3430   14.1970 N.ar   94  HIS94      -0.2268
     37  CD2       14.5800   -6.9010   14.7180 C.ar   94  HIS94       0.1154
     38  CE1       16.5960   -6.0490   14.5130 C.ar   94  HIS94       0.1986
     39  NE2       15.3390   -5.7450   14.8080 N.ar   94  HIS94      -0.2212
     40  N          9.2960   -5.0050   14.9120 N.3   117  HIS117     -0.1241
     41  CA         9.5350   -3.7900   15.7080 C.3   117  HIS117      0.1621
     42  C          8.8500   -2.6340   15.0160 C.2   117  HIS117      0.2264
     43  O          9.2020   -2.2960   13.8680 O.2   117  HIS117     -0.2867
     44  CB        11.0380   -3.5190   15.7880 C.3   117  HIS117      0.0745
     45  CG        11.7260   -4.4860   16.6710 C.ar  117  HIS117      0.0817
     46  ND1       13.0880   -4.7330   16.6300 N.ar  117  HIS117     -0.2268
     47  CD2       11.2010   -5.3110   17.6070 C.ar  117  HIS117      0.1154
     48  CE1       13.3650   -5.6420   17.5640 C.ar  117  HIS117      0.1986
     49  NE2       12.2390   -6.0310   18.1450 N.ar  117  HIS117     -0.2212
     50  N          8.4900    1.1760   15.3030 N.3   119  VAL119     -0.1245
     51  CA         9.3560    2.1790   15.9280 C.3   119  VAL119      0.1561
     52  C          8.6400    3.5410   15.9620 C.2   119  VAL119      0.2260
     53  O          8.2010    4.0130   14.9200 O.2   119  VAL119     -0.2867
     54  CB        10.6400    2.3130   15.1540 C.3   119  VAL119      0.0252
     55  CG1       11.5660    3.3990   15.7870 C.3   119  VAL119      0.0019
     56  CG2       11.3840    0.9680   15.0270 C.3   119  VAL119      0.0019
     57  N         13.1220   12.6760   14.7550 N.3   128  PHE128     -0.1241
     58  CA        13.6410   11.3810   15.1870 C.3   128  PHE128      0.1605
     59  C         15.1090   11.4940   15.6220 C.2   128  PHE128      0.2264
     60  O         15.5370   10.8780   16.6220 O.2   128  PHE128     -0.2867
     61  CB        13.4670   10.3710   14.0440 C.3   128  PHE128      0.0534
     62  CG        14.0870    9.0370   14.3060 C.ar  128  PHE128     -0.0203
     63  CD1       13.3690    8.0480   14.9590 C.ar  128  PHE128     -0.0042
     64  CD2       15.3910    8.7660   13.9110 C.ar  128  PHE128     -0.0042
     65  CE1       13.9490    6.8140   15.2050 C.ar  128  PHE128     -0.0003
     66  CE2       15.9710    7.5430   14.1650 C.ar  128  PHE128     -0.0003
     67  CZ        15.2450    6.5630   14.8030 C.ar  128  PHE128     -0.0000
     68  N         12.3380    7.1740   22.2850 N.3   138  LEU138     -0.1245
     69  CA        11.6450    6.2170   21.4090 C.3   138  LEU138      0.1561
     70  C         10.7730    5.2550   22.1820 C.2   138  LEU138      0.2260
     71  O         11.0120    4.9810   23.3590 O.2   138  LEU138     -0.2867
     72  CB        12.6480    5.3740   20.6260 C.3   138  LEU138      0.0270
     73  CG        13.5930    5.9930   19.5830 C.3   138  LEU138      0.0019
     74  CD1       14.1480    4.8970   18.6440 C.3   138  LEU138      0.0001
     75  CD2       13.0670    7.1590   18.7930 C.3   138  LEU138      0.0001
     76  N          9.3480    1.3630   21.2030 N.3   140  VAL140     -0.1245
     77  CA         9.2880    0.3570   20.1520 C.3   140  VAL140      0.1561
     78  C          8.3650   -0.7360   20.6370 C.2   140  VAL140      0.2260
     79  O          8.5240   -1.2400   21.7620 O.2   140  VAL140     -0.2867
     80  CB        10.7000   -0.2520   19.8370 C.3   140  VAL140      0.0252
     81  CG1       10.5840   -1.3440   18.7250 C.3   140  VAL140      0.0019
     82  CG2       11.6930    0.8480   19.4220 C.3   140  VAL140      0.0019
     83  N         18.3770    0.7610   21.3490 N.3   195  LEU195     -0.1231
     84  CA        18.3240    0.2370   19.9910 C.3   195  LEU195      0.1693
     85  C         19.1000   -1.0740   19.9870 C.2   195  LEU195      0.2593
     86  O         20.0940   -1.2360   20.7130 O.2   195  LEU195     -0.2718
     87  CB        19.0170    1.2020   19.0350 C.3   195  LEU195      0.0284
     88  CG        18.4210    2.6170   18.9740 C.3   195  LEU195      0.0019
     89  CD1       19.2590    3.4030   17.9620 C.3   195  LEU195      0.0001
     90  CD2       16.9870    2.5800   18.5550 C.3   195  LEU195      0.0001
     91  N         18.6660   -2.0110   19.1570 N.am  196  THR196     -0.1939
     92  CA        19.3680   -3.3060   19.1450 C.3   196  THR196      0.2028
     93  C         20.3950   -3.4050   18.0080 C.2   196  THR196      0.2643
     94  O         21.0130   -4.4630   17.8400 O.2   196  THR196     -0.2714
     95  CB        18.3820   -4.4820   19.0210 C.3   196  THR196      0.1808
     96  OG1       17.7590   -4.4190   17.7330 O.3   196  THR196     -0.2208
     97  CG2       17.3430   -4.4840   20.1650 C.3   196  THR196      0.0379
     98  N         20.5240   -2.3540   17.1950 N.am  197  THR197     -0.1937
     99  CA        21.6330   -2.2670   16.2410 C.3   197  THR197      0.2013
    100  C         22.4030   -0.9900   16.5660 C.2   197  THR197      0.2484
    101  O         21.8520   -0.0720   17.2190 O.2   197  THR197     -0.2729
    102  CB        21.1370   -2.1340   14.8020 C.3   197  THR197      0.1807
    103  OG1       20.4370   -0.8980   14.6330 O.3   197  THR197     -0.2208
    104  CG2       20.1950   -3.2810   14.4580 C.3   197  THR197      0.0379
    105  N         23.6540   -0.9170   16.0870 N.am  198  PRO198     -0.2715
    106  CA        24.3710    0.3600   16.2090 C.3   198  PRO198      0.1521
    107  C         23.5040    1.4870   15.6550 C.2   198  PRO198      0.2440
    108  O         22.8190    1.3160   14.6200 O.2   198  PRO198     -0.2731
    109  CB        25.6230    0.1380   15.3280 C.3   198  PRO198      0.0310
    110  CG        25.9030   -1.3380   15.5070 C.3   198  PRO198      0.0237
    111  CD        24.4750   -1.9630   15.4460 C.3   198  PRO198      0.0939
    112  N         23.5340    2.6600   16.2860 N.am  199  PRO199     -0.2727
    113  CA        24.4630    3.0810   17.3380 C.3   199  PRO199      0.1402
    114  C         24.1460    2.6440   18.7730 C.2   199  PRO199      0.2269
    115  O         24.8250    3.1020   19.6970 O.2   199  PRO199     -0.2865
    116  CB        24.4250    4.6120   17.2130 C.3   199  PRO199      0.0296
    117  CG        23.0770    4.9030   16.7370 C.3   199  PRO199      0.0237
    118  CD        22.7580    3.7920   15.7590 C.3   199  PRO199      0.0939
    119  N         10.8270   -0.0900   25.7710 N.3   206  TRP206     -0.1241
    120  CA        10.3910   -1.2940   25.0610 C.3   206  TRP206      0.1605
    121  C          9.0350   -1.7320   25.5440 C.2   206  TRP206      0.2264
    122  O          8.7840   -1.7910   26.7370 O.2   206  TRP206     -0.2867
    123  CB        11.4240   -2.4510   25.2680 C.3   206  TRP206      0.0550
    124  CG        12.5300   -2.3230   24.3050 C.ar  206  TRP206      0.0003
    125  CD1       13.7570   -1.7250   24.4890 C.ar  206  TRP206      0.0946
    126  CD2       12.4840   -2.7330   22.9300 C.ar  206  TRP206      0.0152
    127  NE1       14.4740   -1.7700   23.2920 N.ar  206  TRP206     -0.2442
    128  CE2       13.7080   -2.3800   22.3360 C.ar  206  TRP206      0.0810
    129  CE3       11.5250   -3.3960   22.1530 C.ar  206  TRP206      0.0012
    130  CZ2       13.9900   -2.6370   20.9940 C.ar  206  TRP206      0.0191
    131  CZ3       11.8110   -3.6630   20.8180 C.ar  206  TRP206      0.0001
    132  CH2       13.0330   -3.2910   20.2550 C.ar  206  TRP206      0.0015
@<TRIPOS>BOND
     1     1     2    1
     2     2     3    1
     3     2     5    1
     4     3     4    2
     5     5     6    1
     6     7     6   ar
     7     7     9   ar
     8     6     8   ar
     9     9    10   ar
    10     8    10   ar
    11    15    12    1
    12    15    16    1
    13    24    21    1
    14    24    25    1
    15    21    20    1
    16    21    22    1
    17    12    13    1
    18    12    11    1
    19    16    17    1
    20    22    23    2
    21    13    14    2
    22    18    17    2
    23    17    19   am
    24    25    26   ar
    25    25    27   ar
    26    26    28   ar
    27    30    31    1
    28    32    31    1
    29    32    33    2
    30    27    29   ar
    31    31    34    1
    32    28    29   ar
    33    43    42    2
    34    64    66   ar
    35    64    62   ar
    36    34    35    1
    37    61    62    1
    38    61    58    1
    39    66    67   ar
    40    36    35   ar
    41    36    38   ar
    42    62    63   ar
    43    35    37   ar
    44   104   102    1
    45    38    39   ar
    46   108   107    2
    47   103   102    1
    48    37    39   ar
    49    57    58    1
    50   102    99    1
    51    67    65   ar
    52    40    41    1
    53    53    52    2
    54    63    65   ar
    55    42    41    1
    56    56    54    1
    57    54    55    1
    58    54    51    1
    59    58    59    1
    60    50    51    1
    61   109   110    1
    62   109   106    1
    63   111   110    1
    64   111   105    1
    65    59    60    2
    66   107   106    1
    67   107   112   am
    68    41    44    1
    69   118   112    1
    70   118   117    1
    71    44    45    1
    72    51    52    1
    73   105   106    1
    74   105   100   am
    75    99   100    1
    76    99    98    1
    77   112   113    1
    78   100   101    2
    79    46    45   ar
    80    46    48   ar
    81    45    47   ar
    82   117   116    1
    83    98    93   am
    84   116   113    1
    85   113   114    1
    86    48    49   ar
    87    47    49   ar
    88    96    95    1
    89    94    93    2
    90    89    88    1
    91    93    92    1
    92    90    88    1
    93    74    73    1
    94    81    80    1
    95   114   115    2
    96    75    73    1
    97    88    87    1
    98    95    92    1
    99    95    97    1
   100    87    84    1
   101    92    91    1
   102    91    85   am
   103    82    80    1
   104    73    72    1
   105    80    77    1
   106    85    84    1
   107    85    86    2
   108    84    83    1
   109    77    78    1
   110    77    76    1
   111   132   131   ar
   112   132   130   ar
   113    72    69    1
   114    78    79    2
   115   131   129   ar
   116   130   128   ar
   117    69    70    1
   118    69    68    1
   119   129   126   ar
   120    70    71    2
   121   128   126   ar
   122   128   127   ar
   123   126   124   ar
   124   127   125   ar
   125   124   125   ar
   126   124   123    1
   127   120   123    1
   128   120   121    1
   129   120   119    1
   130   121   122    2
