@<TRIPOS>MOLECULE
tmp/4n11A00.pdb
 78 76 0 0 0
SMALL
GASTEIGER

@<TRIPOS>ATOM
      1  N         39.7420   15.0820    5.4950 N.3    28  TYR28      -0.1241
      2  CA        39.3740   16.4200    5.9750 C.3    28  TYR28       0.1605
      3  C         40.0480   17.5820    5.1950 C.2    28  TYR28       0.2264
      4  O         39.4490   18.6490    5.0240 O.2    28  TYR28      -0.2867
      5  CB        39.5180   16.5370    7.5130 C.3    28  TYR28       0.0534
      6  CG        38.4690   15.6660    8.2090 C.ar   28  TYR28      -0.0201
      7  CD1       37.1310   16.0370    8.2370 C.ar   28  TYR28      -0.0009
      8  CD2       38.8150   14.4610    8.7970 C.ar   28  TYR28      -0.0009
      9  CE1       36.1630   15.2260    8.8460 C.ar   28  TYR28       0.0417
     10  CE2       37.8560   13.6410    9.4030 C.ar   28  TYR28       0.0417
     11  CZ        36.5410   14.0290    9.4170 C.ar   28  TYR28       0.1957
     12  OH        35.6070   13.2140   10.0220 O.3    28  TYR28      -0.2866
     13  N         47.3350   24.5600   16.7340 N.3    69  LYS69      -0.1245
     14  CA        47.3530   23.1510   16.3360 C.3    69  LYS69       0.1561
     15  C         48.3500   22.8760   15.2120 C.2    69  LYS69       0.2260
     16  O         48.5650   23.7300   14.3490 O.2    69  LYS69      -0.2867
     17  CB        45.9670   22.6830   15.8890 C.3    69  LYS69       0.0271
     18  CG        44.8590   22.7990   16.9280 C.3    69  LYS69       0.0035
     19  CD        43.5870   22.1740   16.3590 C.3    69  LYS69       0.0206
     20  CE        42.4030   22.2580   17.3060 C.3    69  LYS69       0.1093
     21  NZ        41.1890   21.6170   16.6750 N.3    69  LYS69      -0.1314
     22  N         47.9320   20.1280   13.2640 N.3    71  SER71      -0.1202
     23  CA        47.2590   19.2220   12.3290 C.3    71  SER71       0.2020
     24  C         46.8920   19.9180   11.0180 C.2    71  SER71       0.2619
     25  O         46.7470   21.1290   10.9850 O.2    71  SER71      -0.2717
     26  CB        45.9910   18.6450   12.9630 C.3    71  SER71       0.2103
     27  OG        45.1140   19.6850   13.3760 O.3    71  SER71      -0.2182
     28  N         46.7370   19.1430    9.9500 N.am   72  VAL72      -0.1966
     29  CA        46.1640   19.6600    8.7090 C.3    72  VAL72       0.1712
     30  C         44.7330   19.1140    8.5020 C.2    72  VAL72       0.2458
     31  O         44.3880   18.0540    9.0190 O.2    72  VAL72      -0.2730
     32  CB        47.0760   19.3700    7.4740 C.3    72  VAL72       0.0289
     33  CG1       48.4550   19.9960    7.6460 C.3    72  VAL72       0.0023
     34  CG2       47.1710   17.8880    7.2320 C.3    72  VAL72       0.0023
     35  N         43.8870   19.8400    7.7480 N.am   73  PRO73      -0.2716
     36  CA        44.1960   21.1140    7.0950 C.3    73  PRO73       0.1536
     37  C         44.3620   22.2580    8.1100 C.2    73  PRO73       0.2598
     38  O         43.7730   22.2240    9.1850 O.2    73  PRO73      -0.2715
     39  CB        42.9750   21.3600    6.2070 C.3    73  PRO73       0.0310
     40  CG        41.8320   20.6420    6.9530 C.3    73  PRO73       0.0237
     41  CD        42.4970   19.3960    7.4880 C.3    73  PRO73       0.0939
     42  N         45.1820   23.2400    7.7630 N.am   74  ARG74      -0.1978
     43  CA        45.2800   24.4750    8.5310 C.3    74  ARG74       0.1597
     44  C         44.9220   25.5940    7.5570 C.2    74  ARG74       0.2287
     45  O         45.5910   25.7690    6.5370 O.2    74  ARG74      -0.2864
     46  CB        46.7090   24.6710    9.0430 C.3    74  ARG74       0.0334
     47  CG        46.8300   25.3720   10.4050 C.3    74  ARG74       0.0492
     48  CD        46.8990   24.3720   11.5740 C.3    74  ARG74       0.2205
     49  NE        45.6530   23.6260   11.7850 N.pl3  74  ARG74      -0.0865
     50  CZ        44.6500   24.0340   12.5620 C.cat  74  ARG74       0.5346
     51  NH1       44.7400   25.1790   13.2240 N.pl3  74  ARG74       0.1354
     52  NH2       43.5620   23.2820   12.6940 N.pl3  74  ARG74       0.1354
     53  N         40.8140   24.2930   11.3030 N.3    84  GLY84      -0.1210
     54  CA        40.7560   23.0740   10.5300 C.3    84  GLY84       0.1956
     55  C         39.4370   22.9330    9.7900 C.2    84  GLY84       0.2612
     56  O         38.6190   23.8660    9.7180 O.2    84  GLY84      -0.2717
     57  N         39.2180   21.7430    9.2470 N.am   85  CYS85      -0.1956
     58  CA        37.9900   21.4910    8.5130 C.3    85  CYS85       0.1843
     59  C         36.7370   21.6450    9.3900 C.2    85  CYS85       0.2625
     60  O         35.7430   22.1660    8.9220 O.2    85  CYS85      -0.2714
     61  CB        38.0180   20.1130    7.8630 C.3    85  CYS85       0.0997
     62  SG        36.6120   19.8240    6.6890 S.3    85  CYS85      -0.0797
     63  N         36.7620   21.1650   10.6350 N.am   86  ASP86      -0.1957
     64  CA        35.5740   21.2930   11.5070 C.3    86  ASP86       0.1840
     65  C         35.2620   22.7690   11.7900 C.2    86  ASP86       0.2622
     66  O         34.1010   23.1900   11.8500 O.2    86  ASP86      -0.2715
     67  CB        35.7610   20.5550   12.8420 C.3    86  ASP86       0.1450
     68  CG        35.9620   19.0540   12.6860 C.2    86  ASP86       0.3671
     69  OD1       35.8080   18.4980   11.5720 O.co2  86  ASP86      -0.2456
     70  OD2       36.2650   18.4080   13.7150 O.co2  86  ASP86      -0.2456
     71  N         36.3040   23.5710   11.9590 N.am   87  ASP87      -0.1971
     72  CA        36.0810   25.0080   12.1270 C.3    87  ASP87       0.1709
     73  C         35.4320   25.6320   10.9000 C.2    87  ASP87       0.2293
     74  O         34.5390   26.4690   11.0250 O.2    87  ASP87      -0.2864
     75  CB        37.3910   25.7240   12.4460 C.3    87  ASP87       0.1436
     76  CG        38.0290   25.1920   13.6940 C.2    87  ASP87       0.3671
     77  OD1       37.4320   25.3860   14.7700 O.co2  87  ASP87      -0.2456
     78  OD2       39.1090   24.5660   13.5960 O.co2  87  ASP87      -0.2456
@<TRIPOS>BOND
     1     4     3    2
     2     3     2    1
     3     1     2    1
     4     2     5    1
     5    39    40    1
     6    39    36    1
     7    45    44    2
     8    62    61    1
     9    40    41    1
    10    36    35    1
    11    36    37    1
    12    34    32    1
    13    32    33    1
    14    32    29    1
    15    41    35    1
    16     5     6    1
    17    44    43    1
    18    35    30   am
    19    42    37   am
    20    42    43    1
    21    61    58    1
    22    37    38    2
    23     6     7   ar
    24     6     8   ar
    25     7     9   ar
    26    30    29    1
    27    30    31    2
    28    58    57    1
    29    58    59    1
    30    43    46    1
    31    29    28    1
    32     8    10   ar
    33     9    11   ar
    34    60    59    2
    35    46    47    1
    36    57    55   am
    37    59    63   am
    38    10    11   ar
    39    11    12    1
    40    56    55    2
    41    55    54    1
    42    28    24   am
    43    47    48    1
    44    54    53    1
    45    63    64    1
    46    73    74    2
    47    73    72    1
    48    25    24    2
    49    24    23    1
    50    64    65    1
    51    64    67    1
    52    69    68   ar
    53    48    49    1
    54    49    50    2
    55    65    66    2
    56    65    71   am
    57    71    72    1
    58    72    75    1
    59    23    26    1
    60    23    22    1
    61    75    76    1
    62    50    52    1
    63    50    51    1
    64    68    67    1
    65    68    70   ar
    66    26    27    1
    67    78    76   ar
    68    76    77   ar
    69    16    15    2
    70    15    14    1
    71    17    14    1
    72    17    18    1
    73    14    13    1
    74    19    18    1
    75    19    20    1
    76    21    20    1
