@<TRIPOS>MOLECULE
tmp/4n14A00.pdb
 108 104 0 0 0
SMALL
GASTEIGER

@<TRIPOS>ATOM
      1  N        -35.6770   -3.2760   65.0150 N.3    10  ARG10      -0.1231
      2  CA       -35.1270   -3.3930   66.3580 C.3    10  ARG10       0.1694
      3  C        -33.6060   -3.4290   66.3150 C.2    10  ARG10       0.2592
      4  O        -33.0160   -3.9580   65.3740 O.2    10  ARG10      -0.2718
      5  CB       -35.6610   -4.6590   67.0300 C.3    10  ARG10       0.0321
      6  CG       -35.1000   -4.9280   68.4170 C.3    10  ARG10       0.0489
      7  CD       -35.6780   -6.2120   68.9960 C.3    10  ARG10       0.2205
      8  NE       -37.1020   -6.0850   69.3070 N.pl3  10  ARG10      -0.0865
      9  CZ       -37.5860   -5.6880   70.4820 C.cat  10  ARG10       0.5346
     10  NH1      -36.7700   -5.3720   71.4820 N.pl3  10  ARG10       0.1354
     11  NH2      -38.8960   -5.6070   70.6630 N.pl3  10  ARG10       0.1354
     12  N        -32.9790   -2.8540   67.3360 N.am   11  ILE11      -0.1966
     13  CA       -31.5270   -2.8840   67.4560 C.3    11  ILE11       0.1727
     14  C        -31.1140   -3.4610   68.8030 C.2    11  ILE11       0.2616
     15  O        -31.5760   -3.0170   69.8530 O.2    11  ILE11      -0.2715
     16  CB       -30.9120   -1.4840   67.2920 C.3    11  ILE11       0.0290
     17  CG1      -31.1520   -0.9760   65.8680 C.3    11  ILE11       0.0022
     18  CG2      -29.4180   -1.5190   67.6040 C.3    11  ILE11       0.0023
     19  CD1      -30.4800    0.3470   65.5520 C.3    11  ILE11       0.0001
     20  N        -30.2410   -4.4590   68.7570 N.am   12  LEU12      -0.1963
     21  CA       -29.7060   -5.0770   69.9610 C.3    12  LEU12       0.1728
     22  C        -28.2550   -4.6460   70.1200 C.2    12  LEU12       0.2616
     23  O        -27.5140   -4.5770   69.1420 O.2    12  LEU12      -0.2715
     24  CB       -29.7900   -6.6010   69.8570 C.3    12  LEU12       0.0311
     25  CG       -31.1480   -7.1710   69.4360 C.3    12  LEU12       0.0022
     26  CD1      -31.0130   -8.6270   69.0230 C.3    12  LEU12       0.0001
     27  CD2      -32.1650   -7.0280   70.5580 C.3    12  LEU12       0.0001
     28  N        -27.8510   -4.3460   71.3480 N.am   13  ASP13      -0.1957
     29  CA       -26.4700   -3.9640   71.6140 C.3    13  ASP13       0.1840
     30  C        -25.5860   -5.2040   71.6770 C.2    13  ASP13       0.2622
     31  O        -25.9030   -6.1700   72.3720 O.2    13  ASP13      -0.2715
     32  CB       -26.3670   -3.1770   72.9200 C.3    13  ASP13       0.1450
     33  CG       -27.2330   -1.9310   72.9180 C.2    13  ASP13       0.3671
     34  OD1      -27.9220   -1.6850   73.9300 O.co2  13  ASP13      -0.2456
     35  OD2      -27.2270   -1.1990   71.9050 O.co2  13  ASP13      -0.2456
     36  N        -24.4790   -5.1690   70.9430 N.am   14  ALA14      -0.1964
     37  CA       -23.5520   -6.2930   70.8830 C.3    14  ALA14       0.1713
     38  C        -22.1680   -5.8540   71.3460 C.2    14  ALA14       0.2458
     39  O        -21.2170   -5.8520   70.5640 O.2    14  ALA14      -0.2730
     40  CB       -23.4880   -6.8460   69.4670 C.3    14  ALA14       0.0333
     41  N        -22.0490   -5.4820   72.6290 N.am   15  PRO15      -0.2727
     42  CA       -20.7760   -4.9880   73.1640 C.3    15  PRO15       0.1402
     43  C        -19.6680   -6.0330   73.0950 C.2    15  PRO15       0.2269
     44  O        -19.9030   -7.2120   73.3630 O.2    15  PRO15      -0.2865
     45  CB       -21.1120   -4.6540   74.6220 C.3    15  PRO15       0.0296
     46  CG       -22.2990   -5.4880   74.9440 C.3    15  PRO15       0.0237
     47  CD       -23.0830   -5.5860   73.6720 C.3    15  PRO15       0.0939
     48  N        -25.4950  -15.3130   70.0760 N.3    36  VAL36      -0.1245
     49  CA       -24.5670  -14.2340   69.7700 C.3    36  VAL36       0.1561
     50  C        -23.2820  -14.4100   70.5630 C.2    36  VAL36       0.2260
     51  O        -23.3010  -14.4690   71.7900 O.2    36  VAL36      -0.2867
     52  CB       -25.1780  -12.8620   70.1010 C.3    36  VAL36       0.0252
     53  CG1      -24.2450  -11.7430   69.6660 C.3    36  VAL36       0.0019
     54  CG2      -26.5340  -12.7180   69.4290 C.3    36  VAL36       0.0019
     55  N        -20.2020  -12.8800   72.0130 N.3    38  LEU38      -0.1245
     56  CA       -19.5700  -11.6220   72.3930 C.3    38  LEU38       0.1561
     57  C        -18.2580  -11.8900   73.1250 C.2    38  LEU38       0.2260
     58  O        -18.2570  -12.3350   74.2750 O.2    38  LEU38      -0.2867
     59  CB       -20.5080  -10.7930   73.2730 C.3    38  LEU38       0.0270
     60  CG       -21.8400  -10.4030   72.6250 C.3    38  LEU38       0.0019
     61  CD1      -22.6540   -9.5260   73.5650 C.3    38  LEU38       0.0001
     62  CD2      -21.6160   -9.7040   71.2910 C.3    38  LEU38       0.0001
     63  N        -24.3170  -15.4770   74.2370 N.3    43  TYR43      -0.1241
     64  CA       -25.6080  -15.1010   74.7930 C.3    43  TYR43       0.1605
     65  C        -26.7240  -15.5770   73.8730 C.2    43  TYR43       0.2264
     66  O        -26.5940  -15.5250   72.6510 O.2    43  TYR43      -0.2867
     67  CB       -25.6920  -13.5830   74.9790 C.3    43  TYR43       0.0534
     68  CG       -24.7740  -13.0420   76.0540 C.ar   43  TYR43      -0.0201
     69  CD1      -25.2520  -12.7700   77.3290 C.ar   43  TYR43      -0.0009
     70  CD2      -23.4310  -12.8060   75.7940 C.ar   43  TYR43      -0.0009
     71  CE1      -24.4160  -12.2760   78.3160 C.ar   43  TYR43       0.0417
     72  CE2      -22.5880  -12.3120   76.7730 C.ar   43  TYR43       0.0417
     73  CZ       -23.0860  -12.0490   78.0320 C.ar   43  TYR43       0.1957
     74  OH       -22.2520  -11.5570   79.0100 O.3    43  TYR43      -0.2866
     75  N        -30.7110  -15.0100   72.8190 N.3    45  TRP45      -0.1241
     76  CA       -31.7900  -14.0360   72.8900 C.3    45  TRP45       0.1605
     77  C        -33.0390  -14.5880   72.2140 C.2    45  TRP45       0.2264
     78  O        -33.0320  -14.8870   71.0190 O.2    45  TRP45      -0.2867
     79  CB       -31.3630  -12.7200   72.2340 C.3    45  TRP45       0.0550
     80  CG       -32.4370  -11.6740   72.2170 C.ar   45  TRP45       0.0003
     81  CD1      -32.8580  -10.9120   73.2680 C.ar   45  TRP45       0.0946
     82  CD2      -33.2210  -11.2690   71.0890 C.ar   45  TRP45       0.0152
     83  NE1      -33.8580  -10.0600   72.8640 N.ar   45  TRP45      -0.2442
     84  CE2      -34.0990  -10.2590   71.5290 C.ar   45  TRP45       0.0810
     85  CE3      -33.2660  -11.6620   69.7470 C.ar   45  TRP45       0.0012
     86  CZ2      -35.0110   -9.6370   70.6790 C.ar   45  TRP45       0.0191
     87  CZ3      -34.1710  -11.0440   68.9040 C.ar   45  TRP45       0.0001
     88  CH2      -35.0310  -10.0420   69.3720 C.ar   45  TRP45       0.0015
     89  N        -37.7320  -11.7650   74.3570 N.3    50  GLY50      -0.1225
     90  CA       -36.7090  -10.7630   74.5960 C.3    50  GLY50       0.1811
     91  C        -35.7910  -11.1620   75.7370 C.2    50  GLY50       0.2280
     92  O        -34.9580  -10.3740   76.1860 O.2    50  GLY50      -0.2866
     93  N        -32.7810  -13.0320   77.8000 N.3    52  ILE52      -0.1245
     94  CA       -31.3800  -13.3260   77.5170 C.3    52  ILE52       0.1561
     95  C        -30.8200  -14.3600   78.4850 C.2    52  ILE52       0.2260
     96  O        -31.0430  -14.2820   79.6930 O.2    52  ILE52      -0.2867
     97  CB       -30.4960  -12.0640   77.6060 C.3    52  ILE52       0.0252
     98  CG1      -30.6930  -11.1810   76.3750 C.3    52  ILE52       0.0019
     99  CG2      -29.0250  -12.4430   77.7160 C.3    52  ILE52       0.0019
    100  CD1      -31.7750  -10.1500   76.5320 C.3    52  ILE52       0.0001
    101  N        -26.5610   -5.2850   66.6700 N.3   303  LEU303     -0.1245
    102  CA       -27.2380   -6.2210   65.7890 C.3   303  LEU303      0.1561
    103  C        -28.5140   -5.5510   65.3090 C.2   303  LEU303      0.2260
    104  O        -29.3690   -5.1840   66.1140 O.2   303  LEU303     -0.2867
    105  CB       -27.5780   -7.5200   66.5190 C.3   303  LEU303      0.0270
    106  CG       -26.7650   -8.7530   66.1230 C.3   303  LEU303      0.0019
    107  CD1      -25.4320   -8.7780   66.8520 C.3   303  LEU303      0.0001
    108  CD2      -27.5610  -10.0250   66.3870 C.3   303  LEU303      0.0001
@<TRIPOS>BOND
     1     1     2    1
     2   103   102    1
     3   103   104    2
     4     4     3    2
     5    19    17    1
     6   102   105    1
     7   102   101    1
     8    17    16    1
     9   106   108    1
    10   106   105    1
    11   106   107    1
    12     3     2    1
    13     3    12   am
    14     2     5    1
    15     5     6    1
    16    16    13    1
    17    16    18    1
    18    12    13    1
    19    13    14    1
    20     6     7    1
    21    20    14   am
    22    20    21    1
    23    14    15    2
    24    87    88   ar
    25    87    85   ar
    26     7     8    1
    27    26    25    1
    28    23    22    2
    29     8     9    2
    30    88    86   ar
    31    54    52    1
    32    25    24    1
    33    25    27    1
    34    40    37    1
    35    53    52    1
    36    85    82   ar
    37    49    48    1
    38    49    52    1
    39    49    50    1
    40    24    21    1
    41    21    22    1
    42    22    28   am
    43     9    11    1
    44     9    10    1
    45    50    51    2
    46    39    38    2
    47    86    84   ar
    48    37    36    1
    49    37    38    1
    50    36    30   am
    51    78    77    2
    52    82    84   ar
    53    82    80   ar
    54    62    60    1
    55    38    41   am
    56    28    29    1
    57    84    83   ar
    58    29    30    1
    59    29    32    1
    60    30    31    2
    61    35    33   ar
    62    55    56    1
    63    77    76    1
    64    80    79    1
    65    80    81   ar
    66    79    76    1
    67    56    57    1
    68    56    59    1
    69    60    59    1
    70    60    61    1
    71    41    42    1
    72    41    47    1
    73    66    65    2
    74    75    76    1
    75    83    81   ar
    76    33    32    1
    77    33    34   ar
    78    43    42    1
    79    43    44    2
    80    57    58    2
    81    42    45    1
    82    47    46    1
    83    65    64    1
    84    63    64    1
    85    89    90    1
    86    90    91    1
    87    45    46    1
    88    64    67    1
    89    67    68    1
    90    91    92    2
    91    70    68   ar
    92    70    72   ar
    93    68    69   ar
    94    98   100    1
    95    98    97    1
    96    72    73   ar
    97    69    71   ar
    98    94    97    1
    99    94    93    1
   100    94    95    1
   101    97    99    1
   102    73    71   ar
   103    73    74    1
   104    95    96    2
