@<TRIPOS>MOLECULE
tmp/4n15A00.pdb
 135 125 0 0 0
SMALL
GASTEIGER

@<TRIPOS>ATOM
      1  N         27.2160   19.2070    0.0380 N.3     8  VAL8       -0.1231
      2  CA        25.8640   19.0470   -0.4770 C.3     8  VAL8        0.1692
      3  C         24.9300   20.2260   -0.1830 C.2     8  VAL8        0.2592
      4  O         23.9570   20.4560   -0.9100 O.2     8  VAL8       -0.2718
      5  CB        25.1760   17.7810    0.0480 C.3     8  VAL8        0.0266
      6  CG1       25.8870   16.5690   -0.4470 C.3     8  VAL8        0.0020
      7  CG2       25.0400   17.7940    1.5760 C.3     8  VAL8        0.0020
      8  N         25.2110   20.9470    0.8990 N.am    9  HIS9       -0.1976
      9  CA        24.3410   22.0170    1.3580 C.3     9  HIS9        0.1656
     10  C         24.5480   23.2910    0.5350 C.2     9  HIS9        0.2291
     11  O         25.5500   23.4490   -0.2040 O.2     9  HIS9       -0.2864
     12  CB        24.5610   22.3050    2.8540 C.3     9  HIS9        0.0771
     13  CG        24.1130   21.1990    3.7530 C.ar    9  HIS9        0.0820
     14  ND1       22.7800   20.8950    3.9340 N.ar    9  HIS9       -0.2267
     15  CD2       24.8080   20.3180    4.5140 C.ar    9  HIS9        0.1154
     16  CE1       22.6730   19.8670    4.7650 C.ar    9  HIS9        0.1986
     17  NE2       23.8860   19.5060    5.1380 N.ar    9  HIS9       -0.2212
     18  N         24.3440   27.6450    4.3340 N.3    13  PHE13      -0.1241
     19  CA        24.1170   26.6420    5.3730 C.3    13  PHE13       0.1605
     20  C         25.3110   26.6700    6.3180 C.2    13  PHE13       0.2264
     21  O         26.3980   27.0270    5.9060 O.2    13  PHE13      -0.2867
     22  CB        23.9080   25.2690    4.7170 C.3    13  PHE13       0.0534
     23  CG        23.3360   24.2270    5.6360 C.ar   13  PHE13      -0.0203
     24  CD1       21.9880   24.1890    5.9030 C.ar   13  PHE13      -0.0042
     25  CD2       24.1710   23.2680    6.2090 C.ar   13  PHE13      -0.0042
     26  CE1       21.4750   23.2300    6.7370 C.ar   13  PHE13      -0.0003
     27  CE2       23.6450   22.3030    7.0450 C.ar   13  PHE13      -0.0003
     28  CZ        22.2880   22.3120    7.3020 C.ar   13  PHE13      -0.0000
     29  N         27.8810   12.8680   -1.9230 N.3    47  GLU47      -0.1245
     30  CA        28.9190   12.6700   -0.9120 C.3    47  GLU47       0.1567
     31  C         29.8710   11.5150   -1.2760 C.2    47  GLU47       0.2260
     32  O         31.0880   11.6400   -1.1290 O.2    47  GLU47      -0.2867
     33  CB        28.3520   12.4950    0.5120 C.3    47  GLU47       0.0388
     34  CG        27.5810   13.7320    1.0040 C.3    47  GLU47       0.1160
     35  CD        27.6090   13.9290    2.4870 C.2    47  GLU47       0.3649
     36  OE1       27.6300   12.9140    3.2180 O.co2  47  GLU47      -0.2457
     37  OE2       27.6620   15.1100    2.9410 O.co2  47  GLU47      -0.2457
     38  N         33.4850   18.4920    2.9020 N.3    63  ARG63      -0.1245
     39  CA        32.7620   18.4640    4.1650 C.3    63  ARG63       0.1563
     40  C         31.5940   17.5110    3.9470 C.2    63  ARG63       0.2260
     41  O         30.6550   17.8220    3.1890 O.2    63  ARG63      -0.2867
     42  CB        32.2650   19.8850    4.4730 C.3    63  ARG63       0.0307
     43  CG        31.7760   20.0890    5.9250 C.3    63  ARG63       0.0489
     44  CD        30.6090   19.2160    6.3540 C.3    63  ARG63       0.2205
     45  NE        29.4940   19.3400    5.4130 N.pl3  63  ARG63      -0.0865
     46  CZ        28.5230   18.4330    5.2870 C.cat  63  ARG63       0.5346
     47  NH1       27.5900   18.5970    4.3840 N.pl3  63  ARG63       0.1354
     48  NH2       28.4890   17.3500    6.0620 N.pl3  63  ARG63       0.1354
     49  N         29.1440   13.9370    5.6150 N.3    65  ASN65      -0.1240
     50  CA        28.6110   13.3370    6.8160 C.3    65  ASN65       0.1653
     51  C         29.3950   12.0670    7.1160 C.2    65  ASN65       0.2266
     52  O         29.8200   11.3440    6.1970 O.2    65  ASN65      -0.2867
     53  CB        27.1340   13.0300    6.6020 C.3    65  ASN65       0.1155
     54  CG        26.4640   12.5540    7.8650 C.2    65  ASN65       0.2627
     55  OD1       26.1520   11.3710    8.0250 O.2    65  ASN65      -0.2716
     56  ND2       26.2090   13.4940    8.7690 N.am   65  ASN65      -0.0877
     57  N         26.1840   17.6060   14.1340 N.3   120  SER120     -0.1217
     58  CA        25.0680   17.5670   13.1770 C.3   120  SER120      0.1889
     59  C         23.7610   17.2730   13.8920 C.2   120  SER120      0.2288
     60  O         22.8310   16.6710   13.3360 O.2   120  SER120     -0.2866
     61  CB        25.3640   16.5560   12.0680 C.3   120  SER120      0.2089
     62  OG        24.4900   16.6970   10.9540 O.3   120  SER120     -0.2183
     63  N         19.6880   12.8970   14.3140 N.3   123  ARG123     -0.1245
     64  CA        18.8310   12.4940   13.1990 C.3   123  ARG123      0.1563
     65  C         17.5250   11.8490   13.6910 C.2   123  ARG123      0.2260
     66  O         17.5610   10.9650   14.5420 O.2   123  ARG123     -0.2867
     67  CB        19.5860   11.5120   12.2990 C.3   123  ARG123      0.0307
     68  CG        20.8580   12.0840   11.7330 C.3   123  ARG123      0.0489
     69  CD        21.6250   11.0960   10.8560 C.3   123  ARG123      0.2205
     70  NE        21.0070   10.8920    9.5470 N.pl3 123  ARG123     -0.0865
     71  CZ        21.2960   11.5580    8.4440 C.cat 123  ARG123      0.5346
     72  NH1       22.1730   12.5390    8.4710 N.pl3 123  ARG123      0.1354
     73  NH2       20.6930   11.2450    7.3050 N.pl3 123  ARG123      0.1354
     74  N         14.1880    6.5120    2.9570 N.3   143  ARG143     -0.1245
     75  CA        15.4690    6.7740    2.3560 C.3   143  ARG143      0.1563
     76  C         16.5170    6.7780    3.4510 C.2   143  ARG143      0.2260
     77  O         16.3150    7.3810    4.4920 O.2   143  ARG143     -0.2867
     78  CB        15.4970    8.1290    1.6530 C.3   143  ARG143      0.0307
     79  CG        16.8930    8.5060    1.1220 C.3   143  ARG143      0.0489
     80  CD        17.6780    9.3750    2.1260 C.3   143  ARG143      0.2205
     81  NE        19.0140    9.6870    1.6220 N.pl3 143  ARG143     -0.0865
     82  CZ        19.8820   10.4520    2.2890 C.cat 143  ARG143      0.5346
     83  NH1       19.5400   10.9190    3.4920 N.pl3 143  ARG143      0.1354
     84  NH2       21.0790   10.7060    1.7900 N.pl3 143  ARG143      0.1354
     85  N         21.0870    7.0690    3.8100 N.3   145  GLN145     -0.1245
     86  CA        22.3830    7.2010    3.1870 C.3   145  GLN145      0.1566
     87  C         22.9060    5.8210    2.7840 C.2   145  GLN145      0.2260
     88  O         22.5230    4.8310    3.3770 O.2   145  GLN145     -0.2867
     89  CB        23.3600    7.8490    4.1690 C.3   145  GLN145      0.0367
     90  CG        22.9850    9.2640    4.5700 C.3   145  GLN145      0.0905
     91  CD        23.6240    9.6880    5.8760 C.2   145  GLN145      0.2608
     92  OE1       23.2920    9.1750    6.9480 O.2   145  GLN145     -0.2717
     93  NE2       24.5620   10.6220    5.7840 N.am  145  GLN145     -0.0878
     94  N         21.6300   12.4650   -1.1600 N.3   166  PHE166     -0.1241
     95  CA        20.8980   13.5150   -0.4700 C.3   166  PHE166      0.1605
     96  C         20.1320   14.4090   -1.4530 C.2   166  PHE166      0.2264
     97  O         18.9630   14.6670   -1.2370 O.2   166  PHE166     -0.2867
     98  CB        21.8570   14.3540    0.3870 C.3   166  PHE166      0.0534
     99  CG        21.1680   15.2870    1.3600 C.ar  166  PHE166     -0.0203
    100  CD1       20.2820   14.7980    2.3000 C.ar  166  PHE166     -0.0042
    101  CD2       21.4390   16.6240    1.3630 C.ar  166  PHE166     -0.0042
    102  CE1       19.6580   15.6480    3.1850 C.ar  166  PHE166     -0.0003
    103  CE2       20.8280   17.4730    2.2720 C.ar  166  PHE166     -0.0003
    104  CZ        19.9530   16.9780    3.1820 C.ar  166  PHE166     -0.0000
    105  N         16.8220   12.8070    9.4360 N.3   183  ASN183     -0.1225
    106  CA        17.8000   13.8660    9.4610 C.3   183  ASN183      0.1785
    107  C         17.5640   14.8320   10.5910 C.2   183  ASN183      0.2597
    108  O         16.5750   14.7250   11.3330 O.2   183  ASN183     -0.2718
    109  CB        17.8420   14.6400    8.1460 C.3   183  ASN183      0.1169
    110  CG        19.2390   14.8920    7.6950 C.2   183  ASN183      0.2627
    111  OD1       20.0560   15.4440    8.4440 O.2   183  ASN183     -0.2716
    112  ND2       19.5440   14.4730    6.4760 N.am  183  ASN183     -0.0877
    113  N         18.4920   15.7650   10.7590 N.am  184  ASN184     -0.1974
    114  CA        18.2960   16.8410   11.7180 C.3   184  ASN184      0.1688
    115  C         17.3350   17.8850   11.1790 C.2   184  ASN184      0.2292
    116  O         16.9850   17.8620   10.0010 O.2   184  ASN184     -0.2864
    117  CB        19.6240   17.4820   12.0910 C.3   184  ASN184      0.1181
    118  CG        20.3970   17.9520   10.8920 C.2   184  ASN184      0.2629
    119  OD1       19.8790   18.7020   10.0650 O.2   184  ASN184     -0.2716
    120  ND2       21.6560   17.5540   10.8080 N.am  184  ASN184     -0.0877
    121  N         18.4580   20.2820    8.1670 N.3   187  SER187     -0.1217
    122  CA        18.4410   19.6020    6.8750 C.3   187  SER187      0.1889
    123  C         17.0140   19.3430    6.3820 C.2   187  SER187      0.2288
    124  O         16.7110   19.5270    5.1970 O.2   187  SER187     -0.2866
    125  CB        19.1930   18.2830    6.9520 C.3   187  SER187      0.2089
    126  OG        20.5970   18.4950    6.9170 O.3   187  SER187     -0.2183
    127  N         29.4930   15.5230   11.1880 N.3   210  GLU210     -0.1245
    128  CA        30.1360   15.8500    9.9360 C.3   210  GLU210      0.1567
    129  C         31.6520   15.6810   10.1110 C.2   210  GLU210      0.2260
    130  O         32.1940   15.8300   11.2110 O.2   210  GLU210     -0.2867
    131  CB        29.8730   17.3030    9.5030 C.3   210  GLU210      0.0388
    132  CG        28.4580   17.8560    9.6620 C.3   210  GLU210      0.1160
    133  CD        27.3680   17.0890    8.9540 C.2   210  GLU210      0.3649
    134  OE1       27.6080   15.9910    8.4100 O.co2 210  GLU210     -0.2457
    135  OE2       26.2100   17.6030    8.9560 O.co2 210  GLU210     -0.2457
@<TRIPOS>BOND
     1    29    30    1
     2    96    97    2
     3    96    95    1
     4    31    32    2
     5    31    30    1
     6    94    95    1
     7    30    33    1
     8     4     3    2
     9     2     3    1
    10     2     1    1
    11     2     5    1
    12    95    98    1
    13     6     5    1
    14    11    10    2
    15     3     8   am
    16     5     7    1
    17    98    99    1
    18    33    34    1
    19    10     9    1
    20     8     9    1
    21    34    35    1
    22    79    78    1
    23    79    80    1
    24     9    12    1
    25    99   101   ar
    26    99   100   ar
    27   101   103   ar
    28    81    80    1
    29    81    82    2
    30    78    75    1
    31    84    82    1
    32   103   104   ar
    33    82    83    1
    34   100   102   ar
    35    75    74    1
    36    75    76    1
    37    35    37   ar
    38    35    36   ar
    39    87    86    1
    40    87    88    2
    41    12    13    1
    42    38    39    1
    43   104   102   ar
    44    86    85    1
    45    86    89    1
    46    41    40    2
    47    76    77    2
    48    13    14   ar
    49    13    15   ar
    50    14    16   ar
    51    40    39    1
    52    39    42    1
    53    89    90    1
    54    18    19    1
    55    47    46    1
    56    42    43    1
    57    15    17   ar
    58    90    91    1
    59    22    19    1
    60    22    23    1
    61    16    17   ar
    62   124   123    2
    63    46    45    2
    64    46    48    1
    65    19    20    1
    66    45    44    1
    67    49    50    1
    68    23    24   ar
    69    23    25   ar
    70    93    91   am
    71    91    92    2
    72    24    26   ar
    73    21    20    2
    74    43    44    1
    75    52    51    2
    76    25    27   ar
    77   123   122    1
    78   112   110   am
    79    53    50    1
    80    53    54    1
    81    26    28   ar
    82    50    51    1
    83   122   125    1
    84   122   121    1
    85   126   125    1
    86    27    28   ar
    87    73    71    1
    88   110   109    1
    89   110   111    2
    90    54    55    2
    91    54    56   am
    92   109   106    1
    93   134   133   ar
    94    71    72    1
    95    71    70    2
    96   133   135   ar
    97   133   132    1
    98   105   106    1
    99   106   107    1
   100   131   132    1
   101   131   128    1
   102    70    69    1
   103   128   129    1
   104   128   127    1
   105   116   115    2
   106   119   118    2
   107   129   130    2
   108   107   113   am
   109   107   108    2
   110   113   114    1
   111   120   118   am
   112    69    68    1
   113   118   117    1
   114    62    61    1
   115   115   114    1
   116   114   117    1
   117    68    67    1
   118    61    58    1
   119    67    64    1
   120    58    59    1
   121    58    57    1
   122    64    65    1
   123    64    63    1
   124    60    59    2
   125    65    66    2
