@<TRIPOS>MOLECULE
tmp/4n18A01.pdb
 71 68 0 0 0
SMALL
GASTEIGER

@<TRIPOS>ATOM
      1  N         23.2570    8.0380   33.9630 N.3   141  GLY141     -0.1210
      2  CA        22.8340    9.1620   33.1550 C.3   141  GLY141      0.1956
      3  C         23.1630   10.4290   33.9340 C.2   141  GLY141      0.2612
      4  O         22.5720   10.7010   34.9590 O.2   141  GLY141     -0.2717
      5  N         24.1280   11.2120   33.4480 N.am  142  LEU142     -0.1965
      6  CA        24.6110   12.3580   34.2060 C.3   142  LEU142      0.1728
      7  C         24.5530   13.6430   33.3690 C.2   142  LEU142      0.2616
      8  O         25.4860   14.4280   33.3880 O.2   142  LEU142     -0.2715
      9  CB        26.0620   12.1110   34.6830 C.3   142  LEU142      0.0311
     10  CG        26.2770   10.9920   35.7020 C.3   142  LEU142      0.0022
     11  CD1       27.7620   10.8090   35.9680 C.3   142  LEU142      0.0001
     12  CD2       25.4870   11.3010   36.9630 C.3   142  LEU142      0.0001
     13  N         23.4450   13.8520   32.6720 N.am  143  GLY143     -0.1955
     14  CA        23.2010   15.0900   31.9290 C.3   143  GLY143      0.1869
     15  C         22.5980   16.1270   32.8590 C.2   143  GLY143      0.2309
     16  O         22.7980   16.1060   34.0950 O.2   143  GLY143     -0.2863
     17  N         28.1350    7.4900   33.1860 N.3   164  SER164     -0.1202
     18  CA        27.7740    8.1760   31.9280 C.3   164  SER164      0.2020
     19  C         28.5210    7.5270   30.7900 C.2   164  SER164      0.2619
     20  O         29.5170    6.8120   31.0080 O.2   164  SER164     -0.2717
     21  CB        28.1800    9.6650   31.9750 C.3   164  SER164      0.2103
     22  OG        27.8660   10.3340   30.7390 O.3   164  SER164     -0.2182
     23  N         28.0200    7.7950   29.5890 N.am  165  ARG165     -0.1965
     24  CA        28.6940    7.4050   28.3450 C.3   165  ARG165      0.1729
     25  C         29.8810    8.3150   28.1380 C.2   165  ARG165      0.2616
     26  O         30.9010    7.8750   27.6830 O.2   165  ARG165     -0.2715
     27  CB        27.7520    7.4720   27.1330 C.3   165  ARG165      0.0348
     28  CG        27.0320    6.1560   26.7450 C.3   165  ARG165      0.0492
     29  CD        25.5470    5.9840   27.1960 C.3   165  ARG165      0.2205
     30  NE        24.6970    7.1860   27.0860 N.pl3 165  ARG165     -0.0865
     31  CZ        24.1490    7.6690   25.9600 C.cat 165  ARG165      0.5346
     32  NH1       23.4250    8.7810   26.0060 N.pl3 165  ARG165      0.1354
     33  NH2       24.3040    7.0550   24.7900 N.pl3 165  ARG165      0.1354
     34  N         29.7700    9.5760   28.5090 N.am  166  SER166     -0.1950
     35  CA        30.9110   10.4640   28.3320 C.3   166  SER166      0.1924
     36  C         31.5960   10.8600   29.6500 C.2   166  SER166      0.2314
     37  O         31.1010   10.6140   30.7650 O.2   166  SER166     -0.2863
     38  CB        30.5180   11.6800   27.4840 C.3   166  SER166      0.2116
     39  OG        29.3180   12.2220   27.9690 O.3   166  SER166     -0.2180
     40  N         32.5580   12.8090   32.7530 N.3   168  LYS168     -0.1245
     41  CA        31.8850   13.7370   33.6730 C.3   168  LYS168      0.1561
     42  C         32.7670   13.7840   34.9280 C.2   168  LYS168      0.2260
     43  O         33.4190   12.7930   35.3330 O.2   168  LYS168     -0.2867
     44  CB        30.5050   13.2580   34.1440 C.3   168  LYS168      0.0271
     45  CG        29.4340   13.0510   33.0970 C.3   168  LYS168      0.0035
     46  CD        28.7520   14.3300   32.6390 C.3   168  LYS168      0.0206
     47  CE        27.9900   14.0490   31.3510 C.3   168  LYS168      0.1093
     48  NZ        27.6260   15.2860   30.6090 N.3   168  LYS168     -0.1314
     49  N         18.2850    7.3730   34.8140 N.3   195  LEU195     -0.1231
     50  CA        17.9010    8.6350   34.1180 C.3   195  LEU195      0.1693
     51  C         18.4140    8.6880   32.6760 C.2   195  LEU195      0.2592
     52  O         18.4540    9.7450   32.0800 O.2   195  LEU195     -0.2718
     53  CB        18.3890    9.8270   34.9590 C.3   195  LEU195      0.0284
     54  CG        17.6470    9.9460   36.2800 C.3   195  LEU195      0.0019
     55  CD1       18.4840   10.5580   37.3710 C.3   195  LEU195      0.0001
     56  CD2       16.3550   10.7140   36.1140 C.3   195  LEU195      0.0001
     57  N         18.7770    7.5650   32.0890 N.am  196  LEU196     -0.1966
     58  CA        19.2710    7.5580   30.6960 C.3   196  LEU196      0.1713
     59  C         18.2460    7.9940   29.7020 C.2   196  LEU196      0.2458
     60  O         17.0830    7.6740   29.8690 O.2   196  LEU196     -0.2730
     61  CB        19.7470    6.1720   30.2950 C.3   196  LEU196      0.0310
     62  CG        20.9430    5.7210   31.1740 C.3   196  LEU196      0.0022
     63  CD1       21.1230    4.2390   30.9780 C.3   196  LEU196      0.0001
     64  CD2       22.2340    6.5000   30.8980 C.3   196  LEU196      0.0001
     65  N         18.6780    8.6650   28.6230 N.am  197  PRO197     -0.2727
     66  CA        17.7300    8.8020   27.5240 C.3   197  PRO197      0.1402
     67  C         17.5470    7.4430   26.8500 C.2   197  PRO197      0.2269
     68  O         18.4000    6.5500   27.0100 O.2   197  PRO197     -0.2865
     69  CB        18.4370    9.7850   26.6000 C.3   197  PRO197      0.0296
     70  CG        19.8760    9.4570   26.7370 C.3   197  PRO197      0.0237
     71  CD        20.0560    8.9000   28.1450 C.3   197  PRO197      0.0939
@<TRIPOS>BOND
     1    33    31    1
     2    31    32    1
     3    31    30    2
     4    69    70    1
     5    69    66    1
     6    70    71    1
     7    28    27    1
     8    28    29    1
     9    67    68    2
    10    67    66    1
    11    30    29    1
    12    27    24    1
    13    38    39    1
    14    38    35    1
    15    66    65    1
    16    26    25    2
    17    25    24    1
    18    25    34   am
    19    71    65    1
    20    35    34    1
    21    35    36    1
    22    24    23    1
    23    65    59   am
    24    23    19   am
    25    36    37    2
    26    59    60    2
    27    59    58    1
    28    61    58    1
    29    61    62    1
    30    48    47    1
    31    58    57    1
    32    22    21    1
    33    19    20    2
    34    19    18    1
    35    64    62    1
    36    63    62    1
    37    47    46    1
    38    18    21    1
    39    18    17    1
    40    14    13    1
    41    14    15    1
    42    52    51    2
    43    57    51   am
    44    46    45    1
    45    13     7   am
    46    51    50    1
    47    40    41    1
    48    15    16    2
    49    45    44    1
    50     2     3    1
    51     2     1    1
    52     7     8    2
    53     7     6    1
    54     5     3   am
    55     5     6    1
    56    41    44    1
    57    41    42    1
    58     3     4    2
    59    50    49    1
    60    50    53    1
    61     6     9    1
    62     9    10    1
    63    42    43    2
    64    53    54    1
    65    10    11    1
    66    10    12    1
    67    56    54    1
    68    54    55    1
