@<TRIPOS>MOLECULE
tmp/4n18A00.pdb
 108 104 0 0 0
SMALL
GASTEIGER

@<TRIPOS>ATOM
      1  N         -0.3670   36.8080   14.4350 N.3     5  ASP5       -0.1225
      2  CA         1.0140   36.7160   13.9760 C.3     5  ASP5        0.1805
      3  C          1.6970   35.3690   14.3010 C.2     5  ASP5        0.2597
      4  O          2.6130   34.9460   13.5680 O.2     5  ASP5       -0.2718
      5  CB         1.8210   37.8620   14.6040 C.3     5  ASP5        0.1424
      6  CG         1.4690   39.2230   14.0190 C.2     5  ASP5        0.3668
      7  OD1        1.2890   39.2700   12.7770 O.co2   5  ASP5       -0.2456
      8  OD2        1.4340   40.2500   14.7860 O.co2   5  ASP5       -0.2456
      9  N          1.3110   34.7490   15.4330 N.am    6  ILE6       -0.1980
     10  CA         1.8900   33.4690   15.8230 C.3     6  ILE6        0.1595
     11  C          0.8390   32.3690   15.8960 C.2     6  ILE6        0.2287
     12  O         -0.1950   32.4840   16.6000 O.2     6  ILE6       -0.2864
     13  CB         2.5970   33.6130   17.1620 C.3     6  ILE6        0.0276
     14  CG1        3.5480   34.8290   17.0240 C.3     6  ILE6        0.0022
     15  CG2        3.3290   32.3090   17.5250 C.3     6  ILE6        0.0022
     16  CD1        4.4490   35.0940   18.2140 C.3     6  ILE6        0.0001
     17  N         -1.1720   34.7610   26.0280 N.3    28  PHE28      -0.1228
     18  CA        -0.4680   35.8330   25.3270 C.3    28  PHE28       0.1721
     19  C         -1.3320   36.3570   24.2050 C.2    28  PHE28       0.2437
     20  O         -1.7520   35.6100   23.3660 O.2    28  PHE28      -0.2733
     21  CB         0.8480   35.2870   24.8180 C.3    28  PHE28       0.0547
     22  CG         1.8340   34.9970   25.9200 C.ar   28  PHE28      -0.0202
     23  CD1        1.7970   33.7820   26.6210 C.ar   28  PHE28      -0.0042
     24  CD2        2.7960   35.9460   26.2680 C.ar   28  PHE28      -0.0042
     25  CE1        2.7290   33.5230   27.6270 C.ar   28  PHE28      -0.0003
     26  CE2        3.7120   35.6920   27.2870 C.ar   28  PHE28      -0.0003
     27  CZ         3.6710   34.4800   27.9620 C.ar   28  PHE28      -0.0000
     28  N         -1.6160   37.6580   24.1830 N.am   29  PRO29      -0.2718
     29  CA        -2.3830   38.1240   23.0090 C.3    29  PRO29       0.1535
     30  C         -1.6190   37.8820   21.6760 C.2    29  PRO29       0.2599
     31  O         -0.4090   37.7170   21.7010 O.2    29  PRO29      -0.2715
     32  CB        -2.5730   39.6390   23.2620 C.3    29  PRO29       0.0310
     33  CG        -2.2880   39.8330   24.7210 C.3    29  PRO29       0.0237
     34  CD        -1.3520   38.7280   25.1560 C.3    29  PRO29       0.0939
     35  N         -2.3450   37.8080   20.5610 N.am   30  ASP30      -0.1958
     36  CA        -1.7460   37.6750   19.2050 C.3    30  ASP30       0.1840
     37  C         -1.1270   36.2660   18.9930 C.2    30  ASP30       0.2621
     38  O         -0.2100   36.1010   18.1720 O.2    30  ASP30      -0.2715
     39  CB        -0.7000   38.7770   18.9720 C.3    30  ASP30       0.1450
     40  CG        -0.4380   39.0880   17.4880 C.2    30  ASP30       0.3671
     41  OD1       -1.2740   38.7910   16.5890 O.co2  30  ASP30      -0.2456
     42  OD2        0.6190   39.7140   17.2510 O.co2  30  ASP30      -0.2456
     43  N         -1.6230   35.2680   19.7470 N.am   31  VAL31      -0.1977
     44  CA        -1.1680   33.8790   19.6130 C.3    31  VAL31       0.1596
     45  C         -2.3730   33.0230   19.5020 C.2    31  VAL31       0.2287
     46  O         -3.3600   33.1900   20.2570 O.2    31  VAL31      -0.2864
     47  CB        -0.3340   33.4290   20.8190 C.3    31  VAL31       0.0276
     48  CG1        0.0940   31.9840   20.6960 C.3    31  VAL31       0.0022
     49  CG2        0.8950   34.3170   20.9370 C.3    31  VAL31       0.0022
     50  N          6.0620   30.2080   27.7390 N.3   283  ARG283     -0.1245
     51  CA         6.9340   31.3390   27.7220 C.3   283  ARG283      0.1563
     52  C          8.2400   31.0550   27.0320 C.2   283  ARG283      0.2260
     53  O          8.7220   31.8850   26.2780 O.2   283  ARG283     -0.2867
     54  CB         7.2270   31.8700   29.1350 C.3   283  ARG283      0.0307
     55  CG         8.4580   32.7840   29.1370 C.3   283  ARG283      0.0489
     56  CD         8.6530   33.5680   30.4390 C.3   283  ARG283      0.2205
     57  NE         7.8820   34.8130   30.3720 N.pl3 283  ARG283     -0.0865
     58  CZ         6.6390   34.9790   30.8390 C.cat 283  ARG283      0.5346
     59  NH1        6.0240   36.1460   30.6510 N.pl3 283  ARG283      0.1354
     60  NH2        5.9930   33.9890   31.4680 N.pl3 283  ARG283      0.1354
     61  N          7.4910   30.9550   23.2000 N.3   286  LEU286     -0.1231
     62  CA         7.2560   32.2790   22.6470 C.3   286  LEU286      0.1693
     63  C          8.5310   33.1100   22.6070 C.2   286  LEU286      0.2591
     64  O          8.7440   33.8170   21.6580 O.2   286  LEU286     -0.2718
     65  CB         6.1940   33.0160   23.4340 C.3   286  LEU286      0.0284
     66  CG         4.7950   32.4090   23.1050 C.3   286  LEU286      0.0019
     67  CD1        3.7580   32.8880   24.0980 C.3   286  LEU286      0.0001
     68  CD2        4.3200   32.7940   21.7270 C.3   286  LEU286      0.0001
     69  N          9.3440   33.0590   23.6510 N.am  287  GLU287     -0.1979
     70  CA        10.6220   33.7550   23.6430 C.3   287  GLU287      0.1602
     71  C         11.4800   33.3030   22.4580 C.2   287  GLU287      0.2287
     72  O         12.1060   34.0960   21.8060 O.2   287  GLU287     -0.2864
     73  CB        11.3850   33.4620   24.9350 C.3   287  GLU287      0.0415
     74  CG        10.8770   34.2300   26.1600 C.3   287  GLU287      0.1163
     75  CD        11.4770   33.7450   27.5070 C.2   287  GLU287      0.3649
     76  OE1       12.3000   32.7750   27.5000 O.co2 287  GLU287     -0.2457
     77  OE2       11.1090   34.3510   28.5740 O.co2 287  GLU287     -0.2457
     78  N          9.9920   34.6350   19.1570 N.3   290  GLN290     -0.1245
     79  CA        10.3710   36.0110   19.0080 C.3   290  GLN290      0.1566
     80  C         11.8330   36.1660   18.6190 C.2   290  GLN290      0.2260
     81  O         12.1510   36.9640   17.7150 O.2   290  GLN290     -0.2867
     82  CB        10.0340   36.8030   20.2870 C.3   290  GLN290      0.0367
     83  CG         8.5320   36.9480   20.5880 C.3   290  GLN290      0.0905
     84  CD         7.8070   37.8720   19.6110 C.2   290  GLN290      0.2608
     85  OE1        8.1440   37.9440   18.4220 O.2   290  GLN290     -0.2717
     86  NE2        6.8240   38.6040   20.1130 N.am  290  GLN290     -0.0878
     87  N         12.0670   35.2380   14.9480 N.3   293  ARG293     -0.1231
     88  CA        11.5160   36.2910   14.0610 C.3   293  ARG293      0.1694
     89  C         12.4050   37.5420   13.9800 C.2   293  ARG293      0.2591
     90  O         12.3210   38.3240   13.0090 O.2   293  ARG293     -0.2718
     91  CB        10.1010   36.6790   14.5030 C.3   293  ARG293      0.0321
     92  CG         9.0780   35.5340   14.3580 C.3   293  ARG293      0.0489
     93  CD         7.7450   35.7250   15.1070 C.3   293  ARG293      0.2205
     94  NE         6.7740   36.4900   14.3080 N.pl3 293  ARG293     -0.0865
     95  CZ         6.2860   37.7000   14.6160 C.cat 293  ARG293      0.5346
     96  NH1        6.6200   38.3580   15.7440 N.pl3 293  ARG293      0.1354
     97  NH2        5.4280   38.2690   13.7820 N.pl3 293  ARG293      0.1354
     98  N         13.2370   37.7510   15.0010 N.am  294  ARG294     -0.1980
     99  CA        14.1340   38.9000   15.0220 C.3   294  ARG294      0.1597
    100  C         15.5250   38.5310   14.5000 C.2   294  ARG294      0.2287
    101  O         16.4510   39.3380   14.5880 O.2   294  ARG294     -0.2864
    102  CB        14.2650   39.4790   16.4410 C.3   294  ARG294      0.0334
    103  CG        13.0470   40.1900   17.0210 C.3   294  ARG294      0.0492
    104  CD        13.4720   41.0190   18.2260 C.3   294  ARG294      0.2205
    105  NE        12.4060   41.1970   19.2080 N.pl3 294  ARG294     -0.0865
    106  CZ        12.2140   40.4150   20.2700 C.cat 294  ARG294      0.5346
    107  NH1       13.0140   39.3670   20.5030 N.pl3 294  ARG294      0.1354
    108  NH2       11.2140   40.6790   21.1080 N.pl3 294  ARG294      0.1354
@<TRIPOS>BOND
     1     7     6   ar
     2    90    89    2
     3     4     3    2
     4    97    95    1
     5     2     3    1
     6     2     1    1
     7     2     5    1
     8    89    88    1
     9    89    98   am
    10     6     5    1
    11     6     8   ar
    12    88    91    1
    13    88    87    1
    14     3     9   am
    15    94    95    2
    16    94    93    1
    17    92    91    1
    18    92    93    1
    19   100   101    2
    20   100    99    1
    21    95    96    1
    22    98    99    1
    23    99   102    1
    24     9    10    1
    25    10    11    1
    26    10    13    1
    27    11    12    2
    28   102   103    1
    29    41    40   ar
    30   103   104    1
    31    14    13    1
    32    14    16    1
    33    13    15    1
    34    42    40   ar
    35    40    39    1
    36    81    80    2
    37    38    37    2
    38   104   105    1
    39    85    84    2
    40    80    79    1
    41    39    36    1
    42    37    36    1
    43    37    43   am
    44    79    78    1
    45    79    82    1
    46    36    35    1
    47   105   106    2
    48    45    44    1
    49    45    46    2
    50    84    86   am
    51    84    83    1
    52    44    43    1
    53    44    47    1
    54   106   107    1
    55   106   108    1
    56    82    83    1
    57    35    30   am
    58    48    47    1
    59    47    49    1
    60    64    63    2
    61    30    31    2
    62    30    29    1
    63    68    66    1
    64    72    71    2
    65    71    70    1
    66    63    62    1
    67    63    69   am
    68    62    61    1
    69    62    65    1
    70    29    32    1
    71    29    28    1
    72    66    65    1
    73    66    67    1
    74    32    33    1
    75    20    19    2
    76    70    69    1
    77    70    73    1
    78    28    19   am
    79    28    34    1
    80    19    18    1
    81    33    34    1
    82    21    18    1
    83    21    22    1
    84    73    74    1
    85    18    17    1
    86    22    24   ar
    87    22    23   ar
    88    74    75    1
    89    24    26   ar
    90    53    52    2
    91    23    25   ar
    92    52    51    1
    93    26    27   ar
    94    76    75   ar
    95    75    77   ar
    96    25    27   ar
    97    51    50    1
    98    51    54    1
    99    54    55    1
   100    55    56    1
   101    57    56    1
   102    57    58    2
   103    59    58    1
   104    58    60    1
