@<TRIPOS>MOLECULE
tmp/4n1aA00.pdb
 133 125 0 0 0
SMALL
GASTEIGER

@<TRIPOS>ATOM
      1  N        -86.0910   67.8640  -46.3910 N.3   379  PRO379     -0.2102
      2  CA       -87.0880   66.7880  -46.3080 C.3   379  PRO379      0.1504
      3  C        -87.4180   66.1530  -47.6620 C.2   379  PRO379      0.2575
      4  O        -87.9210   65.0300  -47.7030 O.2   379  PRO379     -0.2718
      5  CB       -88.3200   67.4910  -45.7190 C.3   379  PRO379      0.0282
      6  CG       -88.0740   68.9530  -45.9130 C.3   379  PRO379      0.0208
      7  CD       -86.5940   69.1190  -45.8100 C.3   379  PRO379      0.0893
      8  N        -87.1270   66.8590  -48.7500 N.am  380  GLN380     -0.1980
      9  CA       -87.3420   66.3180  -50.0860 C.3   380  GLN380      0.1601
     10  C        -86.1760   65.4240  -50.4990 C.2   380  GLN380      0.2287
     11  O        -86.2670   64.6780  -51.4740 O.2   380  GLN380     -0.2864
     12  CB       -87.5340   67.4430  -51.1060 C.3   380  GLN380      0.0394
     13  CG       -88.7900   68.2770  -50.8940 C.3   380  GLN380      0.0908
     14  CD       -88.6270   69.3160  -49.7990 C.2   380  GLN380      0.2608
     15  OE1      -87.5280   69.8170  -49.5610 O.2   380  GLN380     -0.2717
     16  NE2      -89.7250   69.6420  -49.1230 N.am  380  GLN380     -0.0878
     17  N        -86.2780   61.4810  -45.9240 N.3   383  ARG383     -0.1245
     18  CA       -87.4030   61.3930  -45.0050 C.3   383  ARG383      0.1563
     19  C        -87.0550   60.4570  -43.8510 C.2   383  ARG383      0.2260
     20  O        -86.2740   59.5190  -44.0170 O.2   383  ARG383     -0.2867
     21  CB       -88.6590   60.9120  -45.7380 C.3   383  ARG383      0.0307
     22  CG       -89.1730   61.8700  -46.8140 C.3   383  ARG383      0.0489
     23  CD       -89.9850   63.0100  -46.1960 C.3   383  ARG383      0.2205
     24  NE       -90.3850   64.0100  -47.1850 N.pl3 383  ARG383     -0.0865
     25  CZ       -91.0150   65.1420  -46.8860 C.cat 383  ARG383      0.5346
     26  NH1      -91.3110   65.4140  -45.6240 N.pl3 383  ARG383      0.1354
     27  NH2      -91.3450   66.0040  -47.8410 N.pl3 383  ARG383      0.1354
     28  N        -88.2950   57.9550  -40.4850 N.3   385  ILE385     -0.1245
     29  CA       -89.3220   57.1540  -39.8250 C.3   385  ILE385      0.1561
     30  C        -88.7640   56.5780  -38.5280 C.2   385  ILE385      0.2260
     31  O        -87.7100   55.9440  -38.5290 O.2   385  ILE385     -0.2867
     32  CB       -89.8270   56.0080  -40.7220 C.3   385  ILE385      0.0252
     33  CG1      -90.4450   56.5620  -42.0060 C.3   385  ILE385      0.0019
     34  CG2      -90.8480   55.1570  -39.9800 C.3   385  ILE385      0.0019
     35  CD1      -90.9920   55.4920  -42.9190 C.3   385  ILE385      0.0001
     36  N        -89.9820   63.8910  -40.7580 N.3   402  GLN402     -0.1231
     37  CA       -90.6760   62.7670  -40.1430 C.3   402  GLN402      0.1698
     38  C        -92.0020   62.4750  -40.8320 C.2   402  GLN402      0.2592
     39  O        -92.8830   63.3310  -40.8960 O.2   402  GLN402     -0.2718
     40  CB       -90.9080   63.0320  -38.6540 C.3   402  GLN402      0.0381
     41  CG       -91.3460   61.8090  -37.8660 C.3   402  GLN402      0.0905
     42  CD       -92.8330   61.7920  -37.5770 C.2   402  GLN402      0.2608
     43  OE1      -93.6610   61.8280  -38.4870 O.2   402  GLN402     -0.2717
     44  NE2      -93.1790   61.7400  -36.2960 N.am  402  GLN402     -0.0878
     45  N        -92.1330   61.2550  -41.3440 N.am  403  ILE403     -0.1980
     46  CA       -93.3730   60.8130  -41.9670 C.3   403  ILE403      0.1595
     47  C        -93.8320   59.4900  -41.3640 C.2   403  ILE403      0.2287
     48  O        -94.5580   58.7240  -41.9970 O.2   403  ILE403     -0.2864
     49  CB       -93.2210   60.6550  -43.4910 C.3   403  ILE403      0.0276
     50  CG1      -92.0750   59.6980  -43.8200 C.3   403  ILE403      0.0022
     51  CG2      -92.9860   62.0070  -44.1460 C.3   403  ILE403      0.0022
     52  CD1      -91.9270   59.4230  -45.2990 C.3   403  ILE403      0.0001
     53  N        -96.4740   50.5110  -40.3080 N.3   415  LEU415     -0.1245
     54  CA       -95.4890   51.3100  -41.0310 C.3   415  LEU415      0.1561
     55  C        -94.6250   50.4560  -41.9490 C.2   415  LEU415      0.2260
     56  O        -94.4400   50.7890  -43.1190 O.2   415  LEU415     -0.2867
     57  CB       -94.6000   52.0810  -40.0550 C.3   415  LEU415      0.0270
     58  CG       -95.1720   53.3870  -39.5030 C.3   415  LEU415      0.0019
     59  CD1      -94.1860   54.0390  -38.5490 C.3   415  LEU415      0.0001
     60  CD2      -95.5270   54.3350  -40.6380 C.3   415  LEU415      0.0001
     61  N        -96.2070   49.6120  -45.2270 N.3   418  ASP418     -0.1225
     62  CA       -96.1160   50.6910  -46.2020 C.3   418  ASP418      0.1805
     63  C        -94.6690   50.9310  -46.6160 C.2   418  ASP418      0.2597
     64  O        -94.4090   51.4730  -47.6890 O.2   418  ASP418     -0.2718
     65  CB       -96.7280   51.9790  -45.6460 C.3   418  ASP418      0.1424
     66  CG       -98.2390   52.0170  -45.7890 C.2   418  ASP418      0.3668
     67  OD1      -98.8680   50.9360  -45.7770 O.co2 418  ASP418     -0.2456
     68  OD2      -98.7960   53.1280  -45.9170 O.co2 418  ASP418     -0.2456
     69  N        -93.7330   50.5260  -45.7640 N.am  419  ILE419     -0.1980
     70  CA       -92.3110   50.6580  -46.0700 C.3   419  ILE419      0.1595
     71  C        -91.8660   49.5840  -47.0560 C.2   419  ILE419      0.2287
     72  O        -91.2010   49.8780  -48.0510 O.2   419  ILE419     -0.2864
     73  CB       -91.4390   50.5690  -44.7980 C.3   419  ILE419      0.0276
     74  CG1      -91.6030   51.8260  -43.9450 C.3   419  ILE419      0.0022
     75  CG2      -89.9740   50.3960  -45.1630 C.3   419  ILE419      0.0022
     76  CD1      -90.8070   51.7910  -42.6590 C.3   419  ILE419      0.0001
     77  N        -93.2110   50.3390  -50.4440 N.3   422  ALA422     -0.1231
     78  CA       -92.6040   51.5260  -51.0360 C.3   422  ALA422      0.1694
     79  C        -91.1860   51.2590  -51.5290 C.2   422  ALA422      0.2591
     80  O        -90.7540   51.8350  -52.5280 O.2   422  ALA422     -0.2718
     81  CB       -92.6030   52.6710  -50.0360 C.3   422  ALA422      0.0304
     82  N        -90.4660   50.3900  -50.8240 N.am  423  MET423     -0.1979
     83  CA       -89.0710   50.1110  -51.1530 C.3   423  MET423      0.1605
     84  C        -88.9360   49.0150  -52.2070 C.2   423  MET423      0.2287
     85  O        -88.0070   49.0410  -53.0120 O.2   423  MET423     -0.2864
     86  CB       -88.2860   49.7220  -49.8970 C.3   423  MET423      0.0413
     87  CG       -88.2090   50.8160  -48.8380 C.3   423  MET423      0.0598
     88  SD       -87.6370   52.4100  -49.4710 S.3   423  MET423     -0.1393
     89  CE       -85.9910   52.0000  -50.0180 C.3   423  MET423      0.0692
     90  N        -88.6890   50.1380  -55.6920 N.3   426  ARG426     -0.1245
     91  CA       -87.4160   50.7030  -56.1230 C.3   426  ARG426      0.1563
     92  C        -86.3910   49.6210  -56.4570 C.2   426  ARG426      0.2260
     93  O        -85.2900   49.9250  -56.9190 O.2   426  ARG426     -0.2867
     94  CB       -86.8540   51.6380  -55.0490 C.3   426  ARG426      0.0307
     95  CG       -87.6860   52.8900  -54.8190 C.3   426  ARG426      0.0489
     96  CD       -87.0380   53.8130  -53.7990 C.3   426  ARG426      0.2205
     97  NE       -87.7810   55.0610  -53.6480 N.pl3 426  ARG426     -0.0865
     98  CZ       -87.4290   56.0490  -52.8330 C.cat 426  ARG426      0.5346
     99  NH1      -86.3390   55.9420  -52.0860 N.pl3 426  ARG426      0.1354
    100  NH2      -88.1690   57.1480  -52.7660 N.pl3 426  ARG426      0.1354
    101  N        -86.8340   58.0620  -58.9550 N.3   444  THR444     -0.1203
    102  CA       -86.5460   59.3820  -58.4130 C.3   444  THR444      0.1994
    103  C        -87.3410   59.5960  -57.1320 C.2   444  THR444      0.2618
    104  O        -88.5170   59.2400  -57.0520 O.2   444  THR444     -0.2717
    105  CB       -86.8740   60.5030  -59.4210 C.3   444  THR444      0.1784
    106  OG1      -88.1950   60.3110  -59.9430 O.3   444  THR444     -0.2211
    107  CG2      -85.8770   60.4930  -60.5700 C.3   444  THR444      0.0376
    108  N        -86.6890   60.1740  -56.1290 N.am  445  GLY445     -0.1942
    109  CA       -87.3270   60.4000  -54.8470 C.3   445  GLY445      0.2014
    110  C        -86.3250   60.6640  -53.7440 C.2   445  GLY445      0.2639
    111  O        -85.1580   60.9540  -54.0060 O.2   445  GLY445     -0.2714
    112  N        -86.7840   60.5580  -52.5020 N.am  446  ALA446     -0.1963
    113  CA       -85.9360   60.8400  -51.3520 C.3   446  ALA446      0.1728
    114  C        -85.3940   59.5630  -50.7230 C.2   446  ALA446      0.2616
    115  O        -85.8940   58.4670  -50.9790 O.2   446  ALA446     -0.2715
    116  CB       -86.7040   61.6490  -50.3180 C.3   446  ALA446      0.0334
    117  N        -84.3610   59.7180  -49.9010 N.am  447  GLU447     -0.1963
    118  CA       -83.7860   58.6040  -49.1630 C.3   447  GLU447      0.1733
    119  C        -84.6420   58.3210  -47.9340 C.2   447  GLU447      0.2616
    120  O        -85.2660   59.2300  -47.3880 O.2   447  GLU447     -0.2715
    121  CB       -82.3470   58.9160  -48.7550 C.3   447  GLU447      0.0429
    122  CG       -81.4780   59.4450  -49.8870 C.3   447  GLU447      0.1163
    123  CD       -80.5590   58.3870  -50.4620 C.2   447  GLU447      0.3649
    124  OE1      -79.9330   58.6470  -51.5110 O.co2 447  GLU447     -0.2457
    125  OE2      -80.4580   57.2980  -49.8600 O.co2 447  GLU447     -0.2457
    126  N        -84.6760   57.0660  -47.4980 N.am  448  LEU448     -0.1977
    127  CA       -85.4870   56.6970  -46.3410 C.3   448  LEU448      0.1596
    128  C        -84.6340   56.2430  -45.1620 C.2   448  LEU448      0.2287
    129  O        -83.9950   55.1920  -45.2120 O.2   448  LEU448     -0.2864
    130  CB       -86.4840   55.5990  -46.7130 C.3   448  LEU448      0.0297
    131  CG       -87.3660   55.1170  -45.5590 C.3   448  LEU448      0.0022
    132  CD1      -88.0790   56.2940  -44.9130 C.3   448  LEU448      0.0001
    133  CD2      -88.3660   54.0730  -46.0360 C.3   448  LEU448      0.0001
@<TRIPOS>BOND
     1   107   105    1
     2   106   105    1
     3   105   102    1
     4   101   102    1
     5   102   103    1
     6   103   104    2
     7   103   108   am
     8    93    92    2
     9    92    91    1
    10   108   109    1
    11    91    90    1
    12    91    94    1
    13    94    95    1
    14   109   110    1
    15    95    96    1
    16   111   110    2
    17    96    97    1
    18   110   112   am
    19    97    98    2
    20    85    84    2
    21    98   100    1
    22    98    99    1
    23    80    79    2
    24   112   113    1
    25    84    83    1
    26    79    78    1
    27    79    82   am
    28   124   123   ar
    29    11    10    2
    30   113   114    1
    31   113   116    1
    32    83    82    1
    33    83    86    1
    34    12    13    1
    35    12     9    1
    36    78    77    1
    37    78    81    1
    38   115   114    2
    39    13    14    1
    40   114   117   am
    41    10     9    1
    42   123   122    1
    43   123   125   ar
    44     9     8    1
    45    89    88    1
    46   117   118    1
    47    86    87    1
    48   122   121    1
    49    14    15    2
    50    14    16   am
    51    88    87    1
    52   118   121    1
    53   118   119    1
    54     8     3   am
    55    72    71    2
    56   119   126   am
    57   119   120    2
    58    27    25    1
    59     4     3    2
    60    64    63    2
    61     3     2    1
    62   126   127    1
    63    24    25    2
    64    24    23    1
    65    71    70    1
    66    25    26    1
    67    22    23    1
    68    22    21    1
    69   130   127    1
    70   130   131    1
    71    63    62    1
    72    63    69   am
    73     1     2    1
    74     1     7    1
    75   127   128    1
    76     2     5    1
    77    62    65    1
    78    62    61    1
    79    70    69    1
    80    70    73    1
    81   133   131    1
    82    17    18    1
    83    68    66   ar
    84     6     7    1
    85     6     5    1
    86    66    67   ar
    87    66    65    1
    88    21    18    1
    89   131   132    1
    90    52    50    1
    91   129   128    2
    92    75    73    1
    93    18    19    1
    94    73    74    1
    95    51    49    1
    96    20    19    2
    97    74    76    1
    98    50    49    1
    99    49    46    1
   100    56    55    2
   101    35    33    1
   102    33    32    1
   103    48    47    2
   104    46    47    1
   105    46    45    1
   106    55    54    1
   107    45    38   am
   108    54    53    1
   109    54    57    1
   110    39    38    2
   111    38    37    1
   112    36    37    1
   113    32    34    1
   114    32    29    1
   115    60    58    1
   116    28    29    1
   117    37    40    1
   118    57    58    1
   119    29    30    1
   120    58    59    1
   121    40    41    1
   122    31    30    2
   123    43    42    2
   124    41    42    1
   125    42    44   am
