@<TRIPOS>MOLECULE
tmp/4n1aB00.pdb
 119 111 0 0 0
SMALL
GASTEIGER

@<TRIPOS>ATOM
      1  N          2.8770   -3.8210  -63.4650 N.3   381  ARG381     -0.1245
      2  CA         4.0640   -3.7310  -64.3110 C.3   381  ARG381      0.1563
      3  C          4.2540   -2.3060  -64.8290 C.2   381  ARG381      0.2260
      4  O          3.2900   -1.5480  -64.9510 O.2   381  ARG381     -0.2867
      5  CB         3.9630   -4.7090  -65.4840 C.3   381  ARG381      0.0307
      6  CG         3.9340   -6.1780  -65.0880 C.3   381  ARG381      0.0489
      7  CD         5.3180   -6.6850  -64.7100 C.3   381  ARG381      0.2205
      8  NE         5.3140   -8.1190  -64.4310 N.pl3 381  ARG381     -0.0865
      9  CZ         6.4070   -8.8420  -64.2140 C.cat 381  ARG381      0.5346
     10  NH1        7.6010   -8.2670  -64.2460 N.pl3 381  ARG381      0.1354
     11  NH2        6.3090  -10.1420  -63.9670 N.pl3 381  ARG381      0.1354
     12  N         11.9830   -5.1370  -61.4170 N.3   398  GLU398     -0.1245
     13  CA        11.3810   -6.2910  -62.0760 C.3   398  GLU398      0.1567
     14  C         10.0340   -5.9270  -62.6910 C.2   398  GLU398      0.2260
     15  O          9.4820   -6.6810  -63.4920 O.2   398  GLU398     -0.2867
     16  CB        11.2160   -7.4450  -61.0840 C.3   398  GLU398      0.0388
     17  CG        12.1470   -8.6240  -61.3330 C.3   398  GLU398      0.1160
     18  CD        11.5300   -9.6780  -62.2340 C.2   398  GLU398      0.3649
     19  OE1       10.3680  -10.0670  -61.9860 O.co2 398  GLU398     -0.2457
     20  OE2       12.2040  -10.1170  -63.1910 O.co2 398  GLU398     -0.2457
     21  N          9.7280   -3.6520  -64.6790 N.3   400  GLN400     -0.1231
     22  CA        10.1200   -3.2480  -66.0240 C.3   400  GLN400      0.1698
     23  C          9.6160   -4.2100  -67.0980 C.2   400  GLN400      0.2592
     24  O          9.8440   -5.4180  -67.0270 O.2   400  GLN400     -0.2718
     25  CB        11.6470   -3.1340  -66.1030 C.3   400  GLN400      0.0381
     26  CG        12.2160   -3.1700  -67.5120 C.3   400  GLN400      0.0905
     27  CD        11.9460   -1.9000  -68.2870 C.2   400  GLN400      0.2608
     28  OE1       11.9560   -1.8980  -69.5180 O.2   400  GLN400     -0.2717
     29  NE2       11.7060   -0.8060  -67.5710 N.am  400  GLN400     -0.0878
     30  N          8.9260   -3.6610  -68.0930 N.am  401  ILE401     -0.1980
     31  CA         8.4740   -4.4410  -69.2370 C.3   401  ILE401      0.1595
     32  C          9.0640   -3.8740  -70.5220 C.2   401  ILE401      0.2287
     33  O          9.5720   -4.6150  -71.3640 O.2   401  ILE401     -0.2864
     34  CB         6.9380   -4.4670  -69.3400 C.3   401  ILE401      0.0276
     35  CG1        6.3480   -5.2730  -68.1860 C.3   401  ILE401      0.0022
     36  CG2        6.4980   -5.0640  -70.6670 C.3   401  ILE401      0.0022
     37  CD1        6.8700   -6.6870  -68.1110 C.3   401  ILE401      0.0001
     38  N          6.3000   -1.3190  -78.5530 N.3   413  LEU413     -0.1245
     39  CA         5.7490   -1.6920  -77.2550 C.3   413  LEU413      0.1561
     40  C          4.2620   -1.3710  -77.1610 C.2   413  LEU413      0.2260
     41  O          3.5110   -2.0670  -76.4800 O.2   413  LEU413     -0.2867
     42  CB         6.5010   -0.9750  -76.1300 C.3   413  LEU413      0.0270
     43  CG         7.9110   -1.4570  -75.7930 C.3   413  LEU413      0.0019
     44  CD1        8.6490   -0.4030  -74.9880 C.3   413  LEU413      0.0001
     45  CD2        7.8490   -2.7680  -75.0250 C.3   413  LEU413      0.0001
     46  N          2.0690   -3.8440  -78.5580 N.3   416  ASP416     -0.1239
     47  CA         2.1780   -5.0150  -77.6940 C.3   416  ASP416      0.1674
     48  C          1.2560   -4.8180  -76.4970 C.2   416  ASP416      0.2266
     49  O          0.9110   -5.7670  -75.7920 O.2   416  ASP416     -0.2867
     50  CB         3.6220   -5.2340  -77.2320 C.3   416  ASP416      0.1410
     51  CG         4.3110   -6.3640  -77.9750 C.2   416  ASP416      0.3668
     52  OD1        3.6140   -7.3070  -78.4060 O.co2 416  ASP416     -0.2456
     53  OD2        5.5500   -6.3130  -78.1210 O.co2 416  ASP416     -0.2456
     54  N         -2.6130   -5.0570  -77.8880 N.3   419  GLY419     -0.1210
     55  CA        -2.9320   -6.4610  -78.0690 C.3   419  GLY419      0.1956
     56  C         -3.0470   -7.1690  -76.7340 C.2   419  GLY419      0.2612
     57  O         -3.0440   -8.3990  -76.6640 O.2   419  GLY419     -0.2717
     58  N         -3.1450   -6.3800  -75.6690 N.am  420  ALA420     -0.1965
     59  CA        -3.2530   -6.9100  -74.3170 C.3   420  ALA420      0.1728
     60  C         -4.4070   -6.2550  -73.5690 C.2   420  ALA420      0.2616
     61  O         -5.1750   -6.9280  -72.8830 O.2   420  ALA420     -0.2715
     62  CB        -1.9480   -6.7050  -73.5600 C.3   420  ALA420      0.0334
     63  N         -4.5250   -4.9390  -73.7100 N.am  421  MET421     -0.1977
     64  CA        -5.5640   -4.1850  -73.0170 C.3   421  MET421      0.1605
     65  C         -6.9240   -4.3460  -73.6850 C.2   421  MET421      0.2287
     66  O         -7.9570   -4.3190  -73.0150 O.2   421  MET421     -0.2864
     67  CB        -5.1970   -2.7000  -72.9420 C.3   421  MET421      0.0413
     68  CG        -3.8770   -2.4110  -72.2430 C.3   421  MET421      0.0598
     69  SD        -3.7080   -3.2020  -70.6290 S.3   421  MET421     -0.1393
     70  CE        -5.1400   -2.5570  -69.7730 C.3   421  MET421      0.0692
     71  N         -8.0420   -6.9330  -74.8850 N.3   423  ALA423     -0.1231
     72  CA        -8.5520   -8.2430  -74.5060 C.3   423  ALA423      0.1694
     73  C         -9.3380   -8.1660  -73.2010 C.2   423  ALA423      0.2591
     74  O        -10.0520   -9.1000  -72.8360 O.2   423  ALA423     -0.2718
     75  CB        -7.4090   -9.2370  -74.3800 C.3   423  ALA423      0.0304
     76  N         -9.2070   -7.0430  -72.5030 N.am  424  ARG424     -0.1980
     77  CA        -9.8380   -6.8790  -71.2020 C.3   424  ARG424      0.1597
     78  C        -11.1200   -6.0560  -71.2680 C.2   424  ARG424      0.2287
     79  O        -11.7510   -5.8020  -70.2420 O.2   424  ARG424     -0.2864
     80  CB        -8.8620   -6.2280  -70.2220 C.3   424  ARG424      0.0334
     81  CG        -7.6300   -7.0610  -69.9270 C.3   424  ARG424      0.0492
     82  CD        -6.7000   -6.3280  -68.9780 C.3   424  ARG424      0.2205
     83  NE        -5.6440   -7.1990  -68.4740 N.pl3 424  ARG424     -0.0865
     84  CZ        -4.7250   -6.8210  -67.5920 C.cat 424  ARG424      0.5346
     85  NH1       -4.7330   -5.5850  -67.1110 N.pl3 424  ARG424      0.1354
     86  NH2       -3.8040   -7.6820  -67.1860 N.pl3 424  ARG424      0.1354
     87  N         -7.8090  -11.6400  -65.1550 N.3   442  THR442     -0.1203
     88  CA        -6.8210  -11.6050  -64.0850 C.3   442  THR442      0.1994
     89  C         -5.4750  -11.1720  -64.6500 C.2   442  THR442      0.2618
     90  O         -5.2510  -11.2340  -65.8600 O.2   442  THR442     -0.2717
     91  CB        -6.6690  -12.9720  -63.3890 C.3   442  THR442      0.1784
     92  OG1       -6.3350  -13.9730  -64.3590 O.3   442  THR442     -0.2211
     93  CG2       -7.9590  -13.3620  -62.6850 C.3   442  THR442      0.0376
     94  N         -4.5810  -10.7310  -63.7710 N.am  443  GLY443     -0.1942
     95  CA        -3.2690  -10.2750  -64.1880 C.3   443  GLY443      0.2014
     96  C         -2.8780   -8.9740  -63.5170 C.2   443  GLY443      0.2639
     97  O         -3.6860   -8.3570  -62.8230 O.2   443  GLY443     -0.2714
     98  N         -1.6350   -8.5550  -63.7290 N.am  444  ALA444     -0.1963
     99  CA        -1.1140   -7.3420  -63.1090 C.3   444  ALA444      0.1728
    100  C         -1.7340   -6.0790  -63.7030 C.2   444  ALA444      0.2616
    101  O         -2.4780   -6.1370  -64.6830 O.2   444  ALA444     -0.2715
    102  CB         0.4020   -7.2950  -63.2430 C.3   444  ALA444      0.0334
    103  N         -1.4270   -4.9410  -63.0900 N.am  445  GLU445     -0.1963
    104  CA        -1.8510   -3.6440  -63.6050 C.3   445  GLU445      0.1733
    105  C         -0.7640   -3.0730  -64.5080 C.2   445  GLU445      0.2616
    106  O          0.4110   -3.4100  -64.3610 O.2   445  GLU445     -0.2715
    107  CB        -2.1550   -2.6770  -62.4590 C.3   445  GLU445      0.0429
    108  CG        -3.3820   -3.0390  -61.6410 C.3   445  GLU445      0.1163
    109  CD        -4.6750   -2.6550  -62.3300 C.2   445  GLU445      0.3649
    110  OE1       -5.7220   -3.2550  -62.0130 O.co2 445  GLU445     -0.2457
    111  OE2       -4.6440   -1.7470  -63.1870 O.co2 445  GLU445     -0.2457
    112  N         -1.1510   -2.2100  -65.4400 N.am  446  LEU446     -0.1977
    113  CA        -0.1810   -1.6280  -66.3600 C.3   446  LEU446      0.1596
    114  C         -0.0280   -0.1270  -66.1570 C.2   446  LEU446      0.2287
    115  O         -0.9700    0.6410  -66.3620 O.2   446  LEU446     -0.2864
    116  CB        -0.5740   -1.9140  -67.8090 C.3   446  LEU446      0.0297
    117  CG         0.3970   -1.3590  -68.8540 C.3   446  LEU446      0.0022
    118  CD1        1.7910   -1.9390  -68.6560 C.3   446  LEU446      0.0001
    119  CD2       -0.1090   -1.6360  -70.2610 C.3   446  LEU446      0.0001
@<TRIPOS>BOND
     1    46    47    1
     2    38    39    1
     3    52    51   ar
     4    53    51   ar
     5    55    54    1
     6    55    56    1
     7    51    50    1
     8    47    50    1
     9    47    48    1
    10    39    40    1
    11    39    42    1
    12    40    41    2
    13    56    57    2
    14    56    58   am
    15    48    49    2
    16    42    43    1
    17    43    45    1
    18    43    44    1
    19    58    59    1
    20    71    72    1
    21    72    75    1
    22    72    73    1
    23    59    60    1
    24    59    62    1
    25    63    60   am
    26    63    64    1
    27    65    64    1
    28    65    66    2
    29    60    61    2
    30    73    74    2
    31    73    76   am
    32    64    67    1
    33    67    68    1
    34    76    77    1
    35    68    69    1
    36    33    32    2
    37    78    77    1
    38    78    79    2
    39    77    80    1
    40    36    34    1
    41    69    70    1
    42    32    31    1
    43   119   117    1
    44    80    81    1
    45    81    82    1
    46    28    27    2
    47    34    31    1
    48    34    35    1
    49    31    30    1
    50    82    83    1
    51   117   118    1
    52   117   116    1
    53    83    84    2
    54    27    29   am
    55    27    26    1
    56    35    37    1
    57    30    23   am
    58   116   113    1
    59    84    86    1
    60    84    85    1
    61    26    25    1
    62    23    24    2
    63    23    22    1
    64   115   114    2
    65   113   114    1
    66   113   112    1
    67    25    22    1
    68    22    21    1
    69    90    89    2
    70     5     6    1
    71     5     2    1
    72   112   105   am
    73    87    88    1
    74     6     7    1
    75     4     3    2
    76     3     2    1
    77     7     8    1
    78   101   100    2
    79    89    88    1
    80    89    94   am
    81   105   106    2
    82   105   104    1
    83     8     9    2
    84    92    91    1
    85     2     1    1
    86    10     9    1
    87     9    11    1
    88    95    94    1
    89    95    96    1
    90    88    91    1
    91    98    96   am
    92    98    99    1
    93   100    99    1
    94   100   103   am
    95   104   103    1
    96   104   107    1
    97    96    97    2
    98    15    14    2
    99    91    93    1
   100   102    99    1
   101    20    18   ar
   102   111   109   ar
   103    14    13    1
   104   107   108    1
   105   109   110   ar
   106   109   108    1
   107    18    19   ar
   108    18    17    1
   109    13    12    1
   110    13    16    1
   111    17    16    1
