@<TRIPOS>MOLECULE
tmp/4n1aC00.pdb
 109 99 0 0 0
SMALL
GASTEIGER

@<TRIPOS>ATOM
      1  N        -82.1200  -11.2450   50.7080 N.3   382  ARG382     -0.1245
      2  CA       -82.1530  -12.6110   51.2190 C.3   382  ARG382      0.1563
      3  C        -81.6940  -13.5920   50.1430 C.2   382  ARG382      0.2260
      4  O        -81.7660  -13.2950   48.9500 O.2   382  ARG382     -0.2867
      5  CB       -83.5590  -12.9690   51.7070 C.3   382  ARG382      0.0307
      6  CG       -84.0050  -12.2160   52.9580 C.3   382  ARG382      0.0489
      7  CD       -83.3300  -12.7560   54.2130 C.3   382  ARG382      0.2205
      8  NE       -83.7700  -12.0590   55.4180 N.pl3 382  ARG382     -0.0865
      9  CZ       -83.4560  -12.4300   56.6570 C.cat 382  ARG382      0.5346
     10  NH1      -82.6980  -13.4990   56.8600 N.pl3 382  ARG382      0.1354
     11  NH2      -83.9010  -11.7320   57.6920 N.pl3 382  ARG382      0.1354
     12  N        -81.6130  -17.6690   48.5170 N.3   384  ILE384     -0.1245
     13  CA       -82.1610  -19.0180   48.4130 C.3   384  ILE384      0.1561
     14  C        -81.4030  -19.8080   47.3530 C.2   384  ILE384      0.2260
     15  O        -81.3840  -19.4320   46.1800 O.2   384  ILE384     -0.2867
     16  CB       -83.6600  -19.0120   48.0650 C.3   384  ILE384      0.0252
     17  CG1      -84.4710  -18.4040   49.2080 C.3   384  ILE384      0.0019
     18  CG2      -84.1430  -20.4270   47.7830 C.3   384  ILE384      0.0019
     19  CD1      -85.9480  -18.3220   48.9280 C.3   384  ILE384      0.0001
     20  N        -76.6340  -15.6950   57.4720 N.3   399  GLU399     -0.1245
     21  CA       -78.0030  -15.4770   57.9280 C.3   399  GLU399      0.1567
     22  C        -78.8660  -14.9250   56.7930 C.2   399  GLU399      0.2260
     23  O        -80.0920  -14.8770   56.8950 O.2   399  GLU399     -0.2867
     24  CB       -78.0230  -14.5350   59.1370 C.3   399  GLU399      0.0388
     25  CG       -79.3610  -14.4770   59.8750 C.3   399  GLU399      0.1160
     26  CD       -79.9010  -15.8530   60.2410 C.2   399  GLU399      0.3649
     27  OE1      -79.1100  -16.7120   60.6870 O.co2 399  GLU399     -0.2457
     28  OE2      -81.1200  -16.0750   60.0770 O.co2 399  GLU399     -0.2457
     29  N        -82.0280  -18.5060   53.3780 N.3   402  ILE402     -0.1245
     30  CA       -83.3990  -18.7980   53.7720 C.3   402  ILE402      0.1561
     31  C        -83.7800  -20.2280   53.3980 C.2   402  ILE402      0.2260
     32  O        -84.2660  -20.9890   54.2340 O.2   402  ILE402     -0.2867
     33  CB       -84.3860  -17.8120   53.1210 C.3   402  ILE402      0.0252
     34  CG1      -84.3450  -16.4660   53.8430 C.3   402  ILE402      0.0019
     35  CG2      -85.7910  -18.3690   53.1500 C.3   402  ILE402      0.0019
     36  CD1      -85.4580  -15.5310   53.4340 C.3   402  ILE402      0.0001
     37  N        -89.7800  -24.9550   47.8040 N.3   414  LEU414     -0.1245
     38  CA       -89.2180  -23.6120   47.8360 C.3   414  LEU414      0.1561
     39  C        -89.8230  -22.7360   46.7490 C.2   414  LEU414      0.2260
     40  O        -89.9900  -21.5360   46.9340 O.2   414  LEU414     -0.2867
     41  CB       -87.6950  -23.6570   47.6820 C.3   414  LEU414      0.0270
     42  CG       -86.8860  -24.0330   48.9240 C.3   414  LEU414      0.0019
     43  CD1      -85.3970  -24.0130   48.6170 C.3   414  LEU414      0.0001
     44  CD2      -87.2090  -23.0910   50.0730 C.3   414  LEU414      0.0001
     45  N        -93.5560  -21.2200   47.8200 N.3   417  ASP417     -0.1225
     46  CA       -93.6740  -20.0890   48.7300 C.3   417  ASP417      0.1805
     47  C        -92.9860  -18.8550   48.1530 C.2   417  ASP417      0.2597
     48  O        -93.2890  -17.7310   48.5440 O.2   417  ASP417     -0.2718
     49  CB       -93.1050  -20.4380   50.1120 C.3   417  ASP417      0.1424
     50  CG       -91.7120  -21.0310   50.0440 C.2   417  ASP417      0.3668
     51  OD1      -90.8900  -20.5420   49.2440 O.co2 417  ASP417     -0.2456
     52  OD2      -91.4350  -21.9870   50.7990 O.co2 417  ASP417     -0.2456
     53  N        -92.0610  -19.0740   47.2220 N.am  418  ILE418     -0.1980
     54  CA       -91.4220  -17.9750   46.5020 C.3   418  ILE418      0.1595
     55  C        -92.4140  -17.3380   45.5360 C.2   418  ILE418      0.2287
     56  O        -92.5610  -16.1140   45.4930 O.2   418  ILE418     -0.2864
     57  CB       -90.1770  -18.4450   45.7160 C.3   418  ILE418      0.0276
     58  CG1      -88.9840  -18.6280   46.6520 C.3   418  ILE418      0.0022
     59  CG2      -89.8110  -17.4440   44.6290 C.3   418  ILE418      0.0022
     60  CD1      -87.7690  -19.2100   45.9630 C.3   418  ILE418      0.0001
     61  N        -95.6340  -17.2840   45.5630 N.3   420  GLY420     -0.1210
     62  CA       -96.6640  -16.5430   46.2650 C.3   420  GLY420      0.1956
     63  C        -96.1420  -15.2770   46.9200 C.2   420  GLY420      0.2611
     64  O        -96.8550  -14.2770   47.0050 O.2   420  GLY420     -0.2717
     65  N        -94.8960  -15.3200   47.3830 N.am  421  ALA421     -0.1979
     66  CA       -94.2960  -14.1830   48.0740 C.3   421  ALA421      0.1597
     67  C        -94.0410  -13.0150   47.1260 C.2   421  ALA421      0.2287
     68  O        -94.1210  -11.8540   47.5280 O.2   421  ALA421     -0.2864
     69  CB       -93.0000  -14.6000   48.7490 C.3   421  ALA421      0.0319
     70  N        -97.3240  -11.2800   45.7990 N.3   424  ALA424     -0.1231
     71  CA       -97.8240  -10.3250   46.7810 C.3   424  ALA424      0.1694
     72  C        -97.0640   -9.0080   46.6600 C.2   424  ALA424      0.2591
     73  O        -97.3750   -8.0290   47.3400 O.2   424  ALA424     -0.2718
     74  CB       -97.7020  -10.8880   48.1880 C.3   424  ALA424      0.0304
     75  N        -96.0590   -9.0020   45.7900 N.am  425  ARG425     -0.1980
     76  CA       -95.2760   -7.8060   45.5120 C.3   425  ARG425      0.1597
     77  C        -95.5480   -7.2950   44.1020 C.2   425  ARG425      0.2287
     78  O        -95.0640   -6.2300   43.7160 O.2   425  ARG425     -0.2864
     79  CB       -93.7830   -8.0870   45.6880 C.3   425  ARG425      0.0334
     80  CG       -93.3370   -8.2420   47.1330 C.3   425  ARG425      0.0492
     81  CD       -91.8510   -8.5510   47.2110 C.3   425  ARG425      0.2205
     82  NE       -91.3290   -8.3990   48.5650 N.pl3 425  ARG425     -0.0865
     83  CZ       -90.0640   -8.6250   48.9060 C.cat 425  ARG425      0.5346
     84  NH1      -89.1900   -9.0180   47.9890 N.pl3 425  ARG425      0.1354
     85  NH2      -89.6730   -8.4570   50.1620 N.pl3 425  ARG425      0.1354
     86  N        -92.5210   -3.2720   51.7000 N.3   443  THR443     -0.1203
     87  CA       -91.1930   -3.1950   52.2930 C.3   443  THR443      0.1994
     88  C        -90.6170   -4.5960   52.4640 C.2   443  THR443      0.2618
     89  O        -91.2790   -5.5880   52.1560 O.2   443  THR443     -0.2717
     90  CB       -91.2110   -2.4750   53.6570 C.3   443  THR443      0.1784
     91  OG1      -92.1110   -3.1480   54.5460 O.3   443  THR443     -0.2211
     92  CG2      -91.6530   -1.0280   53.4920 C.3   443  THR443      0.0376
     93  N        -89.3840   -4.6730   52.9500 N.am  444  GLY444     -0.1942
     94  CA       -88.7280   -5.9520   53.1480 C.3   444  GLY444      0.2014
     95  C        -87.3820   -6.0280   52.4560 C.2   444  GLY444      0.2638
     96  O        -86.6340   -5.0510   52.4220 O.2   444  GLY444     -0.2714
     97  N        -87.0750   -7.1940   51.8960 N.am  445  ALA445     -0.1977
     98  CA       -85.7870   -7.4180   51.2500 C.3   445  ALA445      0.1597
     99  C        -85.9550   -7.8760   49.8060 C.2   445  ALA445      0.2287
    100  O        -87.0740   -8.0570   49.3270 O.2   445  ALA445     -0.2864
    101  CB       -84.9770   -8.4390   52.0340 C.3   445  ALA445      0.0319
    102  N        -84.9610  -10.8310   46.8940 N.3   447  LEU447     -0.1245
    103  CA       -84.6210  -12.2480   46.8480 C.3   447  LEU447      0.1561
    104  C        -83.6370  -12.5860   45.7310 C.2   447  LEU447      0.2260
    105  O        -83.8690  -12.2700   44.5650 O.2   447  LEU447     -0.2867
    106  CB       -85.8870  -13.0920   46.6830 C.3   447  LEU447      0.0270
    107  CG       -85.6470  -14.6000   46.5960 C.3   447  LEU447      0.0019
    108  CD1      -84.8720  -15.0740   47.8140 C.3   447  LEU447      0.0001
    109  CD2      -86.9590  -15.3600   46.4560 C.3   447  LEU447      0.0001
@<TRIPOS>BOND
     1    78    77    2
     2    77    76    1
     3   105   104    2
     4    59    57    1
     5    56    55    2
     6    76    79    1
     7    76    75    1
     8    55    54    1
     9    61    62    1
    10    79    80    1
    11    57    54    1
    12    57    58    1
    13   104   103    1
    14    75    72   am
    15    70    71    1
    16    60    58    1
    17    15    14    2
    18    62    63    1
    19   109   107    1
    20    54    53    1
    21   107   106    1
    22   107   108    1
    23    72    71    1
    24    72    73    2
    25   106   103    1
    26    39    40    2
    27    39    38    1
    28    71    74    1
    29   103   102    1
    30    63    64    2
    31    63    65   am
    32    67    68    2
    33    67    66    1
    34    80    81    1
    35    81    82    1
    36    53    47   am
    37    14    13    1
    38    65    66    1
    39    41    38    1
    40    41    42    1
    41    18    16    1
    42    37    38    1
    43    45    46    1
    44    84    83    1
    45    16    13    1
    46    16    17    1
    47    66    69    1
    48    47    48    2
    49    47    46    1
    50    13    12    1
    51    82    83    2
    52    43    42    1
    53    46    49    1
    54    83    85    1
    55    42    44    1
    56    19    17    1
    57     4     3    2
    58    51    50   ar
    59   100    99    2
    60    99    98    1
    61    50    49    1
    62    50    52   ar
    63     3     2    1
    64     1     2    1
    65     2     5    1
    66    98    97    1
    67    98   101    1
    68    86    87    1
    69     5     6    1
    70    97    95   am
    71    89    88    2
    72    87    88    1
    73    87    90    1
    74    96    95    2
    75    95    94    1
    76    88    93   am
    77    93    94    1
    78     6     7    1
    79    33    35    1
    80    33    30    1
    81    33    34    1
    82    29    30    1
    83    31    30    1
    84    31    32    2
    85    36    34    1
    86    92    90    1
    87    90    91    1
    88     7     8    1
    89     8     9    2
    90     9    10    1
    91     9    11    1
    92    22    23    2
    93    22    21    1
    94    20    21    1
    95    21    24    1
    96    24    25    1
    97    25    26    1
    98    28    26   ar
    99    26    27   ar
