@<TRIPOS>MOLECULE
tmp/4n1oA02.pdb
 74 72 0 0 0
SMALL
GASTEIGER

@<TRIPOS>ATOM
      1  N         -0.6460    1.4160    7.2870 N.3    95  PRO95      -0.2102
      2  CA        -0.2970    0.9430    8.5920 C.3    95  PRO95       0.1504
      3  C         -1.5030    0.8550    9.4840 C.2    95  PRO95       0.2576
      4  O         -2.4120    1.6850    9.4090 O.2    95  PRO95      -0.2718
      5  CB         0.6570    2.0360    9.1490 C.3    95  PRO95       0.0282
      6  CG         1.3310    2.5260    7.9580 C.3    95  PRO95       0.0208
      7  CD         0.1620    2.5910    6.9050 C.3    95  PRO95       0.0893
      8  N         -1.5310   -0.1700   10.3180 N.am   96  GLY96      -0.1957
      9  CA        -2.6720   -0.3600   11.2320 C.3    96  GLY96       0.1869
     10  C         -3.8090   -1.2780   10.7910 C.2    96  GLY96       0.2309
     11  O         -4.5240   -1.8240   11.6390 O.2    96  GLY96      -0.2863
     12  N         -8.8780   -2.1690   12.4040 N.3   131  LYS131     -0.1231
     13  CA        -7.7290   -1.2830   12.3330 C.3   131  LYS131      0.1693
     14  C         -7.2720   -0.8870   13.7210 C.2   131  LYS131      0.2592
     15  O         -8.0960   -0.7440   14.6220 O.2   131  LYS131     -0.2718
     16  CB        -8.0500   -0.0460   11.4920 C.3   131  LYS131      0.0285
     17  CG        -8.9230    1.0170   12.1610 C.3   131  LYS131      0.0035
     18  CD        -9.2020    2.1790   11.1950 C.3   131  LYS131      0.0206
     19  CE       -10.4450    2.9880   11.6170 C.3   131  LYS131      0.1093
     20  NZ       -11.0130    3.6560   10.3280 N.3   131  LYS131     -0.1314
     21  N         -5.9470   -0.7170   13.8730 N.am  132  VAL132     -0.1966
     22  CA        -5.3840   -0.2440   15.1360 C.3   132  VAL132      0.1727
     23  C         -6.0180    1.1070   15.4110 C.2   132  VAL132      0.2616
     24  O         -6.0750    2.0170   14.5340 O.2   132  VAL132     -0.2715
     25  CB        -3.8380   -0.1140   15.0340 C.3   132  VAL132      0.0290
     26  CG1       -3.2550    0.5810   16.3150 C.3   132  VAL132      0.0023
     27  CG2       -3.1910   -1.4820   14.8610 C.3   132  VAL132      0.0023
     28  N         -6.4620    1.2540   16.6450 N.am  133  LYS133     -0.1963
     29  CA        -7.0450    2.5010   17.1490 C.3   133  LYS133      0.1728
     30  C         -6.0580    3.2350   18.0580 C.2   133  LYS133      0.2616
     31  O         -6.0890    4.4760   18.1360 O.2   133  LYS133     -0.2715
     32  CB        -8.3620    2.1110   17.8710 C.3   133  LYS133      0.0311
     33  CG        -8.9030    2.9790   18.9870 C.3   133  LYS133      0.0038
     34  CD        -9.9480    2.2230   19.7810 C.3   133  LYS133      0.0206
     35  CE       -11.2760    2.3420   19.1280 C.3   133  LYS133      0.1093
     36  NZ       -11.9360    3.6060   19.4780 N.3   133  LYS133     -0.1314
     37  N         -5.2710    2.4840   18.8180 N.am  134  GLU134     -0.1963
     38  CA        -4.2940    3.0530   19.7600 C.3   134  GLU134      0.1733
     39  C         -3.1320    2.0400   19.8970 C.2   134  GLU134      0.2617
     40  O         -3.3570    0.8150   19.7680 O.2   134  GLU134     -0.2715
     41  CB        -5.0130    3.3280   21.1080 C.3   134  GLU134      0.0429
     42  CG        -4.3040    4.1160   22.1760 C.3   134  GLU134      0.1163
     43  CD        -5.2620    4.5490   23.3230 C.2   134  GLU134      0.3649
     44  OE1       -5.9460    3.6910   23.9270 O.co2 134  GLU134     -0.2457
     45  OE2       -5.2730    5.7440   23.6830 O.co2 134  GLU134     -0.2457
     46  N         -1.9000    2.5280   20.1030 N.am  135  GLY135     -0.1940
     47  CA        -0.7640    1.6750   20.2680 C.3   135  GLY135      0.2014
     48  C         -0.1050    1.2610   18.9540 C.2   135  GLY135      0.2639
     49  O          0.6300    0.2420   18.8840 O.2   135  GLY135     -0.2714
     50  N         -0.3640    2.0220   17.8750 N.am  136  MET136     -0.1963
     51  CA         0.3960    1.7460   16.6620 C.3   136  MET136      0.1736
     52  C          1.9030    1.8280   16.9480 C.2   136  MET136      0.2616
     53  O          2.7190    1.0850   16.3500 O.2   136  MET136     -0.2715
     54  CB         0.0050    2.6850   15.5100 C.3   136  MET136      0.0427
     55  CG         0.6780    2.2470   14.2150 C.3   136  MET136      0.0599
     56  SD        -0.0460    0.7180   13.5860 S.3   136  MET136     -0.1393
     57  CE         1.4050    0.2370   12.5390 C.3   136  MET136      0.0692
     58  N          2.2960    2.7270   17.8610 N.am  137  ASN137     -0.1972
     59  CA         3.7200    2.7610   18.2310 C.3   137  ASN137      0.1688
     60  C          4.2240    1.4450   18.8280 C.2   137  ASN137      0.2292
     61  O          5.4340    1.1180   18.7690 O.2   137  ASN137     -0.2864
     62  CB         3.9840    3.9120   19.2020 C.3   137  ASN137      0.1181
     63  CG         3.2620    3.7470   20.5310 C.2   137  ASN137      0.2629
     64  OD1        2.1160    3.3400   20.5870 O.2   137  ASN137     -0.2716
     65  ND2        3.9800    4.0280   21.6390 N.am  137  ASN137     -0.0877
     66  N          4.8610   -0.8070   15.9690 N.3   140  GLU140     -0.1245
     67  CA         6.1640   -0.4080   15.4250 C.3   140  GLU140      0.1567
     68  C          7.3400   -0.9650   16.2720 C.2   140  GLU140      0.2260
     69  O          8.3630   -1.3740   15.7250 O.2   140  GLU140     -0.2867
     70  CB         6.2600    1.1090   15.3040 C.3   140  GLU140      0.0388
     71  CG         5.1620    1.7470   14.3550 C.3   140  GLU140      0.1160
     72  CD         5.0370    3.2630   14.4910 C.2   140  GLU140      0.3649
     73  OE1        5.6380    3.8350   15.4430 O.co2 140  GLU140     -0.2457
     74  OE2        4.3120    3.9150   13.6570 O.co2 140  GLU140     -0.2457
@<TRIPOS>BOND
     1     7     1    1
     2     7     6    1
     3     1     2    1
     4     6     5    1
     5     2     5    1
     6     2     3    1
     7     4     3    2
     8     3     8   am
     9     8     9    1
    10    20    19    1
    11    10     9    1
    12    10    11    2
    13    18    19    1
    14    18    17    1
    15    16    17    1
    16    16    13    1
    17    13    12    1
    18    13    14    1
    19    57    56    1
    20    56    55    1
    21    74    72   ar
    22    14    21   am
    23    14    15    2
    24    21    22    1
    25    55    54    1
    26    71    72    1
    27    71    70    1
    28    72    73   ar
    29    24    23    2
    30    27    25    1
    31    25    22    1
    32    25    26    1
    33    22    23    1
    34    70    67    1
    35    23    28   am
    36    67    66    1
    37    67    68    1
    38    54    51    1
    39    69    68    2
    40    53    52    2
    41    28    29    1
    42    51    52    1
    43    51    50    1
    44    52    58   am
    45    29    32    1
    46    29    30    1
    47    58    59    1
    48    32    33    1
    49    50    48   am
    50    30    31    2
    51    30    37   am
    52    59    60    1
    53    59    62    1
    54    61    60    2
    55    37    38    1
    56    49    48    2
    57    48    47    1
    58    33    34    1
    59    35    36    1
    60    35    34    1
    61    62    63    1
    62    38    39    1
    63    38    41    1
    64    40    39    2
    65    39    46   am
    66    46    47    1
    67    63    64    2
    68    63    65   am
    69    41    42    1
    70    42    43    1
    71    43    45   ar
    72    43    44   ar
