@<TRIPOS>MOLECULE
tmp/4n1pA00.pdb
 109 107 0 0 0
SMALL
GASTEIGER

@<TRIPOS>ATOM
      1  N         -5.4820  -15.0540  -12.7730 N.3    55  ARG55      -0.1245
      2  CA        -6.1330  -14.7530  -11.4940 C.3    55  ARG55       0.1563
      3  C         -6.1360  -13.2220  -11.4010 C.2    55  ARG55       0.2260
      4  O         -5.0970  -12.6470  -11.2960 O.2    55  ARG55      -0.2867
      5  CB        -5.3700  -15.3940  -10.3070 C.3    55  ARG55       0.0307
      6  CG        -6.0460  -15.2670   -8.9450 C.3    55  ARG55       0.0489
      7  CD        -5.5090  -16.2760   -7.8770 C.3    55  ARG55       0.2205
      8  NE        -6.3910  -16.3810   -6.7030 N.pl3  55  ARG55      -0.0865
      9  CZ        -6.1070  -15.8650   -5.5030 C.cat  55  ARG55       0.5346
     10  NH1       -4.9410  -15.2660   -5.3570 N.pl3  55  ARG55       0.1354
     11  NH2       -6.9600  -15.9600   -4.4580 N.pl3  55  ARG55       0.1354
     12  N         -7.2940   -5.6380   -5.7310 N.3    60  PHE60      -0.1227
     13  CA        -6.1740   -6.3630   -5.1490 C.3    60  PHE60       0.1736
     14  C         -4.9680   -6.4970   -6.1350 C.2    60  PHE60       0.2595
     15  O         -3.9080   -5.8770   -5.9320 O.2    60  PHE60      -0.2718
     16  CB        -6.6600   -7.7340   -4.6130 C.3    60  PHE60       0.0547
     17  CG        -5.5710   -8.6030   -3.9530 C.ar   60  PHE60      -0.0202
     18  CD1       -4.3190   -8.0580   -3.5250 C.ar   60  PHE60      -0.0042
     19  CD2       -5.8190   -9.9950   -3.7660 C.ar   60  PHE60      -0.0042
     20  CE1       -3.3230   -8.8720   -2.9170 C.ar   60  PHE60      -0.0003
     21  CE2       -4.8120  -10.8460   -3.1240 C.ar   60  PHE60      -0.0003
     22  CZ        -3.5940  -10.2910   -2.7340 C.ar   60  PHE60      -0.0000
     23  N         -5.1150   -7.3230   -7.1610 N.am   61  MET61      -0.1979
     24  CA        -4.0050   -7.5390   -8.0800 C.3    61  MET61       0.1605
     25  C         -4.4220   -8.3650   -9.3260 C.2    61  MET61       0.2287
     26  O         -5.4830   -9.0200   -9.3230 O.2    61  MET61      -0.2864
     27  CB        -2.7900   -8.1650   -7.3710 C.3    61  MET61       0.0413
     28  CG        -3.0330   -9.5580   -6.7300 C.3    61  MET61       0.0598
     29  SD        -2.8850  -10.8730   -7.9720 S.3    61  MET61      -0.1393
     30  CE        -4.2060  -11.9260   -7.2270 C.3    61  MET61       0.0692
     31  N         -2.5720  -11.2750  -11.6490 N.3    63  GLN63      -0.1245
     32  CA        -1.4970  -12.2370  -11.6150 C.3    63  GLN63       0.1566
     33  C         -1.3760  -13.0000  -12.9470 C.2    63  GLN63       0.2260
     34  O         -2.3720  -13.4240  -13.5160 O.2    63  GLN63      -0.2867
     35  CB        -1.6340  -13.2220  -10.4240 C.3    63  GLN63       0.0367
     36  CG        -0.3450  -14.0900  -10.2420 C.3    63  GLN63       0.0905
     37  CD        -0.4350  -15.0380   -9.0360 C.2    63  GLN63       0.2608
     38  OE1       -1.1970  -14.7740   -8.1150 O.2    63  GLN63      -0.2717
     39  NE2        0.3380  -16.1560   -9.0520 N.am   63  GLN63      -0.0878
     40  N          5.3990  -13.4180   -7.7110 N.3   101  ALA101     -0.1231
     41  CA         4.5260  -14.3660   -7.0450 C.3   101  ALA101      0.1694
     42  C          5.4610  -15.4600   -6.5040 C.2   101  ALA101      0.2592
     43  O          6.5820  -15.5570   -6.9670 O.2   101  ALA101     -0.2718
     44  CB         3.4590  -14.9210   -8.0630 C.3   101  ALA101      0.0304
     45  N          5.0640  -16.1820   -5.4470 N.am  102  ASN102     -0.1960
     46  CA         5.9220  -17.2780   -4.9400 C.3   102  ASN102      0.1819
     47  C          5.0980  -18.2070   -4.0590 C.2   102  ASN102      0.2621
     48  O          3.9480  -17.9010   -3.7830 O.2   102  ASN102     -0.2715
     49  CB         7.1920  -16.7250   -4.1780 C.3   102  ASN102      0.1195
     50  CG         6.8400  -15.9770   -2.9030 C.2   102  ASN102      0.2630
     51  OD1        6.0820  -16.4720   -2.0600 O.2   102  ASN102     -0.2716
     52  ND2        7.3670  -14.7680   -2.7690 N.am  102  ASN102     -0.0877
     53  N          5.6860  -19.3030   -3.5890 N.am  103  ALA103     -0.1977
     54  CA         4.9470  -20.2650   -2.7700 C.3   103  ALA103      0.1597
     55  C          5.7870  -20.5660   -1.5550 C.2   103  ALA103      0.2287
     56  O          5.7480  -21.6730   -1.0530 O.2   103  ALA103     -0.2864
     57  CB         4.7130  -21.5380   -3.5440 C.3   103  ALA103      0.0319
     58  N          2.8300  -10.4750  -10.2920 N.3   113  PHE113     -0.1241
     59  CA         1.5220   -9.8150  -10.2170 C.3   113  PHE113      0.1605
     60  C          1.6600   -8.2790  -10.3040 C.2   113  PHE113      0.2264
     61  O          2.6930   -7.7160   -9.9470 O.2   113  PHE113     -0.2867
     62  CB         0.7360  -10.2010   -8.9480 C.3   113  PHE113      0.0534
     63  CG         1.4670   -9.9630   -7.6630 C.ar  113  PHE113     -0.0203
     64  CD1        2.4320  -10.8970   -7.1980 C.ar  113  PHE113     -0.0042
     65  CD2        1.1770   -8.8250   -6.8750 C.ar  113  PHE113     -0.0042
     66  CE1        3.1230  -10.6810   -6.0020 C.ar  113  PHE113     -0.0003
     67  CE2        1.8690   -8.6250   -5.6400 C.ar  113  PHE113     -0.0003
     68  CZ         2.8470   -9.5510   -5.2240 C.ar  113  PHE113     -0.0000
     69  N          1.1040   -5.9800    3.4860 N.3   121  TRP121     -0.1227
     70  CA         1.3330   -7.3000    4.1660 C.3   121  TRP121      0.1737
     71  C          2.2600   -8.2210    3.3660 C.2   121  TRP121      0.2595
     72  O          2.7810   -9.2390    3.8860 O.2   121  TRP121     -0.2718
     73  CB         0.0030   -8.0210    4.4710 C.3   121  TRP121      0.0564
     74  CG        -0.7680   -8.3890    3.2280 C.ar  121  TRP121      0.0003
     75  CD1       -0.7320   -9.6020    2.5020 C.ar  121  TRP121      0.0946
     76  CD2       -1.7070   -7.5520    2.5620 C.ar  121  TRP121      0.0152
     77  NE1       -1.6420   -9.5180    1.4280 N.ar  121  TRP121     -0.2442
     78  CE2       -2.2400   -8.2880    1.4600 C.ar  121  TRP121      0.0810
     79  CE3       -2.2220   -6.2710    2.8380 C.ar  121  TRP121      0.0012
     80  CZ2       -3.1790   -7.7320    0.6040 C.ar  121  TRP121      0.0191
     81  CZ3       -3.1410   -5.7310    2.0020 C.ar  121  TRP121      0.0001
     82  CH2       -3.6390   -6.4620    0.9070 C.ar  121  TRP121      0.0015
     83  N          2.4430   -7.8580    2.0860 N.am  122  LEU122     -0.1980
     84  CA         3.3710   -8.5700    1.1880 C.3   122  LEU122      0.1596
     85  C          4.8280   -8.0600    1.2930 C.2   122  LEU122      0.2287
     86  O          5.7330   -8.6780    0.7600 O.2   122  LEU122     -0.2864
     87  CB         2.8860   -8.5150   -0.2630 C.3   122  LEU122      0.0297
     88  CG         1.4600   -8.9980   -0.5340 C.3   122  LEU122      0.0022
     89  CD1        1.1650   -9.0220   -2.0380 C.3   122  LEU122      0.0001
     90  CD2        1.2820  -10.4090    0.0370 C.3   122  LEU122      0.0001
     91  N          8.1360  -10.2610    1.9520 N.3   125  LYS125     -0.1231
     92  CA         7.9170  -11.6500    1.4560 C.3   125  LYS125      0.1693
     93  C          7.7840  -11.8440   -0.0700 C.2   125  LYS125      0.2592
     94  O          7.9570  -12.9420   -0.5930 O.2   125  LYS125     -0.2718
     95  CB         6.7760  -12.2900    2.2620 C.3   125  LYS125      0.0285
     96  CG         5.4460  -11.9940    1.7420 C.3   125  LYS125      0.0035
     97  CD         4.3660  -12.4270    2.7910 C.3   125  LYS125      0.0206
     98  CE         3.8110  -13.7970    2.4810 C.3   125  LYS125      0.1093
     99  NZ         2.3020  -13.8890    2.8120 N.3   125  LYS125     -0.1314
    100  N          7.4800  -10.7670   -0.7960 N.am  126  HIS126     -0.1976
    101  CA         7.4290  -10.8030   -2.2280 C.3   126  HIS126      0.1656
    102  C          8.3900   -9.7350   -2.7380 C.2   126  HIS126      0.2291
    103  O          8.3650   -8.5870   -2.2330 O.2   126  HIS126     -0.2864
    104  CB         5.9820  -10.5590   -2.7560 C.3   126  HIS126      0.0771
    105  CG         5.0610  -11.7280   -2.4620 C.ar  126  HIS126      0.0820
    106  ND1        4.8980  -12.7900   -3.3180 N.ar  126  HIS126     -0.2267
    107  CD2        4.3200  -12.0140   -1.3620 C.ar  126  HIS126      0.1154
    108  CE1        4.0910  -13.6880   -2.7710 C.ar  126  HIS126      0.1986
    109  NE2        3.7150  -13.2410   -1.5810 N.ar  126  HIS126     -0.2212
@<TRIPOS>BOND
     1    34    33    2
     2    33    32    1
     3     1     2    1
     4    31    32    1
     5    32    35    1
     6     2     3    1
     7     2     5    1
     8     3     4    2
     9    35    36    1
    10     5     6    1
    11    60    59    1
    12    60    61    2
    13    58    59    1
    14    36    37    1
    15    59    62    1
    16    25    26    2
    17    25    24    1
    18    39    37   am
    19    37    38    2
    20    62    63    1
    21     6     7    1
    22    24    27    1
    23    24    23    1
    24    44    41    1
    25    29    30    1
    26    29    28    1
    27     7     8    1
    28    40    41    1
    29    63    64   ar
    30    63    65   ar
    31    27    28    1
    32    64    66   ar
    33    23    14   am
    34    41    42    1
    35    43    42    2
    36    65    67   ar
    37     8     9    2
    38    42    45   am
    39    14    15    2
    40    14    13    1
    41    66    68   ar
    42    12    13    1
    43    67    68   ar
    44     9    10    1
    45     9    11    1
    46    45    46    1
    47    13    16    1
    48    46    49    1
    49    46    47    1
    50    16    17    1
    51    49    50    1
    52    47    48    2
    53    47    53   am
    54    17    19   ar
    55    17    18   ar
    56    19    21   ar
    57    53    54    1
    58    57    54    1
    59    18    20   ar
    60   106   108   ar
    61   106   105   ar
    62    21    22   ar
    63    20    22   ar
    64    50    52   am
    65    50    51    2
    66   108   109   ar
    67    54    55    1
    68   104   105    1
    69   104   101    1
    70   102   103    2
    71   102   101    1
    72   105   107   ar
    73   101   100    1
    74    89    88    1
    75   109   107   ar
    76    55    56    2
    77   100    93   am
    78    94    93    2
    79    88    87    1
    80    88    90    1
    81    87    84    1
    82    93    92    1
    83    80    82   ar
    84    80    78   ar
    85    86    85    2
    86    82    81   ar
    87    84    85    1
    88    84    83    1
    89    77    78   ar
    90    77    75   ar
    91    92    91    1
    92    92    95    1
    93    78    76   ar
    94    96    95    1
    95    96    97    1
    96    81    79   ar
    97    83    71   am
    98    98    97    1
    99    98    99    1
   100    75    74   ar
   101    76    79   ar
   102    76    74   ar
   103    74    73    1
   104    71    72    2
   105    71    70    1
   106    69    70    1
   107    70    73    1
