@<TRIPOS>MOLECULE
tmp/4n1pA01.pdb
 81 75 0 0 0
SMALL
GASTEIGER

@<TRIPOS>ATOM
      1  N         -2.5720  -11.2750  -11.6490 N.3    63  GLN63      -0.1245
      2  CA        -1.4970  -12.2370  -11.6150 C.3    63  GLN63       0.1566
      3  C         -1.3760  -13.0000  -12.9470 C.2    63  GLN63       0.2260
      4  O         -2.3720  -13.4240  -13.5160 O.2    63  GLN63      -0.2867
      5  CB        -1.6340  -13.2220  -10.4240 C.3    63  GLN63       0.0367
      6  CG        -0.3450  -14.0900  -10.2420 C.3    63  GLN63       0.0905
      7  CD        -0.4350  -15.0380   -9.0360 C.2    63  GLN63       0.2608
      8  OE1       -1.1970  -14.7740   -8.1150 O.2    63  GLN63      -0.2717
      9  NE2        0.3380  -16.1560   -9.0520 N.am   63  GLN63      -0.0878
     10  N         -1.4450  -20.9000  -12.5200 N.3    72  GLY72      -0.1210
     11  CA        -0.8620  -20.4910  -11.2310 C.3    72  GLY72       0.1956
     12  C          0.0540  -21.4940  -10.5090 C.2    72  GLY72       0.2613
     13  O          0.6550  -21.1900   -9.4410 O.2    72  GLY72      -0.2717
     14  N          0.1780  -22.6960  -11.0930 N.am   73  THR73      -0.1938
     15  CA         1.0140  -23.7310  -10.5030 C.3    73  THR73       0.2028
     16  C          2.3430  -23.9330  -11.2550 C.2    73  THR73       0.2643
     17  O          3.1480  -24.7850  -10.8680 O.2    73  THR73      -0.2714
     18  CB         0.2190  -25.0950  -10.4520 C.3    73  THR73       0.1808
     19  OG1        0.0020  -25.5550  -11.8000 O.3    73  THR73      -0.2208
     20  CG2       -1.2170  -24.9460   -9.7740 C.3    73  THR73       0.0379
     21  N          2.6330  -23.1320  -12.2880 N.am   74  GLY74      -0.1939
     22  CA         3.8440  -23.3830  -13.0430 C.3    74  GLY74       0.2014
     23  C          4.7040  -22.2020  -13.3120 C.2    74  GLY74       0.2639
     24  O          4.6850  -21.2300  -12.5470 O.2    74  GLY74      -0.2714
     25  N          5.4070  -22.2730  -14.4530 N.am   75  GLY75      -0.1954
     26  CA         6.3660  -21.2330  -14.8290 C.3    75  GLY75       0.1869
     27  C          7.7830  -21.5780  -14.3820 C.2    75  GLY75       0.2309
     28  O          8.0030  -22.4720  -13.5650 O.2    75  GLY75      -0.2863
     29  N         13.5490  -22.3770  -10.0390 N.3    82  LYS82      -0.1245
     30  CA        13.3240  -21.3960   -8.9760 C.3    82  LYS82       0.1561
     31  C         14.5770  -20.5570   -8.6940 C.2    82  LYS82       0.2260
     32  O         15.6880  -21.0570   -8.8260 O.2    82  LYS82      -0.2867
     33  CB        12.8490  -22.1160   -7.6810 C.3    82  LYS82       0.0271
     34  CG        11.3520  -22.5230   -7.7400 C.3    82  LYS82       0.0035
     35  CD        10.9100  -23.4170   -6.5690 C.3    82  LYS82       0.0206
     36  CE        12.1050  -23.8910   -5.7560 C.3    82  LYS82       0.1093
     37  NZ        11.7340  -25.2000   -5.1360 N.3    82  LYS82      -0.1314
     38  N          5.3990  -13.4180   -7.7110 N.3   101  ALA101     -0.1231
     39  CA         4.5260  -14.3660   -7.0450 C.3   101  ALA101      0.1694
     40  C          5.4610  -15.4600   -6.5040 C.2   101  ALA101      0.2592
     41  O          6.5820  -15.5570   -6.9670 O.2   101  ALA101     -0.2718
     42  CB         3.4590  -14.9210   -8.0630 C.3   101  ALA101      0.0304
     43  N          5.0640  -16.1820   -5.4470 N.am  102  ASN102     -0.1960
     44  CA         5.9220  -17.2780   -4.9400 C.3   102  ASN102      0.1819
     45  C          5.0980  -18.2070   -4.0590 C.2   102  ASN102      0.2621
     46  O          3.9480  -17.9010   -3.7830 O.2   102  ASN102     -0.2715
     47  CB         7.1920  -16.7250   -4.1780 C.3   102  ASN102      0.1195
     48  CG         6.8400  -15.9770   -2.9030 C.2   102  ASN102      0.2630
     49  OD1        6.0820  -16.4720   -2.0600 O.2   102  ASN102     -0.2716
     50  ND2        7.3670  -14.7680   -2.7690 N.am  102  ASN102     -0.0877
     51  N          5.6860  -19.3030   -3.5890 N.am  103  ALA103     -0.1977
     52  CA         4.9470  -20.2650   -2.7700 C.3   103  ALA103      0.1597
     53  C          5.7870  -20.5660   -1.5550 C.2   103  ALA103      0.2287
     54  O          5.7480  -21.6730   -1.0530 O.2   103  ALA103     -0.2864
     55  CB         4.7130  -21.5380   -3.5440 C.3   103  ALA103      0.0319
     56  N         11.4600  -19.0190   -3.8440 N.3   107  THR107     -0.1218
     57  CA        10.7950  -19.8440   -4.8570 C.3   107  THR107      0.1862
     58  C         10.2860  -18.9920   -6.0630 C.2   107  THR107      0.2287
     59  O          9.2600  -19.2560   -6.6490 O.2   107  THR107     -0.2866
     60  CB         9.5830  -20.6520   -4.2450 C.3   107  THR107      0.1770
     61  OG1        8.6730  -19.7310   -3.6770 O.3   107  THR107     -0.2211
     62  CG2        9.9840  -21.6760   -3.1090 C.3   107  THR107      0.0375
     63  N          9.9650  -17.8260   -9.8810 N.3   109  GLY109     -0.1210
     64  CA        10.0740  -18.5460  -11.1660 C.3   109  GLY109      0.1956
     65  C          9.8240  -17.4500  -12.2230 C.2   109  GLY109      0.2613
     66  O         10.6450  -16.5340  -12.4080 O.2   109  GLY109     -0.2717
     67  N          8.6340  -17.5110  -12.8340 N.am  110  SER110     -0.1938
     68  CA         8.1680  -16.5270  -13.8270 C.3   110  SER110      0.2055
     69  C          6.8840  -15.7840  -13.4350 C.2   110  SER110      0.2642
     70  O          6.6010  -14.6680  -13.9690 O.2   110  SER110     -0.2714
     71  CB         7.9380  -17.2410  -15.1530 C.3   110  SER110      0.2130
     72  OG         7.0380  -18.3150  -15.0310 O.3   110  SER110     -0.2179
     73  N          6.0960  -16.3710  -12.5300 N.am  111  GLN111     -0.1976
     74  CA         4.8500  -15.7280  -12.1860 C.3   111  GLN111      0.1601
     75  C          5.0660  -14.4160  -11.4040 C.2   111  GLN111      0.2287
     76  O          6.0180  -14.2860  -10.6170 O.2   111  GLN111     -0.2864
     77  CB         3.9610  -16.6430  -11.3760 C.3   111  GLN111      0.0394
     78  CG         3.4080  -17.8520  -12.1980 C.3   111  GLN111      0.0908
     79  CD         2.4870  -18.6300  -11.2910 C.2   111  GLN111      0.2608
     80  OE1        1.5210  -18.0580  -10.7740 O.2   111  GLN111     -0.2717
     81  NE2        2.7770  -19.9210  -11.0640 N.am  111  GLN111     -0.0878
@<TRIPOS>BOND
     1    71    72    1
     2    71    68    1
     3    26    25    1
     4    26    27    1
     5    25    23   am
     6    27    28    2
     7    70    69    2
     8    68    69    1
     9    68    67    1
    10     4     3    2
    11    69    73   am
    12    23    22    1
    13    23    24    2
    14    22    21    1
    15     3     2    1
    16    67    65   am
    17    73    74    1
    18    10    11    1
    19    66    65    2
    20    21    16   am
    21    65    64    1
    22    78    77    1
    23    78    79    1
    24    74    75    1
    25    74    77    1
    26    19    18    1
    27     1     2    1
    28     2     5    1
    29    75    76    2
    30    79    81   am
    31    79    80    2
    32    16    17    2
    33    16    15    1
    34    11    12    1
    35    64    63    1
    36    14    12   am
    37    14    15    1
    38    12    13    2
    39    15    18    1
    40    18    20    1
    41     5     6    1
    42     6     7    1
    43    29    30    1
    44     9     7   am
    45     7     8    2
    46    30    31    1
    47    30    33    1
    48    32    31    2
    49    42    39    1
    50    34    33    1
    51    34    35    1
    52    38    39    1
    53    39    40    1
    54    41    40    2
    55    59    58    2
    56    35    36    1
    57    40    43   am
    58    58    57    1
    59    36    37    1
    60    43    44    1
    61    44    47    1
    62    44    45    1
    63    57    60    1
    64    57    56    1
    65    60    61    1
    66    60    62    1
    67    47    48    1
    68    45    46    2
    69    45    51   am
    70    51    52    1
    71    55    52    1
    72    48    50   am
    73    48    49    2
    74    52    53    1
    75    53    54    2
