@<TRIPOS>MOLECULE
tmp/4n1qA00.pdb
 95 93 0 0 0
SMALL
GASTEIGER

@<TRIPOS>ATOM
      1  N          5.6270   15.2290  -12.9660 N.3    55  ARG55      -0.1245
      2  CA         6.2860   14.8850  -11.7150 C.3    55  ARG55       0.1563
      3  C          6.2980   13.3630  -11.6090 C.2    55  ARG55       0.2260
      4  O          5.2200   12.7330  -11.4760 O.2    55  ARG55      -0.2867
      5  CB         5.5220   15.4720  -10.4900 C.3    55  ARG55       0.0307
      6  CG         6.2710   15.1870   -9.1840 C.3    55  ARG55       0.0489
      7  CD         5.5600   15.9570   -8.0360 C.3    55  ARG55       0.2205
      8  NE         6.4570   16.1250   -6.8960 N.pl3  55  ARG55      -0.0865
      9  CZ         6.1930   15.6900   -5.6910 C.cat  55  ARG55       0.5346
     10  NH1        5.0130   15.1440   -5.4160 N.pl3  55  ARG55       0.1354
     11  NH2        7.1190   15.8650   -4.7330 N.pl3  55  ARG55       0.1354
     12  N          7.4510    5.5900   -5.9430 N.3    60  PHE60      -0.1227
     13  CA         6.3140    6.3550   -5.4180 C.3    60  PHE60       0.1736
     14  C          5.1590    6.4680   -6.4330 C.2    60  PHE60       0.2595
     15  O          4.1870    5.7020   -6.3230 O.2    60  PHE60      -0.2718
     16  CB         6.7930    7.7280   -4.8550 C.3    60  PHE60       0.0547
     17  CG         5.7080    8.5700   -4.2150 C.ar   60  PHE60      -0.0202
     18  CD1        4.4380    8.0630   -3.8610 C.ar   60  PHE60      -0.0042
     19  CD2        5.9830    9.9120   -3.9490 C.ar   60  PHE60      -0.0042
     20  CE1        3.4480    8.9120   -3.2460 C.ar   60  PHE60      -0.0003
     21  CE2        4.9810   10.7440   -3.3520 C.ar   60  PHE60      -0.0003
     22  CZ         3.7290   10.2820   -3.0280 C.ar   60  PHE60      -0.0000
     23  N          5.2810    7.3640   -7.4150 N.am   61  MET61      -0.1979
     24  CA         4.1570    7.5250   -8.3600 C.3    61  MET61       0.1605
     25  C          4.5780    8.3360   -9.6050 C.2    61  MET61       0.2287
     26  O          5.6260    9.0290   -9.6130 O.2    61  MET61      -0.2864
     27  CB         2.9690    8.2210   -7.6480 C.3    61  MET61       0.0413
     28  CG         3.3340    9.5170   -7.0400 C.3    61  MET61       0.0598
     29  SD         3.0910   10.8710   -8.1960 S.3    61  MET61      -0.1393
     30  CE         4.5460   11.9490   -7.7660 C.3    61  MET61       0.0692
     31  N          2.7300   11.3720  -11.8610 N.3    63  GLN63      -0.1245
     32  CA         1.5350   12.2850  -11.7690 C.3    63  GLN63       0.1566
     33  C          1.4210   13.0730  -13.0810 C.2    63  GLN63       0.2260
     34  O          2.4670   13.5180  -13.6420 O.2    63  GLN63      -0.2867
     35  CB         1.7880   13.2870  -10.6160 C.3    63  GLN63       0.0367
     36  CG         0.5810   14.2320  -10.3520 C.3    63  GLN63       0.0905
     37  CD         0.8210   15.2480   -9.2370 C.2    63  GLN63       0.2608
     38  OE1        1.7500   15.0720   -8.4180 O.2    63  GLN63      -0.2717
     39  NE2        0.0290   16.3540   -9.2330 N.am   63  GLN63      -0.0878
     40  N         -5.2730   13.4850   -7.7040 N.3   101  ALA101     -0.1231
     41  CA        -4.4820   14.4910   -6.9710 C.3   101  ALA101      0.1694
     42  C         -5.4080   15.5390   -6.3440 C.2   101  ALA101      0.2592
     43  O         -6.4900   15.7900   -6.8660 O.2   101  ALA101     -0.2718
     44  CB        -3.4800   15.1730   -7.9800 C.3   101  ALA101      0.0304
     45  N         -4.9510   16.2000   -5.2820 N.am  102  ASN102     -0.1974
     46  CA        -5.7550   17.2860   -4.7240 C.3   102  ASN102      0.1688
     47  C         -4.9290   18.2290   -3.8550 C.2   102  ASN102      0.2292
     48  O         -3.7570   17.9440   -3.5190 O.2   102  ASN102     -0.2864
     49  CB        -7.0500   16.7470   -3.9910 C.3   102  ASN102      0.1181
     50  CG        -6.7260   16.0760   -2.6720 C.2   102  ASN102      0.2629
     51  OD1       -5.9690   16.5590   -1.8180 O.2   102  ASN102     -0.2716
     52  ND2       -7.2930   14.8990   -2.5170 N.am  102  ASN102     -0.0877
     53  N         -2.7100   10.5410  -10.2740 N.3   113  PHE113     -0.1241
     54  CA        -1.4320    9.8480  -10.2890 C.3   113  PHE113      0.1605
     55  C         -1.6420    8.3290  -10.4140 C.2   113  PHE113      0.2264
     56  O         -2.7010    7.7520  -10.0370 O.2   113  PHE113     -0.2867
     57  CB        -0.6080   10.1550   -9.0110 C.3   113  PHE113      0.0534
     58  CG        -1.3240    9.9150   -7.6770 C.ar  113  PHE113     -0.0203
     59  CD1       -2.3300   10.7830   -7.2020 C.ar  113  PHE113     -0.0042
     60  CD2       -0.9390    8.8110   -6.8800 C.ar  113  PHE113     -0.0042
     61  CE1       -2.9450   10.6130   -5.9330 C.ar  113  PHE113     -0.0003
     62  CE2       -1.5730    8.5770   -5.6210 C.ar  113  PHE113     -0.0003
     63  CZ        -2.6050    9.4570   -5.1510 C.ar  113  PHE113     -0.0000
     64  N         -0.8510    5.7790    3.3030 N.3   121  TRP121     -0.1227
     65  CA        -1.0670    7.0150    4.0630 C.3   121  TRP121      0.1737
     66  C         -2.0030    8.0120    3.3260 C.2   121  TRP121      0.2595
     67  O         -2.4710    8.9990    3.9350 O.2   121  TRP121     -0.2718
     68  CB         0.2430    7.7330    4.4070 C.3   121  TRP121      0.0564
     69  CG         1.0350    8.1140    3.1360 C.ar  121  TRP121      0.0003
     70  CD1        0.9140    9.2750    2.4360 C.ar  121  TRP121      0.0946
     71  CD2        1.9310    7.2780    2.3830 C.ar  121  TRP121      0.0152
     72  NE1        1.8080    9.2920    1.3700 N.ar  121  TRP121     -0.2442
     73  CE2        2.3860    8.0520    1.2740 C.ar  121  TRP121      0.0810
     74  CE3        2.4440    5.9730    2.5650 C.ar  121  TRP121      0.0012
     75  CZ2        3.3260    7.5510    0.3470 C.ar  121  TRP121      0.0191
     76  CZ3        3.4000    5.4790    1.6290 C.ar  121  TRP121      0.0001
     77  CH2        3.8320    6.2760    0.5530 C.ar  121  TRP121      0.0015
     78  N         -2.3090    7.7410    2.0460 N.am  122  LEU122     -0.1980
     79  CA        -3.2690    8.5740    1.2490 C.3   122  LEU122      0.1596
     80  C         -4.7020    8.0490    1.3630 C.2   122  LEU122      0.2287
     81  O         -5.6270    8.6820    0.8430 O.2   122  LEU122     -0.2864
     82  CB        -2.8610    8.5680   -0.2430 C.3   122  LEU122      0.0297
     83  CG        -1.4260    9.1430   -0.5050 C.3   122  LEU122      0.0022
     84  CD1       -1.0960    9.1170   -2.0280 C.3   122  LEU122      0.0001
     85  CD2       -1.2200   10.5800    0.0590 C.3   122  LEU122      0.0001
     86  N         -7.2400   10.7800   -0.7010 N.3   126  HIS126     -0.1241
     87  CA        -7.3170   10.8430   -2.1570 C.3   126  HIS126      0.1621
     88  C         -8.2860    9.7830   -2.6700 C.2   126  HIS126      0.2264
     89  O         -8.2660    8.6270   -2.1390 O.2   126  HIS126     -0.2867
     90  CB        -5.9270   10.6730   -2.7980 C.3   126  HIS126      0.0745
     91  CG        -4.9810   11.7740   -2.4130 C.ar  126  HIS126      0.0817
     92  ND1       -4.7600   12.8390   -3.2440 N.ar  126  HIS126     -0.2268
     93  CD2       -4.2990   12.0350   -1.2600 C.ar  126  HIS126      0.1154
     94  CE1       -3.9800   13.7230   -2.6260 C.ar  126  HIS126      0.1986
     95  NE2       -3.7010   13.2670   -1.4180 N.ar  126  HIS126     -0.2212
@<TRIPOS>BOND
     1    34    33    2
     2    33    32    1
     3     1     2    1
     4    31    32    1
     5    32    35    1
     6     2     3    1
     7     2     5    1
     8     3     4    2
     9    35    36    1
    10     5     6    1
    11    55    54    1
    12    55    56    2
    13    36    37    1
    14    54    53    1
    15    54    57    1
    16    26    25    2
    17    25    24    1
    18    37    39   am
    19    37    38    2
    20     6     7    1
    21    57    58    1
    22    24    27    1
    23    24    23    1
    24    29    30    1
    25    29    28    1
    26     7     8    1
    27    44    41    1
    28    40    41    1
    29    58    59   ar
    30    58    60   ar
    31    27    28    1
    32    23    14   am
    33    59    61   ar
    34    41    42    1
    35     8     9    2
    36    60    62   ar
    37    43    42    2
    38    14    15    2
    39    14    13    1
    40    42    45   am
    41    12    13    1
    42    61    63   ar
    43     9    10    1
    44     9    11    1
    45    62    63   ar
    46    13    16    1
    47    45    46    1
    48    16    17    1
    49    46    49    1
    50    46    47    1
    51    17    19   ar
    52    17    18   ar
    53    49    50    1
    54    19    21   ar
    55    18    20   ar
    56    47    48    2
    57    21    22   ar
    58    20    22   ar
    59    92    94   ar
    60    92    91   ar
    61    90    91    1
    62    90    87    1
    63    50    52   am
    64    50    51    2
    65    88    87    1
    66    88    89    2
    67    94    95   ar
    68    91    93   ar
    69    87    86    1
    70    84    83    1
    71    95    93   ar
    72    83    82    1
    73    83    85    1
    74    82    79    1
    75    75    77   ar
    76    75    73   ar
    77    77    76   ar
    78    81    80    2
    79    79    80    1
    80    79    78    1
    81    73    72   ar
    82    73    71   ar
    83    72    70   ar
    84    76    74   ar
    85    78    66   am
    86    71    74   ar
    87    71    69   ar
    88    70    69   ar
    89    69    68    1
    90    64    65    1
    91    66    67    2
    92    66    65    1
    93    65    68    1
