@<TRIPOS>MOLECULE
tmp/4n1sA00.pdb
 94 88 0 0 0
SMALL
GASTEIGER

@<TRIPOS>ATOM
      1  N          5.3660  -14.4590   12.7220 N.3    55  ARG55      -0.1245
      2  CA         6.0080  -14.0880   11.4410 C.3    55  ARG55       0.1563
      3  C          5.9330  -12.5540   11.3830 C.2    55  ARG55       0.2260
      4  O          4.8300  -11.9690   11.3430 O.2    55  ARG55      -0.2867
      5  CB         5.2670  -14.7360   10.2380 C.3    55  ARG55       0.0307
      6  CG         5.9780  -14.4590    8.9080 C.3    55  ARG55       0.0489
      7  CD         5.1570  -15.0700    7.7140 C.3    55  ARG55       0.2205
      8  NE         6.0270  -15.2160    6.5650 N.pl3  55  ARG55      -0.0865
      9  CZ         5.8210  -14.6040    5.3940 C.cat  55  ARG55       0.5346
     10  NH1        6.7230  -14.7610    4.4280 N.pl3  55  ARG55       0.1354
     11  NH2        4.6850  -13.9010    5.1830 N.pl3  55  ARG55       0.1354
     12  N          6.5780   -4.4930    6.3340 N.3    60  PHE60      -0.1227
     13  CA         5.4300   -5.1710    5.7010 C.3    60  PHE60       0.1736
     14  C          4.2800   -5.4030    6.6860 C.2    60  PHE60       0.2595
     15  O          3.2420   -4.7380    6.5710 O.2    60  PHE60      -0.2718
     16  CB         5.9870   -6.4930    5.0880 C.3    60  PHE60       0.0547
     17  CG         4.9880   -7.3350    4.3700 C.ar   60  PHE60      -0.0202
     18  CD1        3.8090   -6.7760    3.7810 C.ar   60  PHE60      -0.0042
     19  CD2        5.2990   -8.6830    4.1720 C.ar   60  PHE60      -0.0042
     20  CE1        2.9040   -7.6130    3.0640 C.ar   60  PHE60      -0.0003
     21  CE2        4.3880   -9.5250    3.4740 C.ar   60  PHE60      -0.0003
     22  CZ         3.1990   -8.9970    2.9350 C.ar   60  PHE60      -0.0000
     23  N          4.4610   -6.3560    7.6060 N.am   61  MET61      -0.1979
     24  CA         3.3800   -6.7240    8.5520 C.3    61  MET61       0.1605
     25  C          3.8700   -7.6000    9.7120 C.2    61  MET61       0.2287
     26  O          5.0150   -8.1370    9.7030 O.2    61  MET61      -0.2864
     27  CB         2.2390   -7.4820    7.7960 C.3    61  MET61       0.0413
     28  CG         2.6940   -8.8260    7.0710 C.3    61  MET61       0.0598
     29  SD         2.6400  -10.1910    8.2630 S.3    61  MET61      -0.1393
     30  CE         3.4950  -11.5170    7.3820 C.3    61  MET61       0.0692
     31  N          2.3090  -10.8330   11.8380 N.3    63  GLN63      -0.1245
     32  CA         1.2600  -11.8630   11.7340 C.3    63  GLN63       0.1566
     33  C          1.1810  -12.7330   13.0090 C.2    63  GLN63       0.2260
     34  O          2.1900  -13.1130   13.6260 O.2    63  GLN63      -0.2867
     35  CB         1.4740  -12.7340   10.4870 C.3    63  GLN63       0.0367
     36  CG         0.4180  -13.8690   10.3160 C.3    63  GLN63       0.0905
     37  CD         0.7800  -14.8810    9.1940 C.2    63  GLN63       0.2608
     38  OE1        1.7280  -14.6480    8.4430 O.2    63  GLN63      -0.2717
     39  NE2        0.0520  -16.0310    9.1270 N.am   63  GLN63      -0.0878
     40  N          1.8640  -20.6540   12.2450 N.3    72  GLY72      -0.1225
     41  CA         1.1790  -20.3070   10.9920 C.3    72  GLY72       0.1811
     42  C          0.4750  -21.4640   10.3040 C.2    72  GLY72       0.2280
     43  O         -0.1420  -21.2810    9.2470 O.2    72  GLY72      -0.2866
     44  N         -5.2980  -13.3130    7.7730 N.3   101  ALA101     -0.1231
     45  CA        -4.4980  -14.2970    7.0360 C.3   101  ALA101      0.1694
     46  C         -5.3560  -15.5480    6.6320 C.2   101  ALA101      0.2592
     47  O         -6.4140  -15.7700    7.2120 O.2   101  ALA101     -0.2718
     48  CB        -3.3430  -14.7380    7.8600 C.3   101  ALA101      0.0304
     49  N         -4.9540  -16.2610    5.6040 N.am  102  ASN102     -0.1974
     50  CA        -5.7570  -17.3960    5.1230 C.3   102  ASN102      0.1688
     51  C         -4.8870  -18.2980    4.2450 C.2   102  ASN102      0.2292
     52  O         -3.6440  -18.0930    4.1310 O.2   102  ASN102     -0.2864
     53  CB        -7.0290  -16.9020    4.4010 C.3   102  ASN102      0.1181
     54  CG        -6.6930  -16.0430    3.1410 C.2   102  ASN102      0.2629
     55  OD1       -5.9040  -16.4600    2.2780 O.2   102  ASN102     -0.2716
     56  ND2       -7.3020  -14.8330    3.0540 N.am  102  ASN102     -0.0877
     57  N         -6.0960  -16.7010   12.2350 N.3   111  GLN111     -0.1245
     58  CA        -4.8720  -15.9280   11.9370 C.3   111  GLN111      0.1566
     59  C         -5.1440  -14.5660   11.2790 C.2   111  GLN111      0.2260
     60  O         -6.0330  -14.3870   10.4140 O.2   111  GLN111     -0.2867
     61  CB        -3.8740  -16.7000   11.0790 C.3   111  GLN111      0.0367
     62  CG        -3.3150  -17.9680   11.7970 C.3   111  GLN111      0.0905
     63  CD        -2.2800  -18.6370   10.9360 C.2   111  GLN111      0.2608
     64  OE1       -1.3430  -17.9880   10.4250 O.2   111  GLN111     -0.2717
     65  NE2       -2.3660  -19.9650   10.8320 N.am  111  GLN111     -0.0878
     66  N         -3.1790  -10.3550   10.4920 N.3   113  PHE113     -0.1241
     67  CA        -1.9300   -9.5420   10.4020 C.3   113  PHE113      0.1605
     68  C         -2.2550   -8.0740   10.5440 C.2   113  PHE113      0.2264
     69  O         -3.3970   -7.6750   10.3270 O.2   113  PHE113     -0.2867
     70  CB        -1.1240   -9.8830    9.1050 C.3   113  PHE113      0.0534
     71  CG        -1.8610   -9.5930    7.8210 C.ar  113  PHE113     -0.0203
     72  CD1       -2.8270  -10.4840    7.3170 C.ar  113  PHE113     -0.0042
     73  CD2       -1.6030   -8.3980    7.1140 C.ar  113  PHE113     -0.0042
     74  CE1       -3.5190  -10.1950    6.0960 C.ar  113  PHE113     -0.0003
     75  CE2       -2.2790   -8.1290    5.9250 C.ar  113  PHE113     -0.0003
     76  CZ        -3.2280   -9.0160    5.3900 C.ar  113  PHE113     -0.0000
     77  N         -2.7640   -7.0350   -1.5430 N.3   122  LEU122     -0.1245
     78  CA        -3.5740   -7.9940   -0.7700 C.3   122  LEU122      0.1561
     79  C         -5.0760   -7.7120   -0.9210 C.2   122  LEU122      0.2260
     80  O         -5.9180   -8.5360   -0.5190 O.2   122  LEU122     -0.2867
     81  CB        -3.1690   -7.9600    0.7000 C.3   122  LEU122      0.0270
     82  CG        -1.6780   -8.2460    0.8960 C.3   122  LEU122      0.0019
     83  CD1       -1.4340   -8.0880    2.4120 C.3   122  LEU122      0.0001
     84  CD2       -1.3750   -9.7470    0.4450 C.3   122  LEU122      0.0001
     85  N         -7.5710  -10.8360    1.0830 N.3   126  HIS126     -0.1241
     86  CA        -7.5960  -10.7940    2.5390 C.3   126  HIS126      0.1621
     87  C         -8.6550   -9.8330    2.9720 C.2   126  HIS126      0.2264
     88  O         -8.7180   -8.6680    2.4890 O.2   126  HIS126     -0.2867
     89  CB        -6.1860  -10.4420    3.1610 C.3   126  HIS126      0.0745
     90  CG        -5.1350  -11.4300    2.7290 C.ar  126  HIS126      0.0817
     91  ND1       -4.8570  -12.5690    3.4530 N.ar  126  HIS126     -0.2268
     92  CD2       -4.3930  -11.5190    1.5860 C.ar  126  HIS126      0.1154
     93  CE1       -3.9060  -13.2490    2.8320 C.ar  126  HIS126      0.1986
     94  NE2       -3.6100  -12.6460    1.7010 N.ar  126  HIS126     -0.2212
@<TRIPOS>BOND
     1    77    78    1
     2    79    78    1
     3    79    80    2
     4    78    81    1
     5    84    82    1
     6    81    82    1
     7    82    83    1
     8    85    86    1
     9    92    94   ar
    10    92    90   ar
    11    94    93   ar
    12    55    54    2
    13    88    87    2
    14    86    87    1
    15    86    89    1
    16    90    89    1
    17    90    91   ar
    18    93    91   ar
    19    22    20   ar
    20    22    21   ar
    21    56    54   am
    22    20    18   ar
    23    54    53    1
    24    21    19   ar
    25    18    17   ar
    26    52    51    2
    27    19    17   ar
    28    51    50    1
    29    17    16    1
    30    53    50    1
    31    10     9    1
    32    16    13    1
    33    50    49    1
    34    11     9    1
    35    76    75   ar
    36    76    74   ar
    37     9     8    2
    38    49    46   am
    39    13    12    1
    40    13    14    1
    41    75    73   ar
    42    74    72   ar
    43     8     7    1
    44    15    14    2
    45    46    45    1
    46    46    47    2
    47    14    23   am
    48    45    44    1
    49    45    48    1
    50    28    27    1
    51    28    29    1
    52    73    71   ar
    53    72    71   ar
    54    30    29    1
    55    23    24    1
    56     7     6    1
    57    27    24    1
    58    71    70    1
    59    38    37    2
    60    24    25    1
    61     6     5    1
    62    70    67    1
    63    39    37   am
    64    37    36    1
    65    43    42    2
    66    26    25    2
    67     5     2    1
    68    42    41    1
    69    36    35    1
    70    69    68    2
    71    67    66    1
    72    67    68    1
    73    60    59    2
    74    64    63    2
    75    35    32    1
    76    65    63   am
    77    63    62    1
    78    41    40    1
    79    61    62    1
    80    61    58    1
    81    59    58    1
    82     4     3    2
    83     3     2    1
    84     2     1    1
    85    32    31    1
    86    32    33    1
    87    58    57    1
    88    33    34    2
