@<TRIPOS>MOLECULE
tmp/4n1tA00.pdb
 159 155 0 0 0
SMALL
GASTEIGER

@<TRIPOS>ATOM
      1  N          9.2070   -4.4470    6.6850 N.3     5  TYR5       -0.1227
      2  CA         9.0930   -5.9040    6.7210 C.3     5  TYR5        0.1736
      3  C          9.3780   -6.3820    8.1400 C.2     5  TYR5        0.2596
      4  O         10.0320   -5.7010    8.9360 O.2     5  TYR5       -0.2718
      5  CB        10.1380   -6.5560    5.8200 C.3     5  TYR5        0.0548
      6  CG         9.9430   -6.3680    4.3230 C.ar    5  TYR5       -0.0200
      7  CD1       10.3140   -5.1830    3.7060 C.ar    5  TYR5       -0.0009
      8  CD2        9.3850   -7.3700    3.5400 C.ar    5  TYR5       -0.0009
      9  CE1       10.1300   -4.9990    2.3640 C.ar    5  TYR5        0.0417
     10  CE2        9.1970   -7.1840    2.1760 C.ar    5  TYR5        0.0417
     11  CZ         9.5700   -6.0030    1.6100 C.ar    5  TYR5        0.1957
     12  OH         9.4510   -5.7550    0.2550 O.3     5  TYR5       -0.2866
     13  N          8.8900   -7.5680    8.4550 N.am    6  THR6       -0.1939
     14  CA         9.2900   -8.2610    9.6670 C.3     6  THR6        0.2028
     15  C          9.9130   -9.5930    9.2820 C.2     6  THR6        0.2642
     16  O          9.6640  -10.1520    8.1930 O.2     6  THR6       -0.2714
     17  CB         8.0740   -8.5340   10.5600 C.3     6  THR6        0.1808
     18  OG1        7.1250   -9.3440    9.8520 O.3     6  THR6       -0.2208
     19  CG2        7.4400   -7.2230   10.9570 C.3     6  THR6        0.0379
     20  N         10.6970  -10.1200   10.2090 N.am    7  LEU7       -0.1977
     21  CA        11.3040  -11.4420   10.0920 C.3     7  LEU7        0.1596
     22  C         11.3520  -12.0720   11.4770 C.2     7  LEU7        0.2287
     23  O         11.8360  -11.4290   12.4160 O.2     7  LEU7       -0.2864
     24  CB        12.7120  -11.3250    9.5050 C.3     7  LEU7        0.0297
     25  CG        13.4140  -12.6470    9.1780 C.3     7  LEU7        0.0022
     26  CD1       12.6990  -13.3280    8.0350 C.3     7  LEU7        0.0001
     27  CD2       14.8480  -12.3870    8.8270 C.3     7  LEU7        0.0001
     28  N         11.1550  -21.2680    1.4400 N.3    21  LYS21      -0.1245
     29  CA        10.1590  -20.6050    0.6300 C.3    21  LYS21       0.1561
     30  C         10.0810  -21.2270   -0.7780 C.2    21  LYS21       0.2260
     31  O         11.1000  -21.4100   -1.4400 O.2    21  LYS21      -0.2867
     32  CB        10.5060  -19.1210    0.5330 C.3    21  LYS21       0.0271
     33  CG         9.3630  -18.2570    0.0180 C.3    21  LYS21       0.0035
     34  CD         9.6770  -16.7730    0.1730 C.3    21  LYS21       0.0206
     35  CE         8.5220  -15.8940   -0.2830 C.3    21  LYS21       0.1093
     36  NZ         8.7170  -14.5020    0.2170 N.3    21  LYS21      -0.1314
     37  N          9.8590  -13.9850   -3.8260 N.3    25  PHE25      -0.1227
     38  CA        11.1720  -13.4100   -3.5370 C.3    25  PHE25       0.1736
     39  C         11.8450  -14.1670   -2.3820 C.2    25  PHE25       0.2596
     40  O         11.3400  -14.1640   -1.2640 O.2    25  PHE25      -0.2718
     41  CB        11.0320  -11.9330   -3.2180 C.3    25  PHE25       0.0547
     42  CG        12.3370  -11.1950   -3.1820 C.ar   25  PHE25      -0.0202
     43  CD1       13.1010  -11.0720   -4.3340 C.ar   25  PHE25      -0.0042
     44  CD2       12.7880  -10.6070   -2.0170 C.ar   25  PHE25      -0.0042
     45  CE1       14.2930  -10.3730   -4.3150 C.ar   25  PHE25      -0.0003
     46  CE2       13.9890   -9.9140   -1.9880 C.ar   25  PHE25      -0.0003
     47  CZ        14.7370   -9.7960   -3.1370 C.ar   25  PHE25      -0.0000
     48  N         12.9610  -14.8170   -2.6840 N.am   26  GLY26      -0.1957
     49  CA        13.6820  -15.6370   -1.7190 C.3    26  GLY26       0.1869
     50  C         13.4300  -17.1290   -1.8540 C.2    26  GLY26       0.2309
     51  O         13.9560  -17.9310   -1.0680 O.2    26  GLY26      -0.2863
     52  N         14.8610  -19.4620    5.4930 N.3    31  ASN31      -0.1240
     53  CA        14.8460  -18.1680    6.1760 C.3    31  ASN31       0.1653
     54  C         13.8800  -18.2100    7.3330 C.2    31  ASN31       0.2266
     55  O         13.1440  -19.1870    7.5330 O.2    31  ASN31      -0.2867
     56  CB        14.4350  -17.0920    5.1770 C.3    31  ASN31       0.1155
     57  CG        14.8130  -15.6540    5.5880 C.2    31  ASN31       0.2627
     58  OD1       15.5330  -15.3670    6.6070 O.2    31  ASN31      -0.2716
     59  ND2       14.2820  -14.6970    4.7890 N.am   31  ASN31      -0.0877
     60  N          8.3370  -14.1260    7.5880 N.3    34  GLY34      -0.1210
     61  CA         8.2910  -12.6930    7.4890 C.3    34  GLY34       0.1956
     62  C          7.5600  -12.2060    6.2870 C.2    34  GLY34       0.2612
     63  O          7.1530  -13.0010    5.4540 O.2    34  GLY34      -0.2717
     64  N          7.3940  -10.8900    6.2080 N.am   35  GLY35      -0.1956
     65  CA         6.7790  -10.2720    5.0510 C.3    35  GLY35       0.1869
     66  C          6.4760   -8.8110    5.3280 C.2    35  GLY35       0.2309
     67  O          6.9340   -8.2690    6.3360 O.2    35  GLY35      -0.2863
     68  N         18.1020   -3.4420    3.7910 N.3    70  PHE70      -0.1241
     69  CA        18.6470   -3.9930    2.5640 C.3    70  PHE70       0.1605
     70  C         18.4280   -3.0220    1.4030 C.2    70  PHE70       0.2264
     71  O         17.3390   -2.5050    1.2020 O.2    70  PHE70      -0.2867
     72  CB        17.9870   -5.3340    2.2100 C.3    70  PHE70       0.0534
     73  CG        18.2130   -6.4110    3.2370 C.ar   70  PHE70      -0.0203
     74  CD1       19.4540   -6.9340    3.3970 C.ar   70  PHE70      -0.0042
     75  CD2       17.1920   -6.8600    4.0550 C.ar   70  PHE70      -0.0042
     76  CE1       19.7000   -7.9260    4.3310 C.ar   70  PHE70      -0.0003
     77  CE2       17.4210   -7.8260    5.0400 C.ar   70  PHE70      -0.0003
     78  CZ        18.6840   -8.3550    5.1770 C.ar   70  PHE70      -0.0000
     79  N         19.0990   -2.9580   -2.7690 N.3    72  PHE72      -0.1241
     80  CA        19.4230   -3.6780   -3.9910 C.3    72  PHE72       0.1605
     81  C         19.7470   -2.6240   -5.0170 C.2    72  PHE72       0.2264
     82  O         18.9200   -1.7780   -5.2800 O.2    72  PHE72      -0.2867
     83  CB        18.2290   -4.5380   -4.4400 C.3    72  PHE72       0.0534
     84  CG        17.9380   -5.6790   -3.5130 C.ar   72  PHE72      -0.0203
     85  CD1       18.6490   -6.8690   -3.6300 C.ar   72  PHE72      -0.0042
     86  CD2       16.9920   -5.5480   -2.5300 C.ar   72  PHE72      -0.0042
     87  CE1       18.4070   -7.9170   -2.7860 C.ar   72  PHE72      -0.0003
     88  CE2       16.7470   -6.6020   -1.6680 C.ar   72  PHE72      -0.0003
     89  CZ        17.4640   -7.7640   -1.7930 C.ar   72  PHE72      -0.0000
     90  N         14.4980   -2.1730    1.8090 N.3    79  MET79      -0.1245
     91  CA        13.7650   -2.9900    2.7460 C.3    79  MET79       0.1570
     92  C         14.1940   -2.6790    4.1710 C.2    79  MET79       0.2261
     93  O         15.3650   -2.7820    4.5070 O.2    79  MET79      -0.2867
     94  CB        14.0340   -4.4750    2.5200 C.3    79  MET79       0.0387
     95  CG        13.6610   -5.0060    1.1680 C.3    79  MET79       0.0595
     96  SD        14.0970   -6.7780    1.0530 S.3    79  MET79      -0.1393
     97  CE        13.1080   -7.5640    2.3230 C.3    79  MET79       0.0692
     98  N         13.8200   -4.1190    7.6080 N.3    81  VAL81      -0.1245
     99  CA        13.4070   -5.3850    8.2210 C.3    81  VAL81       0.1561
    100  C         13.5970   -5.3540    9.7430 C.2    81  VAL81       0.2260
    101  O         14.6890   -5.1650   10.2320 O.2    81  VAL81      -0.2867
    102  CB        14.1890   -6.5660    7.6410 C.3    81  VAL81       0.0252
    103  CG1       13.6460   -7.8770    8.1330 C.3    81  VAL81       0.0019
    104  CG2       14.1160   -6.5730    6.1190 C.3    81  VAL81       0.0019
    105  N         19.9630  -16.6160    2.6370 N.3   115  TRP115     -0.1241
    106  CA        20.4870  -15.3270    2.1810 C.3   115  TRP115      0.1605
    107  C         21.8800  -15.1190    2.7430 C.2   115  TRP115      0.2264
    108  O         22.1560  -15.4270    3.8910 O.2   115  TRP115     -0.2867
    109  CB        19.5710  -14.1870    2.6290 C.3   115  TRP115      0.0550
    110  CG        18.2640  -14.1130    1.8700 C.ar  115  TRP115      0.0003
    111  CD1       17.0660  -14.6720    2.2300 C.ar  115  TRP115      0.0946
    112  CD2       18.0180  -13.4170    0.6390 C.ar  115  TRP115      0.0152
    113  NE1       16.0900  -14.3450    1.3270 N.ar  115  TRP115     -0.2442
    114  CE2       16.6500  -13.5950    0.3280 C.ar  115  TRP115      0.0810
    115  CE3       18.8100  -12.6270   -0.2060 C.ar  115  TRP115      0.0012
    116  CZ2       16.0550  -13.0320   -0.7920 C.ar  115  TRP115      0.0191
    117  CZ3       18.2070  -12.0610   -1.3510 C.ar  115  TRP115      0.0001
    118  CH2       16.8620  -12.3040   -1.6460 C.ar  115  TRP115      0.0015
    119  N         23.5270  -12.6110    3.8650 N.3   117  ASP117     -0.1225
    120  CA        23.6540  -11.7650    5.0400 C.3   117  ASP117      0.1805
    121  C         23.4830  -12.5460    6.3350 C.2   117  ASP117      0.2597
    122  O         23.9950  -12.1330    7.3700 O.2   117  ASP117     -0.2718
    123  CB        22.6670  -10.5840    5.0020 C.3   117  ASP117      0.1424
    124  CG        21.2530  -11.0480    4.6780 C.2   117  ASP117      0.3668
    125  OD1       21.0310  -11.3360    3.4780 O.co2 117  ASP117     -0.2456
    126  OD2       20.3970  -11.1430    5.5840 O.co2 117  ASP117     -0.2456
    127  N         22.7510  -13.6500    6.3080 N.am  118  ASP118     -0.1974
    128  CA        22.4570  -14.3710    7.5460 C.3   118  ASP118      0.1709
    129  C         23.7480  -14.8790    8.1950 C.2   118  ASP118      0.2293
    130  O         23.8290  -15.0050    9.3990 O.2   118  ASP118     -0.2864
    131  CB        21.5420  -15.5830    7.2650 C.3   118  ASP118      0.1436
    132  CG        20.1560  -15.2090    6.7890 C.2   118  ASP118      0.3671
    133  OD1       19.9050  -14.1300    6.2950 O.co2 118  ASP118     -0.2456
    134  OD2       19.2760  -16.1030    6.8480 O.co2 118  ASP118     -0.2456
    135  N         24.7140  -11.9340   10.6200 N.3   121  TRP121     -0.1241
    136  CA        23.8990  -11.5580   11.7780 C.3   121  TRP121      0.1605
    137  C         23.2780  -12.7160   12.5520 C.2   121  TRP121      0.2264
    138  O         22.9930  -12.5830   13.7500 O.2   121  TRP121     -0.2867
    139  CB        22.8390  -10.5330   11.3950 C.3   121  TRP121      0.0550
    140  CG        21.8430  -11.0060   10.3880 C.ar  121  TRP121      0.0003
    141  CD1       21.8390  -10.7520    9.0540 C.ar  121  TRP121      0.0946
    142  CD2       20.6490  -11.7280   10.6590 C.ar  121  TRP121      0.0152
    143  NE1       20.7360  -11.3170    8.4550 N.ar  121  TRP121     -0.2442
    144  CE2       19.9950  -11.9460    9.4210 C.ar  121  TRP121      0.0810
    145  CE3       20.0940  -12.2630   11.8170 C.ar  121  TRP121      0.0012
    146  CZ2       18.7860  -12.6410    9.3150 C.ar  121  TRP121      0.0191
    147  CZ3       18.9050  -12.9760   11.7050 C.ar  121  TRP121      0.0001
    148  CH2       18.2690  -13.1580   10.4630 C.ar  121  TRP121      0.0015
    149  N         23.2230   -5.0940   -1.7500 N.3   137  PHE137     -0.1241
    150  CA        23.2690   -6.2460   -2.6210 C.3   137  PHE137      0.1605
    151  C         23.3240   -5.8460   -4.0910 C.2   137  PHE137      0.2264
    152  O         22.7270   -4.8750   -4.4880 O.2   137  PHE137     -0.2867
    153  CB        21.9880   -7.0620   -2.4520 C.3   137  PHE137      0.0534
    154  CG        22.0380   -8.0840   -1.3610 C.ar  137  PHE137     -0.0203
    155  CD1       21.9720   -7.7200   -0.0220 C.ar  137  PHE137     -0.0042
    156  CD2       22.1680   -9.4490   -1.6900 C.ar  137  PHE137     -0.0042
    157  CE1       22.0250   -8.6960    0.9610 C.ar  137  PHE137     -0.0003
    158  CE2       22.2510  -10.4220   -0.6880 C.ar  137  PHE137     -0.0003
    159  CZ        22.1500  -10.0370    0.6380 C.ar  137  PHE137     -0.0000
@<TRIPOS>BOND
     1    82    81    2
     2    81    80    1
     3   152   151    2
     4    83    80    1
     5    83    84    1
     6    43    45   ar
     7    43    42   ar
     8    45    47   ar
     9   151   150    1
    10    80    79    1
    11    37    38    1
    12    85    84   ar
    13    85    87   ar
    14    38    41    1
    15    38    39    1
    16    84    86   ar
    17    41    42    1
    18    42    44   ar
    19    47    46   ar
    20    87    89   ar
    21    48    39   am
    22    48    49    1
    23   150   153    1
    24   150   149    1
    25    86    88   ar
    26   153   154    1
    27    39    40    2
    28    44    46   ar
    29    50    49    1
    30    50    51    2
    31    89    88   ar
    32   156   154   ar
    33   156   158   ar
    34   118   117   ar
    35   118   116   ar
    36    31    30    2
    37   154   155   ar
    38   117   115   ar
    39   116   114   ar
    40    30    29    1
    41   158   159   ar
    42    35    34    1
    43    35    36    1
    44   115   112   ar
    45   155   157   ar
    46    33    34    1
    47    33    32    1
    48    12    11    1
    49   114   112   ar
    50   114   113   ar
    51    32    29    1
    52    29    28    1
    53   159   157   ar
    54   112   110   ar
    55    96    95    1
    56    96    97    1
    57    95    94    1
    58    71    70    2
    59   113   111   ar
    60    70    69    1
    61    11    10   ar
    62    11     9   ar
    63    90    91    1
    64   110   111   ar
    65   110   109    1
    66    10     8   ar
    67   106   109    1
    68   106   105    1
    69   106   107    1
    70    72    69    1
    71    72    73    1
    72     9     7   ar
    73    94    91    1
    74    69    68    1
    75   107   108    2
    76    91    92    1
    77    73    74   ar
    78    73    75   ar
    79    74    76   ar
    80   125   124   ar
    81     8     6   ar
    82     7     6   ar
    83   119   120    1
    84    75    77   ar
    85    92    93    2
    86     6     5    1
    87    76    78   ar
    88   124   123    1
    89   124   126   ar
    90    59    57   am
    91   123   120    1
    92    77    78   ar
    93   120   121    1
    94    65    66    1
    95    65    64    1
    96    56    57    1
    97    56    53    1
    98    66    67    2
    99    63    62    2
   100    52    53    1
   101    57    58    2
   102     5     2    1
   103   104   102    1
   104    53    54    1
   105    64    62   am
   106    62    61    1
   107   133   132   ar
   108   127   121   am
   109   127   128    1
   110   121   122    2
   111     1     2    1
   112     2     3    1
   113   132   134   ar
   114   132   131    1
   115   131   128    1
   116    54    55    2
   117    61    60    1
   118   128   129    1
   119    98    99    1
   120   102   103    1
   121   102    99    1
   122    26    25    1
   123     3    13   am
   124     3     4    2
   125    16    15    2
   126   129   130    2
   127    99   100    1
   128    13    14    1
   129   143   141   ar
   130   143   144   ar
   131    27    25    1
   132   141   140   ar
   133    25    24    1
   134    15    14    1
   135    15    20   am
   136   146   144   ar
   137   146   148   ar
   138   144   142   ar
   139    24    21    1
   140    14    17    1
   141   100   101    2
   142    18    17    1
   143    21    20    1
   144    21    22    1
   145   140   142   ar
   146   140   139    1
   147   148   147   ar
   148    17    19    1
   149   135   136    1
   150   142   145   ar
   151   139   136    1
   152    22    23    2
   153   147   145   ar
   154   136   137    1
   155   137   138    2
