@<TRIPOS>MOLECULE
tmp/4n1uA00.pdb
 159 155 0 0 0
SMALL
GASTEIGER

@<TRIPOS>ATOM
      1  N         -5.7990   70.5910   10.9980 N.3     5  TYR5       -0.1227
      2  CA        -5.7280   72.0390   10.8260 C.3     5  TYR5        0.1736
      3  C         -5.0450   72.3480    9.5060 C.2     5  TYR5        0.2596
      4  O         -4.3030   71.5160    8.9900 O.2     5  TYR5       -0.2718
      5  CB        -4.9350   72.6860   11.9300 C.3     5  TYR5        0.0548
      6  CG        -5.4650   72.4890   13.3310 C.ar    5  TYR5       -0.0200
      7  CD1       -5.2120   71.3060   14.0220 C.ar    5  TYR5       -0.0009
      8  CD2       -6.2060   73.4840   13.9610 C.ar    5  TYR5       -0.0009
      9  CE1       -5.6900   71.1120   15.2910 C.ar    5  TYR5        0.0417
     10  CE2       -6.6970   73.2880   15.2400 C.ar    5  TYR5        0.0417
     11  CZ        -6.4500   72.0930   15.8840 C.ar    5  TYR5        0.1957
     12  OH        -6.8960   71.8710   17.1560 O.3     5  TYR5       -0.2866
     13  N         -5.3290   73.5250    8.9590 N.am    6  THR6       -0.1939
     14  CA        -4.6010   74.0570    7.8440 C.3     6  THR6        0.2028
     15  C         -3.8560   75.3300    8.1730 C.2     6  THR6        0.2642
     16  O         -4.2040   76.0430    9.1480 O.2     6  THR6       -0.2714
     17  CB        -5.5560   74.3770    6.6840 C.3     6  THR6        0.1808
     18  OG1       -6.5160   75.3720    7.0900 O.3     6  THR6       -0.2208
     19  CG2       -6.2630   73.1600    6.2690 C.3     6  THR6        0.0379
     20  N         -2.8420   75.6020    7.3630 N.am    7  LEU7       -0.1977
     21  CA        -2.0550   76.8170    7.4510 C.3     7  LEU7        0.1596
     22  C         -1.6800   77.2270    6.0420 C.2     7  LEU7        0.2287
     23  O         -1.1880   76.4150    5.2650 O.2     7  LEU7       -0.2864
     24  CB        -0.8140   76.5820    8.3240 C.3     7  LEU7        0.0297
     25  CG         0.0150   77.8040    8.6830 C.3     7  LEU7        0.0022
     26  CD1       -0.7440   78.7650    9.5790 C.3     7  LEU7        0.0001
     27  CD2        1.2950   77.2960    9.3070 C.3     7  LEU7        0.0001
     28  N         -2.8140   87.1120   15.2000 N.3    21  LYS21      -0.1245
     29  CA        -4.0090   86.6480   15.8490 C.3    21  LYS21       0.1561
     30  C         -4.3220   87.5390   17.0440 C.2    21  LYS21       0.2260
     31  O         -3.4870   87.7640   17.9080 O.2    21  LYS21      -0.2867
     32  CB        -3.8390   85.1860   16.2780 C.3    21  LYS21       0.0271
     33  CG        -5.1590   84.5040   16.5820 C.3    21  LYS21       0.0035
     34  CD        -5.1020   83.0230   16.2740 C.3    21  LYS21       0.0206
     35  CE        -6.4500   82.3490   16.4780 C.3    21  LYS21       0.1093
     36  NZ        -6.9440   82.4660   17.8700 N.3    21  LYS21      -0.1314
     37  N         -6.2350   80.9700   20.7880 N.3    25  PHE25      -0.1227
     38  CA        -5.0170   80.1600   20.8110 C.3    25  PHE25       0.1736
     39  C         -4.0320   80.6880   19.7760 C.2    25  PHE25       0.2596
     40  O         -4.3640   80.7840   18.6190 O.2    25  PHE25      -0.2718
     41  CB        -5.3710   78.7010   20.5300 C.3    25  PHE25       0.0547
     42  CG        -4.2120   77.7520   20.6560 C.ar   25  PHE25      -0.0202
     43  CD1       -3.7790   77.3280   21.8990 C.ar   25  PHE25      -0.0042
     44  CD2       -3.5530   77.2810   19.5300 C.ar   25  PHE25      -0.0042
     45  CE1       -2.7050   76.4560   22.0130 C.ar   25  PHE25      -0.0003
     46  CE2       -2.4920   76.3980   19.6500 C.ar   25  PHE25      -0.0003
     47  CZ        -2.0660   75.9900   20.8830 C.ar   25  PHE25      -0.0000
     48  N         -2.8400   81.0610   20.2200 N.am   26  GLY26      -0.1957
     49  CA        -1.8610   81.7320   19.3790 C.3    26  GLY26       0.1869
     50  C         -2.0050   83.2430   19.2360 C.2    26  GLY26       0.2309
     51  O         -1.3520   83.8440   18.3790 O.2    26  GLY26      -0.2863
     52  N          1.5220   84.5880   12.0580 N.3    31  ASN31      -0.1240
     53  CA         1.3560   83.2450   11.5020 C.3    31  ASN31       0.1653
     54  C          0.7430   83.3140   10.1020 C.2    31  ASN31       0.2266
     55  O          0.2450   84.3660    9.6720 O.2    31  ASN31      -0.2867
     56  CB         0.4830   82.3940   12.4380 C.3    31  ASN31       0.1155
     57  CG         0.7600   80.8980   12.3260 C.2    31  ASN31       0.2627
     58  OD1        1.5140   80.4560   11.4740 O.2    31  ASN31      -0.2716
     59  ND2        0.1240   80.1090   13.2000 N.am   31  ASN31      -0.0877
     60  N         -5.2490   80.1460    8.8170 N.3    34  GLY34      -0.1210
     61  CA        -5.6480   78.7700    8.9830 C.3    34  GLY34       0.1956
     62  C         -6.5080   78.5340   10.1850 C.2    34  GLY34       0.2612
     63  O         -6.9380   79.4580   10.8380 O.2    34  GLY34      -0.2717
     64  N         -6.8080   77.2680   10.4210 N.am   35  GLY35      -0.1956
     65  CA        -7.6950   76.8980   11.4740 C.3    35  GLY35       0.1869
     66  C         -8.1080   75.4560   11.3510 C.2    35  GLY35       0.2309
     67  O         -7.5390   74.6930   10.5470 O.2    35  GLY35      -0.2863
     68  N          1.8720   68.0910   16.0180 N.3    70  PHE70      -0.1241
     69  CA         2.2470   68.6610   17.2990 C.3    70  PHE70       0.1605
     70  C          1.6610   67.8430   18.4390 C.2    70  PHE70       0.2264
     71  O          0.4580   67.5670   18.4540 O.2    70  PHE70      -0.2867
     72  CB         1.7480   70.1010   17.4520 C.3    70  PHE70       0.0534
     73  CG         2.3340   71.0560   16.4620 C.ar   70  PHE70      -0.0203
     74  CD1        3.5900   71.5710   16.6560 C.ar   70  PHE70      -0.0042
     75  CD2        1.6640   71.3930   15.2950 C.ar   70  PHE70      -0.0042
     76  CE1        4.1560   72.4540   15.7890 C.ar   70  PHE70      -0.0003
     77  CE2        2.2320   72.2670   14.4020 C.ar   70  PHE70      -0.0003
     78  CZ         3.4840   72.7770   14.6320 C.ar   70  PHE70      -0.0000
     79  N          1.4120   67.9490   22.6390 N.3    72  PHE72      -0.1241
     80  CA         1.5760   68.6270   23.9210 C.3    72  PHE72       0.1605
     81  C          1.6450   67.5390   24.9800 C.2    72  PHE72       0.2264
     82  O          0.7480   66.6990   25.0670 O.2    72  PHE72      -0.2867
     83  CB         0.4170   69.5930   24.1660 C.3    72  PHE72       0.0534
     84  CG         0.2790   70.6190   23.0850 C.ar   72  PHE72      -0.0203
     85  CD1        1.0930   71.7300   23.0850 C.ar   72  PHE72      -0.0042
     86  CD2       -0.6660   70.4760   22.0840 C.ar   72  PHE72      -0.0042
     87  CE1        0.9770   72.7000   22.0960 C.ar   72  PHE72      -0.0003
     88  CE2       -0.7580   71.4190   21.0660 C.ar   72  PHE72      -0.0003
     89  CZ         0.0580   72.5360   21.0870 C.ar   72  PHE72      -0.0000
     90  N         -2.2250   67.6880   17.3310 N.3    79  MET79      -0.1245
     91  CA        -2.6210   68.5930   16.2440 C.3    79  MET79       0.1570
     92  C         -1.9260   68.1540   14.9710 C.2    79  MET79       0.2261
     93  O         -0.7350   67.9510   14.9840 O.2    79  MET79      -0.2867
     94  CB        -2.1870   70.0280   16.4780 C.3    79  MET79       0.0387
     95  CG        -2.8090   70.7430   17.6320 C.3    79  MET79       0.0595
     96  SD        -2.0780   72.4220   17.6480 S.3    79  MET79      -0.1393
     97  CE        -2.6410   73.2980   16.2320 C.3    79  MET79       0.0692
     98  N         -1.2830   69.5340   11.3200 N.3    81  VAL81      -0.1245
     99  CA        -1.3450   70.7730   10.5160 C.3    81  VAL81       0.1561
    100  C         -0.8140   70.5400    9.0820 C.2    81  VAL81       0.2260
    101  O          0.3440   70.1520    8.8850 O.2    81  VAL81      -0.2867
    102  CB        -0.5550   71.9190   11.1720 C.3    81  VAL81       0.0252
    103  CG1       -0.7490   73.2080   10.3580 C.3    81  VAL81       0.0019
    104  CG2       -0.9900   72.0950   12.6260 C.3    81  VAL81       0.0019
    105  N          5.2210   81.3540   16.3740 N.3   115  TRP115     -0.1241
    106  CA         5.3210   80.1300   17.1460 C.3   115  TRP115      0.1605
    107  C          6.7840   79.6520   17.0260 C.2   115  TRP115      0.2264
    108  O          7.3920   79.8340   15.9920 O.2   115  TRP115     -0.2867
    109  CB         4.3850   79.0440   16.6550 C.3   115  TRP115      0.0550
    110  CG         2.9640   79.2170   17.0200 C.ar  115  TRP115      0.0003
    111  CD1        1.9790   79.7160   16.2300 C.ar  115  TRP115      0.0946
    112  CD2        2.3340   78.8340   18.2550 C.ar  115  TRP115      0.0152
    113  NE1        0.7860   79.6850   16.8880 N.ar  115  TRP115     -0.2442
    114  CE2        0.9680   79.1550   18.1360 C.ar  115  TRP115      0.0810
    115  CE3        2.7960   78.2710   19.4440 C.ar  115  TRP115      0.0012
    116  CZ2        0.0460   78.9450   19.1610 C.ar  115  TRP115      0.0191
    117  CZ3        1.8750   78.0470   20.4780 C.ar  115  TRP115      0.0001
    118  CH2        0.5090   78.3840   20.3260 C.ar  115  TRP115      0.0015
    119  N          8.2040   76.7800   16.6070 N.3   117  ASP117     -0.1225
    120  CA         8.4890   75.7730   15.5860 C.3   117  ASP117      0.1805
    121  C          8.8090   76.4050   14.2300 C.2   117  ASP117      0.2597
    122  O          9.5490   75.8330   13.4220 O.2   117  ASP117     -0.2718
    123  CB         7.3380   74.7670   15.4590 C.3   117  ASP117      0.1424
    124  CG         5.9790   75.4300   15.4320 C.2   117  ASP117      0.3668
    125  OD1        5.5490   75.9280   16.4750 O.co2 117  ASP117     -0.2456
    126  OD2        5.3430   75.5050   14.3510 O.co2 117  ASP117     -0.2456
    127  N          8.2180   77.5640   13.9580 N.am  118  ASP118     -0.1974
    128  CA         8.3910   78.2190   12.6510 C.3   118  ASP118      0.1709
    129  C          9.8740   78.4620   12.3550 C.2   118  ASP118      0.2293
    130  O         10.2950   78.3960   11.2180 O.2   118  ASP118     -0.2864
    131  CB         7.6640   79.5620   12.6290 C.3   118  ASP118      0.1436
    132  CG         6.1780   79.4390   12.7830 C.2   118  ASP118      0.3671
    133  OD1        5.6730   78.5040   13.4270 O.co2 118  ASP118     -0.2456
    134  OD2        5.4830   80.3230   12.2910 O.co2 118  ASP118     -0.2456
    135  N         10.9040   75.0970   10.5960 N.3   121  TRP121     -0.1241
    136  CA        10.3290   74.6610    9.2930 C.3   121  TRP121      0.1605
    137  C         10.1210   75.7630    8.2670 C.2   121  TRP121      0.2264
    138  O         10.1440   75.5000    7.0680 O.2   121  TRP121     -0.2867
    139  CB         9.0500   73.8630    9.5050 C.3   121  TRP121      0.0550
    140  CG         7.9520   74.5890   10.1640 C.ar  121  TRP121      0.0003
    141  CD1        7.6020   74.5400   11.4800 C.ar  121  TRP121      0.0946
    142  CD2        7.0400   75.4840    9.5310 C.ar  121  TRP121      0.0152
    143  NE1        6.5040   75.3460   11.7120 N.ar  121  TRP121     -0.2442
    144  CE2        6.1530   75.9540   10.5300 C.ar  121  TRP121      0.0810
    145  CE3        6.8690   75.9140    8.2040 C.ar  121  TRP121      0.0012
    146  CZ2        5.1180   76.8600   10.2420 C.ar  121  TRP121      0.0191
    147  CZ3        5.8660   76.8070    7.9220 C.ar  121  TRP121      0.0001
    148  CH2        4.9700   77.2490    8.9340 C.ar  121  TRP121      0.0015
    149  N          5.8490   69.5800   22.3400 N.3   137  PHE137     -0.1241
    150  CA         5.8310   70.7890   23.1620 C.3   137  PHE137      0.1605
    151  C          5.5300   70.5140   24.6240 C.2   137  PHE137      0.2264
    152  O          4.7470   69.6270   24.9910 O.2   137  PHE137     -0.2867
    153  CB         4.7690   71.7880   22.6770 C.3   137  PHE137      0.0534
    154  CG         5.2170   72.6860   21.5270 C.ar  137  PHE137     -0.0203
    155  CD1        5.4100   72.1960   20.2460 C.ar  137  PHE137     -0.0042
    156  CD2        5.3860   74.0400   21.7300 C.ar  137  PHE137     -0.0042
    157  CE1        5.8050   73.0580   19.2340 C.ar  137  PHE137     -0.0003
    158  CE2        5.7640   74.8980   20.7180 C.ar  137  PHE137     -0.0003
    159  CZ         5.9610   74.4140   19.4610 C.ar  137  PHE137     -0.0000
@<TRIPOS>BOND
     1    23    22    2
     2    22    21    1
     3    19    17    1
     4    17    18    1
     5    17    14    1
     6   138   137    2
     7    20    21    1
     8    20    15   am
     9    21    24    1
    10    14    15    1
    11    14    13    1
    12   147   145   ar
    13   147   148   ar
    14    15    16    2
    15   145   142   ar
    16   137   136    1
    17    24    25    1
    18    25    27    1
    19    25    26    1
    20    60    61    1
    21   101   100    2
    22   148   146   ar
    23    13     3   am
    24    61    62    1
    25     4     3    2
    26   100    99    1
    27   136   139    1
    28   136   135    1
    29   139   140    1
    30     3     2    1
    31   142   140   ar
    32   142   144   ar
    33    55    54    2
    34    54    53    1
    35   140   141   ar
    36    62    64   am
    37    62    63    2
    38   146   144   ar
    39   103   102    1
    40    64    65    1
    41    99   102    1
    42    99    98    1
    43   144   143   ar
    44    67    66    2
    45     2     1    1
    46     2     5    1
    47   102   104    1
    48   130   129    2
    49    66    65    1
    50    58    57    2
    51   141   143   ar
    52    53    52    1
    53    53    56    1
    54     5     6    1
    55   134   132   ar
    56    57    56    1
    57    57    59   am
    58   129   128    1
    59   131   128    1
    60   131   132    1
    61   128   127    1
    62   132   133   ar
    63     6     8   ar
    64     6     7   ar
    65   122   121    2
    66   127   121   am
    67     8    10   ar
    68     7     9   ar
    69   121   120    1
    70   126   124   ar
    71    77    78   ar
    72    77    75   ar
    73    78    76   ar
    74    92    93    2
    75    92    91    1
    76    28    29    1
    77    10    11   ar
    78     9    11   ar
    79    75    73   ar
    80   124   123    1
    81   124   125   ar
    82   123   120    1
    83   120   119    1
    84    76    74   ar
    85    29    32    1
    86    29    30    1
    87    11    12    1
    88   108   107    2
    89    68    69    1
    90   111   113   ar
    91   111   110   ar
    92    97    96    1
    93    91    94    1
    94    91    90    1
    95    34    35    1
    96    34    33    1
    97    32    33    1
    98   105   106    1
    99    73    74   ar
   100    73    72    1
   101    94    95    1
   102    35    36    1
   103   109   110    1
   104   109   106    1
   105   113   114   ar
   106   110   112   ar
   107   107   106    1
   108    30    31    2
   109    69    72    1
   110    69    70    1
   111    95    96    1
   112   114   112   ar
   113   114   116   ar
   114   112   115   ar
   115    51    50    2
   116    70    71    2
   117    40    39    2
   118   116   118   ar
   119   157   159   ar
   120   157   155   ar
   121    50    49    1
   122    49    48    1
   123   115   117   ar
   124   159   158   ar
   125    44    46   ar
   126    44    42   ar
   127    46    47   ar
   128    39    48   am
   129    39    38    1
   130   155   154   ar
   131   118   117   ar
   132    41    42    1
   133    41    38    1
   134    42    43   ar
   135   158   156   ar
   136    37    38    1
   137    47    45   ar
   138    88    89   ar
   139    88    86   ar
   140    89    87   ar
   141   154   156   ar
   142   154   153    1
   143    43    45   ar
   144    86    84   ar
   145    87    85   ar
   146   149   150    1
   147    79    80    1
   148   153   150    1
   149    85    84   ar
   150    84    83    1
   151   150   151    1
   152    80    83    1
   153    80    81    1
   154   151   152    2
   155    81    82    2
