@<TRIPOS>MOLECULE
tmp/4n1xB00.pdb
 141 133 0 0 0
SMALL
GASTEIGER

@<TRIPOS>ATOM
      1  N         -4.4320    4.9650   10.8760 N.3   138  GLY138     -0.1210
      2  CA        -5.3060    5.8140   11.7250 C.3   138  GLY138      0.1956
      3  C         -4.9940    7.2750   11.4920 C.2   138  GLY138      0.2612
      4  O         -4.5220    7.6560   10.4120 O.2   138  GLY138     -0.2717
      5  N         -5.0630    8.0630   12.5540 N.am  139  SER139     -0.1952
      6  CA        -4.9300    9.5030   12.4190 C.3   139  SER139      0.1924
      7  C         -3.5740    9.9890   11.9750 C.2   139  SER139      0.2314
      8  O         -3.4300   11.1180   11.5370 O.2   139  SER139     -0.2863
      9  CB        -5.4420   10.2270   13.6840 C.3   139  SER139      0.2116
     10  OG        -6.8050    9.8510   13.9770 O.3   139  SER139     -0.2180
     11  N        -17.4320    9.9450   13.2680 N.3   174  HIS174     -0.1241
     12  CA       -17.4860   10.4620   14.5950 C.3   174  HIS174      0.1621
     13  C        -16.1180   10.8190   15.1150 C.2   174  HIS174      0.2264
     14  O        -15.1250   10.2380   14.7020 O.2   174  HIS174     -0.2867
     15  CB       -18.1410    9.4430   15.5340 C.3   174  HIS174      0.0745
     16  CG       -17.3200    8.2170   15.7530 C.ar  174  HIS174      0.0817
     17  ND1      -17.4870    7.0620   15.0140 N.ar  174  HIS174     -0.2268
     18  CD2      -16.3030    7.9700   16.6140 C.ar  174  HIS174      0.1154
     19  CE1      -16.6200    6.1480   15.4230 C.ar  174  HIS174      0.1986
     20  NE2      -15.8820    6.6780   16.3860 N.ar  174  HIS174     -0.2212
     21  N        -13.4260   11.0710   18.2540 N.3   176  TYR176     -0.1241
     22  CA       -13.2030   10.2040   19.3780 C.3   176  TYR176      0.1605
     23  C        -14.0970   10.6330   20.5390 C.2   176  TYR176      0.2264
     24  O        -14.1920   11.8240   20.8460 O.2   176  TYR176     -0.2867
     25  CB       -11.7340   10.2840   19.7820 C.3   176  TYR176      0.0534
     26  CG       -11.3980    9.5030   21.0030 C.ar  176  TYR176     -0.0201
     27  CD1      -11.5150    8.1280   21.0240 C.ar  176  TYR176     -0.0009
     28  CD2      -10.9220   10.1470   22.1510 C.ar  176  TYR176     -0.0009
     29  CE1      -11.1870    7.4140   22.1620 C.ar  176  TYR176      0.0417
     30  CE2      -10.6420    9.4530   23.2870 C.ar  176  TYR176      0.0417
     31  CZ       -10.7580    8.0860   23.2830 C.ar  176  TYR176      0.1957
     32  OH       -10.4350    7.3940   24.4050 O.3   176  TYR176     -0.2866
     33  N         -5.8590   18.2860   17.6980 N.3   191  ARG191     -0.1231
     34  CA        -6.7720   17.4890   18.5350 C.3   191  ARG191      0.1694
     35  C         -7.2680   16.2410   17.8200 C.2   191  ARG191      0.2592
     36  O         -7.9720   15.4520   18.3910 O.2   191  ARG191     -0.2718
     37  CB        -7.9780   18.3600   18.9860 C.3   191  ARG191      0.0321
     38  CG        -7.5010   19.5650   19.8230 C.3   191  ARG191      0.0489
     39  CD        -8.6190   20.5650   20.1450 C.3   191  ARG191      0.2205
     40  NE        -9.7110   20.0040   20.9720 N.pl3 191  ARG191     -0.0865
     41  CZ       -10.8710   20.6250   21.2130 C.cat 191  ARG191      0.5346
     42  NH1      -11.1260   21.8400   20.7110 N.pl3 191  ARG191      0.1354
     43  NH2      -11.7980   20.0250   21.9530 N.pl3 191  ARG191      0.1354
     44  N         -6.9380   16.1320   16.5410 N.am  192  SER192     -0.1952
     45  CA        -7.2540   15.0060   15.7010 C.3   192  SER192      0.1924
     46  C         -8.7470   14.7530   15.5750 C.2   192  SER192      0.2314
     47  O         -9.2260   13.6800   15.8930 O.2   192  SER192     -0.2863
     48  CB        -6.5250   13.7650   16.2120 C.3   192  SER192      0.2116
     49  OG        -6.3230   12.8400   15.1470 O.3   192  SER192     -0.2180
     50  N        -11.7530   13.5500   13.7110 N.3   194  ASN194     -0.1240
     51  CA       -12.1040   12.8360   12.5010 C.3   194  ASN194      0.1653
     52  C        -13.1310   13.5810   11.6730 C.2   194  ASN194      0.2266
     53  O        -13.0450   13.6210   10.4210 O.2   194  ASN194     -0.2867
     54  CB       -12.6870   11.4850   12.8080 C.3   194  ASN194      0.1155
     55  CG       -11.7300   10.6120   13.5610 C.2   194  ASN194      0.2627
     56  OD1      -10.5020   10.6940   13.4000 O.2   194  ASN194     -0.2716
     57  ND2      -12.2900    9.7750   14.4140 N.am  194  ASN194     -0.0877
     58  N         -8.9300    9.9220    7.2560 N.3   247  CYS247     -0.1235
     59  CA        -8.5640    9.7930    8.6940 C.3   247  CYS247      0.1677
     60  C         -7.6900    8.5550    8.9710 C.2   247  CYS247      0.2270
     61  O         -7.4650    8.2210   10.1330 O.2   247  CYS247     -0.2867
     62  CB        -9.7740    9.7050    9.6020 C.3   247  CYS247      0.0956
     63  SG       -10.8950   11.0980    9.4100 S.3   247  CYS247     -0.0801
     64  N         -8.2640    5.2990    8.1430 N.3   249  LEU249     -0.1245
     65  CA        -9.0500    4.0670    8.3380 C.3   249  LEU249      0.1561
     66  C         -9.5500    3.5270    7.0020 C.2   249  LEU249      0.2260
     67  O        -10.2360    4.2250    6.2450 O.2   249  LEU249     -0.2867
     68  CB       -10.2660    4.2730    9.2460 C.3   249  LEU249      0.0270
     69  CG        -9.9780    4.2330   10.7500 C.3   249  LEU249      0.0019
     70  CD1      -11.0780    4.7610   11.7030 C.3   249  LEU249      0.0001
     71  CD2       -9.5790    2.8140   11.1120 C.3   249  LEU249      0.0001
     72  N         -2.7790   16.2590   20.8970 N.3   326  THR326     -0.1218
     73  CA        -2.7350   14.8510   21.2780 C.3   326  THR326      0.1862
     74  C         -1.3320   14.2780   21.4250 C.2   326  THR326      0.2287
     75  O         -1.1810   13.1780   21.9390 O.2   326  THR326     -0.2866
     76  CB        -3.4990   13.9820   20.2460 C.3   326  THR326      0.1770
     77  OG1       -2.8770   14.1220   18.9670 O.3   326  THR326     -0.2211
     78  CG2       -4.9540   14.3800   20.1520 C.3   326  THR326      0.0375
     79  N          2.7400   13.7690   14.5930 N.3   339  LYS339     -0.1231
     80  CA         1.3170   13.4520   14.5010 C.3   339  LYS339      0.1693
     81  C          1.1230   12.0510   15.0750 C.2   339  LYS339      0.2593
     82  O          1.8620   11.1070   14.7690 O.2   339  LYS339     -0.2718
     83  CB         0.8050   13.4720   13.0450 C.3   339  LYS339      0.0285
     84  CG        -0.6830   13.2240   12.8940 C.3   339  LYS339      0.0035
     85  CD        -1.5870   14.3390   13.4730 C.3   339  LYS339      0.0206
     86  CE        -3.0720   13.9530   13.5320 C.3   339  LYS339      0.1093
     87  NZ        -3.4010   13.0350   14.6670 N.3   339  LYS339     -0.1314
     88  N          0.0890   11.9450   15.8870 N.am  340  THR340     -0.1939
     89  CA        -0.3120   10.7300   16.5370 C.3   340  THR340      0.2028
     90  C         -1.4440   10.0590   15.7620 C.2   340  THR340      0.2643
     91  O         -2.0950   10.6620   14.9050 O.2   340  THR340     -0.2714
     92  CB        -0.9400   11.0610   17.9200 C.3   340  THR340      0.1808
     93  OG1       -2.0190   11.9970   17.7440 O.3   340  THR340     -0.2208
     94  CG2        0.0480   11.6680   18.8400 C.3   340  THR340      0.0379
     95  N         -1.6780    8.8040   16.1340 N.am  341  GLY341     -0.1939
     96  CA        -2.7230    7.9810   15.6150 C.3   341  GLY341      0.2014
     97  C         -3.0340    6.8320   16.5850 C.2   341  GLY341      0.2640
     98  O         -2.1570    6.3990   17.3600 O.2   341  GLY341     -0.2714
     99  N         -4.2890    6.3730   16.5290 N.am  342  THR342     -0.1936
    100  CA        -4.7600    5.2840   17.2970 C.3   342  THR342      0.2028
    101  C         -5.7770    4.4890   16.3980 C.2   342  THR342      0.2642
    102  O         -6.7340    5.0550   15.8490 O.2   342  THR342     -0.2714
    103  CB        -5.3650    5.7650   18.6200 C.3   342  THR342      0.1808
    104  OG1       -4.3690    6.4700   19.4010 O.3   342  THR342     -0.2208
    105  CG2       -5.8890    4.5860   19.3380 C.3   342  THR342      0.0379
    106  N         -5.5800    3.1870   16.2540 N.am  343  ALA343     -0.1963
    107  CA        -6.4310    2.3810   15.3160 C.3   343  ALA343      0.1728
    108  C         -6.9160    1.1240   15.9330 C.2   343  ALA343      0.2616
    109  O         -6.1040    0.4010   16.5670 O.2   343  ALA343     -0.2715
    110  CB        -5.6080    2.0160   14.0920 C.3   343  ALA343      0.0334
    111  N         -8.2130    0.8700   15.8110 N.am  344  ASP344     -0.1971
    112  CA        -8.7880   -0.3460   16.3610 C.3   344  ASP344      0.1709
    113  C         -8.4040   -1.5140   15.4930 C.2   344  ASP344      0.2293
    114  O         -8.4210   -1.3750   14.2750 O.2   344  ASP344     -0.2864
    115  CB       -10.3070   -0.3130   16.3590 C.3   344  ASP344      0.1436
    116  CG       -10.8830    0.5450   17.4520 C.2   344  ASP344      0.3671
    117  OD1      -10.3700    0.4900   18.5790 O.co2 344  ASP344     -0.2456
    118  OD2      -11.8670    1.2630   17.1670 O.co2 344  ASP344     -0.2456
    119  N         -6.2580   -2.1050   20.0760 N.3   350  PHE350     -0.1241
    120  CA        -5.9190   -1.0130   19.1990 C.3   350  PHE350      0.1605
    121  C         -4.4000   -0.8070   19.2730 C.2   350  PHE350      0.2264
    122  O         -3.7310   -1.2900   20.1770 O.2   350  PHE350     -0.2867
    123  CB        -6.7330    0.2500   19.4980 C.3   350  PHE350      0.0534
    124  CG        -6.5460    0.7810   20.8940 C.ar  350  PHE350     -0.0203
    125  CD1       -5.4490    1.5360   21.2060 C.ar  350  PHE350     -0.0042
    126  CD2       -7.4970    0.5640   21.8660 C.ar  350  PHE350     -0.0042
    127  CE1       -5.2690    2.0510   22.5050 C.ar  350  PHE350     -0.0003
    128  CE2       -7.3560    1.0760   23.1390 C.ar  350  PHE350     -0.0003
    129  CZ        -6.2240    1.8260   23.4650 C.ar  350  PHE350     -0.0000
    130  N         -3.1240    3.5270   24.7610 N.3   379  LEU379     -0.1231
    131  CA        -3.4860    4.8590   24.2950 C.3   379  LEU379      0.1693
    132  C         -2.3690    5.8760   24.5930 C.2   379  LEU379      0.2592
    133  O         -1.9130    6.0100   25.7240 O.2   379  LEU379     -0.2718
    134  CB        -4.8110    5.2910   24.9000 C.3   379  LEU379      0.0284
    135  CG        -5.4000    6.6070   24.4020 C.3   379  LEU379      0.0019
    136  CD1       -5.7740    6.4850   22.9280 C.3   379  LEU379      0.0001
    137  CD2       -6.6160    6.9110   25.2530 C.3   379  LEU379      0.0001
    138  N         -1.8540    6.4810   23.5260 N.am  380  GLY380     -0.1957
    139  CA        -0.8520    7.5190   23.6190 C.3   380  GLY380      0.1869
    140  C          0.5780    7.0580   23.8000 C.2   380  GLY380      0.2309
    141  O          1.4740    7.8980   23.9290 O.2   380  GLY380     -0.2863
@<TRIPOS>BOND
     1    67    66    2
     2    66    65    1
     3    58    59    1
     4    64    65    1
     5    65    68    1
     6    59    60    1
     7    59    62    1
     8    60    61    2
     9    68    69    1
    10    63    62    1
    11     4     3    2
    12    53    52    2
    13    69    71    1
    14    69    70    1
    15     1     2    1
    16     3     2    1
    17     3     5   am
    18     8     7    2
    19    52    51    1
    20     7     6    1
    21     6     5    1
    22     6     9    1
    23    51    54    1
    24    51    50    1
    25    54    55    1
    26    84    83    1
    27    84    85    1
    28    83    80    1
    29    11    12    1
    30    56    55    2
    31    85    86    1
    32    86    87    1
    33    55    57   am
    34     9    10    1
    35   110   107    1
    36   114   113    2
    37    80    79    1
    38    80    81    1
    39    12    13    1
    40    12    15    1
    41    14    13    2
    42    82    81    2
    43    91    90    2
    44    17    19   ar
    45    17    16   ar
    46    81    88   am
    47    49    48    1
    48   107   108    1
    49   107   106    1
    50    19    20   ar
    51   113   112    1
    52    15    16    1
    53    46    45    1
    54    46    47    2
    55    96    95    1
    56    96    97    1
    57    45    48    1
    58    45    44    1
    59    16    18   ar
    60    90    95   am
    61    90    89    1
    62   111   108   am
    63   111   112    1
    64   102   101    2
    65    88    89    1
    66   108   109    2
    67   106   101   am
    68   115   112    1
    69   115   116    1
    70    20    18   ar
    71   101   100    1
    72    99    97   am
    73    99   100    1
    74    89    92    1
    75    44    35   am
    76    97    98    2
    77   118   116   ar
    78   100   103    1
    79   116   117   ar
    80    33    34    1
    81    93    92    1
    82    35    36    2
    83    35    34    1
    84    92    94    1
    85    21    22    1
    86    34    37    1
    87   103   105    1
    88   103   104    1
    89    77    76    1
    90    37    38    1
    91   120   121    1
    92   120   123    1
    93   120   119    1
    94   121   122    2
    95    22    25    1
    96    22    23    1
    97   123   124    1
    98    25    26    1
    99    38    39    1
   100    39    40    1
   101    78    76    1
   102    76    73    1
   103    23    24    2
   104    42    41    1
   105   124   125   ar
   106   124   126   ar
   107    72    73    1
   108    40    41    2
   109    26    27   ar
   110    26    28   ar
   111    27    29   ar
   112   125   127   ar
   113    41    43    1
   114    73    74    1
   115    74    75    2
   116   126   128   ar
   117    28    30   ar
   118    29    31   ar
   119   127   129   ar
   120   136   135    1
   121   128   129   ar
   122    31    30   ar
   123    31    32    1
   124   138   139    1
   125   138   132   am
   126   139   140    1
   127   140   141    2
   128   131   132    1
   129   131   130    1
   130   131   134    1
   131   135   134    1
   132   135   137    1
   133   132   133    2
