@<TRIPOS>MOLECULE
tmp/4n1zA00.pdb
 223 208 0 0 0
SMALL
GASTEIGER

@<TRIPOS>ATOM
      1  N         30.8440    2.5320    2.8870 N.3    47  ARG47      -0.1245
      2  CA        29.4630    2.7160    3.3340 C.3    47  ARG47       0.1563
      3  C         28.5420    2.0270    2.3460 C.2    47  ARG47       0.2260
      4  O         27.6220    1.3170    2.7520 O.2    47  ARG47      -0.2867
      5  CB        29.1510    4.2140    3.4820 C.3    47  ARG47       0.0307
      6  CG        29.8180    4.9330    4.6580 C.3    47  ARG47       0.0489
      7  CD        29.8590    6.4360    4.3650 C.3    47  ARG47       0.2205
      8  NE        30.5090    7.2750    5.3810 N.pl3  47  ARG47      -0.0865
      9  CZ        31.7840    7.6340    5.3650 C.cat  47  ARG47       0.5346
     10  NH1       32.6010    7.2170    4.3850 N.pl3  47  ARG47       0.1354
     11  NH2       32.2520    8.4110    6.3430 N.pl3  47  ARG47       0.1354
     12  N         27.3960   14.1030   -1.4450 N.3    85  PHE85      -0.1227
     13  CA        26.6050   15.2760   -1.0800 C.3    85  PHE85       0.1736
     14  C         27.1300   15.9420    0.1890 C.2    85  PHE85       0.2595
     15  O         27.4980   17.1030    0.1550 O.2    85  PHE85      -0.2718
     16  CB        25.1230   14.8550   -0.9170 C.3    85  PHE85       0.0547
     17  CG        24.2410   15.8710   -0.2250 C.ar   85  PHE85      -0.0202
     18  CD1       24.2380   17.2160   -0.6050 C.ar   85  PHE85      -0.0042
     19  CD2       23.3570   15.4570    0.7720 C.ar   85  PHE85      -0.0042
     20  CE1       23.3850   18.1450    0.0170 C.ar   85  PHE85      -0.0003
     21  CE2       22.4900   16.3650    1.3960 C.ar   85  PHE85      -0.0003
     22  CZ        22.5040   17.7070    1.0220 C.ar   85  PHE85      -0.0000
     23  N         27.1570   15.2150    1.3010 N.am   86  PHE86      -0.1962
     24  CA        27.5980   15.7630    2.5670 C.3    86  PHE86       0.1771
     25  C         29.0240   16.3200    2.4710 C.2    86  PHE86       0.2619
     26  O         29.3420   17.3750    3.0450 O.2    86  PHE86      -0.2715
     27  CB        27.5590   14.6590    3.6090 C.3    86  PHE86       0.0574
     28  CG        26.1680   14.2260    4.0260 C.ar   86  PHE86      -0.0200
     29  CD1       25.1000   15.1190    4.0350 C.ar   86  PHE86      -0.0042
     30  CD2       25.9490   12.9360    4.4840 C.ar   86  PHE86      -0.0042
     31  CE1       23.8330   14.7310    4.4670 C.ar   86  PHE86      -0.0003
     32  CE2       24.6900   12.5360    4.9310 C.ar   86  PHE86      -0.0003
     33  CZ        23.6240   13.4280    4.9080 C.ar   86  PHE86      -0.0000
     34  N         29.8980   15.6100    1.7570 N.am   87  LEU87      -0.1977
     35  CA        31.3080   16.0360    1.6100 C.3    87  LEU87       0.1596
     36  C         31.4810   17.3060    0.8440 C.2    87  LEU87       0.2287
     37  O         32.2780   18.1480    1.2390 O.2    87  LEU87      -0.2864
     38  CB        32.1870   14.9510    0.9320 C.3    87  LEU87       0.0297
     39  CG        32.3880   13.7200    1.8630 C.3    87  LEU87       0.0022
     40  CD1       33.5030   12.8150    1.3610 C.3    87  LEU87       0.0001
     41  CD2       32.5800   14.0680    3.3590 C.3    87  LEU87       0.0001
     42  N         29.5670   19.7730    0.5000 N.3    89  ALA89      -0.1231
     43  CA        29.0490   20.8780    1.2940 C.3    89  ALA89       0.1694
     44  C         29.8890   21.1520    2.5310 C.2    89  ALA89       0.2592
     45  O         30.1270   22.3320    2.8350 O.2    89  ALA89      -0.2718
     46  CB        27.5860   20.6370    1.6800 C.3    89  ALA89       0.0304
     47  N         30.3060   20.0800    3.2370 N.am   90  ASP90      -0.1960
     48  CA        31.1560   20.1730    4.4560 C.3    90  ASP90       0.1840
     49  C         32.5340   20.8080    4.1650 C.2    90  ASP90       0.2622
     50  O         33.0400   21.5710    4.9900 O.2    90  ASP90      -0.2715
     51  CB        31.3040   18.8150    5.1620 C.3    90  ASP90       0.1450
     52  CG        32.2130   18.8700    6.3870 C.2    90  ASP90       0.3671
     53  OD1       33.4100   18.5850    6.1850 O.co2  90  ASP90      -0.2456
     54  OD2       31.7890   19.1830    7.5500 O.co2  90  ASP90      -0.2456
     55  N         33.0940   20.5330    2.9910 N.am   91  ASP91      -0.1971
     56  CA        34.3580   21.1520    2.5670 C.3    91  ASP91       0.1709
     57  C         34.2940   22.6770    2.4100 C.2    91  ASP91       0.2293
     58  O         35.1980   23.3750    2.8010 O.2    91  ASP91      -0.2864
     59  CB        34.8530   20.4970    1.2790 C.3    91  ASP91       0.1436
     60  CG        35.4850   19.0990    1.5340 C.2    91  ASP91       0.3671
     61  OD1       35.8370   18.7710    2.7200 O.co2  91  ASP91      -0.2456
     62  OD2       35.6170   18.3310    0.5420 O.co2  91  ASP91      -0.2456
     63  N         31.9370   24.5760    4.0940 N.3    93  MET93      -0.1230
     64  CA        31.7330   25.0620    5.4450 C.3    93  MET93       0.1702
     65  C         32.9710   24.9440    6.2950 C.2    93  MET93       0.2592
     66  O         33.1830   25.7380    7.1600 O.2    93  MET93      -0.2718
     67  CB        30.5670   24.3600    6.1050 C.3    93  MET93       0.0401
     68  CG        29.2470   24.6950    5.4160 C.3    93  MET93       0.0596
     69  SD        27.7920   23.9310    6.2000 S.3    93  MET93      -0.1393
     70  CE        27.6280   22.4270    5.2540 C.3    93  MET93       0.0692
     71  N         33.8260   23.9930    5.9880 N.am   94  ASP94      -0.1974
     72  CA        35.0530   23.7630    6.7440 C.3    94  ASP94       0.1709
     73  C         36.2570   24.5180    6.1550 C.2    94  ASP94       0.2293
     74  O         37.3100   24.5900    6.7750 O.2    94  ASP94      -0.2864
     75  CB        35.2580   22.2190    6.9470 C.3    94  ASP94       0.1436
     76  CG        34.2060   21.6110    7.9420 C.2    94  ASP94       0.3671
     77  OD1       33.6800   22.4140    8.7290 O.co2  94  ASP94      -0.2456
     78  OD2       33.9300   20.3660    8.0310 O.co2  94  ASP94      -0.2456
     79  N         38.0090   23.6180    3.6440 N.3    96  SER96      -0.1217
     80  CA        39.0060   22.6180    3.3960 C.3    96  SER96       0.1889
     81  C         39.6160   22.8360    2.0250 C.2    96  SER96       0.2288
     82  O         38.9870   23.4790    1.1560 O.2    96  SER96      -0.2866
     83  CB        38.3470   21.2510    3.4980 C.3    96  SER96       0.2089
     84  OG        38.0290   20.9870    4.8520 O.3    96  SER96      -0.2183
     85  N         40.3580   16.8360   -0.7340 N.3    99  ARG99      -0.1245
     86  CA        39.4990   15.7180   -0.3710 C.3    99  ARG99       0.1563
     87  C         39.8660   14.5300   -1.2730 C.2    99  ARG99       0.2260
     88  O         39.8780   14.6730   -2.5180 O.2    99  ARG99      -0.2867
     89  CB        38.0340   16.1070   -0.6530 C.3    99  ARG99       0.0307
     90  CG        36.9980   14.9930   -0.5700 C.3    99  ARG99       0.0489
     91  CD        36.8270   14.5130    0.8520 C.3    99  ARG99       0.2205
     92  NE        36.2760   15.5390    1.7250 N.pl3  99  ARG99      -0.0865
     93  CZ        36.0350   15.3540    3.0220 C.cat  99  ARG99       0.5346
     94  NH1       36.3080   14.1620    3.5730 N.pl3  99  ARG99       0.1354
     95  NH2       35.4980   16.3430    3.7630 N.pl3  99  ARG99       0.1354
     96  N         23.5570   19.4520   -3.9760 N.3   120  ASN120     -0.1240
     97  CA        22.1920   19.0780   -3.8080 C.3   120  ASN120      0.1653
     98  C         21.7230   18.2100   -4.9660 C.2   120  ASN120      0.2266
     99  O         20.9200   17.2910   -4.7660 O.2   120  ASN120     -0.2867
    100  CB        21.3300   20.3230   -3.6260 C.3   120  ASN120      0.1155
    101  CG        21.1700   20.6890   -2.1800 C.2   120  ASN120      0.2627
    102  OD1       20.2050   20.2620   -1.5480 O.2   120  ASN120     -0.2716
    103  ND2       22.1090   21.4600   -1.6330 N.am  120  ASN120     -0.0877
    104  N         21.6720   14.0740   10.2820 N.3   154  THR154     -0.1203
    105  CA        23.0560   14.4960   10.0090 C.3   154  THR154      0.1994
    106  C         23.1680   16.0180    9.8210 C.2   154  THR154      0.2617
    107  O         24.1620   16.5940   10.1890 O.2   154  THR154     -0.2717
    108  CB        23.8410   13.6150    8.9670 C.3   154  THR154      0.1784
    109  OG1       24.2580   14.3510    7.8220 O.3   154  THR154     -0.2211
    110  CG2       23.1020   12.3970    8.5210 C.3   154  THR154      0.0376
    111  N         22.1270   16.6700    9.3000 N.am  155  GLU155     -0.1979
    112  CA        22.1000   18.1540    9.2490 C.3   155  GLU155      0.1602
    113  C         21.9270   18.7310   10.6190 C.2   155  GLU155      0.2287
    114  O         22.4740   19.7650   10.8930 O.2   155  GLU155     -0.2864
    115  CB        21.0430   18.6760    8.2810 C.3   155  GLU155      0.0415
    116  CG        21.4800   18.3210    6.8690 C.3   155  GLU155      0.1163
    117  CD        20.3610   18.2050    5.8610 C.2   155  GLU155      0.3649
    118  OE1       19.2150   18.5790    6.1910 O.co2 155  GLU155     -0.2457
    119  OE2       20.6290   17.7360    4.7220 O.co2 155  GLU155     -0.2457
    120  N         25.4470   18.5690   11.9580 N.3   158  GLN158     -0.1245
    121  CA        26.1970   19.7120   11.4700 C.3   158  GLN158      0.1566
    122  C         25.9010   20.9660   12.2520 C.2   158  GLN158      0.2260
    123  O         26.8030   21.7260   12.5080 O.2   158  GLN158     -0.2867
    124  CB        25.8370   20.0800   10.0450 C.3   158  GLN158      0.0367
    125  CG        26.6950   19.5270    8.9470 C.3   158  GLN158      0.0905
    126  CD        28.2070   19.7400    9.0890 C.2   158  GLN158      0.2608
    127  OE1       28.8650   19.0300    9.8380 O.2   158  GLN158     -0.2717
    128  NE2       28.7610   20.6320    8.2870 N.am  158  GLN158     -0.0878
    129  N         27.8220   20.9300   15.3110 N.3   161  ASP161     -0.1239
    130  CA        29.2280   21.0340   14.9340 C.3   161  ASP161      0.1674
    131  C         29.5640   22.5420   14.6620 C.2   161  ASP161      0.2266
    132  O         30.5660   23.0540   15.1790 O.2   161  ASP161     -0.2867
    133  CB        29.5200   20.0670   13.7230 C.3   161  ASP161      0.1410
    134  CG        30.9470   20.2700   13.0240 C.2   161  ASP161      0.3668
    135  OD1       31.8150   19.3630   13.0750 O.co2 161  ASP161     -0.2456
    136  OD2       31.2090   21.2980   12.3610 O.co2 161  ASP161     -0.2456
    137  N         25.9820   13.7980   13.5680 N.3   185  LYS185     -0.1231
    138  CA        26.7250   14.2370   12.4020 C.3   185  LYS185      0.1693
    139  C         27.3000   13.1280   11.5900 C.2   185  LYS185      0.2592
    140  O         27.4570   13.3260   10.3790 O.2   185  LYS185     -0.2718
    141  CB        27.7940   15.3190   12.7400 C.3   185  LYS185      0.0285
    142  CG        29.1980   14.8600   13.0700 C.3   185  LYS185      0.0035
    143  CD        30.2250   15.9130   12.6230 C.3   185  LYS185      0.0206
    144  CE        31.5510   15.8320   13.4090 C.3   185  LYS185      0.1093
    145  NZ        32.7570   16.6040   12.9240 N.3   185  LYS185     -0.1314
    146  N         27.6430   11.9890   12.2390 N.am  186  THR186     -0.1953
    147  CA        28.3010   10.8660   11.5520 C.3   186  THR186      0.1897
    148  C         27.6880    9.4820   11.7590 C.2   186  THR186      0.2313
    149  O         27.6340    8.6380   10.8170 O.2   186  THR186     -0.2863
    150  CB        29.7760   10.7900   11.9570 C.3   186  THR186      0.1794
    151  OG1       30.4480   11.8530   11.3190 O.3   186  THR186     -0.2208
    152  CG2       30.4690    9.4640   11.5220 C.3   186  THR186      0.0378
    153  N         24.3450    8.1860    9.6480 N.3   189  TYR189     -0.1241
    154  CA        24.3940    7.9380    8.1920 C.3   189  TYR189      0.1605
    155  C         25.5270    7.0530    7.7210 C.2   189  TYR189      0.2264
    156  O         25.4870    6.5180    6.5940 O.2   189  TYR189     -0.2867
    157  CB        24.4200    9.2560    7.3980 C.3   189  TYR189      0.0534
    158  CG        25.8190    9.8060    7.0970 C.ar  189  TYR189     -0.0201
    159  CD1       26.5360   10.5920    8.0500 C.ar  189  TYR189     -0.0009
    160  CD2       26.4150    9.5560    5.8490 C.ar  189  TYR189     -0.0009
    161  CE1       27.7950   11.1090    7.7550 C.ar  189  TYR189      0.0417
    162  CE2       27.6860   10.0730    5.5340 C.ar  189  TYR189      0.0417
    163  CZ        28.3820   10.8460    6.4730 C.ar  189  TYR189      0.1957
    164  OH        29.6610   11.3200    6.1040 O.3   189  TYR189     -0.2866
    165  N         34.3520    8.5730   14.2450 N.3   225  GLN225     -0.1245
    166  CA        34.5300   10.0150   14.1710 C.3   225  GLN225      0.1566
    167  C         35.7250   10.4490   15.0030 C.2   225  GLN225      0.2260
    168  O         36.4530   11.3650   14.6040 O.2   225  GLN225     -0.2867
    169  CB        33.2650   10.7520   14.5650 C.3   225  GLN225      0.0367
    170  CG        33.2460   12.2560   14.2560 C.3   225  GLN225      0.0905
    171  CD        33.6070   12.6100   12.8150 C.2   225  GLN225      0.2608
    172  OE1       33.0910   12.0360   11.8560 O.2   225  GLN225     -0.2717
    173  NE2       34.4910   13.5710   12.6610 N.am  225  GLN225     -0.0878
    174  N         38.5230    9.9350   13.0410 N.3   228  ASP228     -0.1225
    175  CA        38.5190   11.0480   12.0540 C.3   228  ASP228      0.1805
    176  C         39.1640   12.2960   12.6360 C.2   228  ASP228      0.2597
    177  O         39.9520   12.9560   11.9710 O.2   228  ASP228     -0.2718
    178  CB        37.0900   11.4040   11.5580 C.3   228  ASP228      0.1424
    179  CG        37.0880   12.5200   10.5120 C.2   228  ASP228      0.3668
    180  OD1       37.4310   12.2220    9.3480 O.co2 228  ASP228     -0.2456
    181  OD2       36.7570   13.6920   10.8340 O.co2 228  ASP228     -0.2456
    182  N         38.8250   12.6210   13.8850 N.am  229  ASP229     -0.1974
    183  CA        39.4430   13.7610   14.5610 C.3   229  ASP229      0.1709
    184  C         40.9300   13.5460   14.7580 C.2   229  ASP229      0.2293
    185  O         41.7300   14.4460   14.4580 O.2   229  ASP229     -0.2864
    186  CB        38.7300   14.0830   15.8600 C.3   229  ASP229      0.1436
    187  CG        37.2550   14.4380   15.6470 C.2   229  ASP229      0.3671
    188  OD1       36.8140   14.6660   14.4740 O.co2 229  ASP229     -0.2456
    189  OD2       36.5140   14.4590   16.6640 O.co2 229  ASP229     -0.2456
    190  N         42.8570   13.9020   11.5930 N.3   232  ASP232     -0.1239
    191  CA        42.8420   15.2750   11.0950 C.3   232  ASP232      0.1674
    192  C         44.1830   15.9670   11.4310 C.2   232  ASP232      0.2266
    193  O         44.7540   16.6490   10.5720 O.2   232  ASP232     -0.2867
    194  CB        41.6500   16.0690   11.6650 C.3   232  ASP232      0.1410
    195  CG        41.5150   17.4880   11.0510 C.2   232  ASP232      0.3668
    196  OD1       41.9380   18.4620   11.7080 O.co2 232  ASP232     -0.2456
    197  OD2       40.9960   17.6320    9.9090 O.co2 232  ASP232     -0.2456
    198  N         43.3890   14.2340    2.4700 N.3   242  LYS242     -0.1245
    199  CA        42.8110   15.5200    2.9360 C.3   242  LYS242      0.1561
    200  C         43.6860   16.2150    3.9850 C.2   242  LYS242      0.2260
    201  O         44.3390   15.5820    4.7900 O.2   242  LYS242     -0.2867
    202  CB        41.3440   15.3400    3.4450 C.3   242  LYS242      0.0271
    203  CG        41.1680   14.6750    4.8260 C.3   242  LYS242      0.0035
    204  CD        39.7660   14.0730    5.0670 C.3   242  LYS242      0.0206
    205  CE        39.7480   13.2790    6.3650 C.3   242  LYS242      0.1093
    206  NZ        38.3900   12.8700    6.8720 N.3   242  LYS242     -0.1314
    207  N         40.8690   21.4030   11.7500 N.3   246  ASP246     -0.1239
    208  CA        40.0740   21.4020   12.9890 C.3   246  ASP246      0.1674
    209  C         40.4740   22.4950   13.9660 C.2   246  ASP246      0.2266
    210  O         39.6190   23.1580   14.5400 O.2   246  ASP246     -0.2867
    211  CB        40.1030   20.0290   13.7030 C.3   246  ASP246      0.1410
    212  CG        39.1440   18.9600   13.0760 C.2   246  ASP246      0.3668
    213  OD1       38.3340   19.2230   12.1490 O.co2 246  ASP246     -0.2456
    214  OD2       39.2050   17.8020   13.5400 O.co2 246  ASP246     -0.2456
    215  N         37.1900   23.8270   16.1920 N.3   251  LYS251     -0.1245
    216  CA        36.2360   22.6920   16.2950 C.3   251  LYS251      0.1561
    217  C         36.2450   21.9960   17.6340 C.2   251  LYS251      0.2260
    218  O         37.2820   21.9270   18.2880 O.2   251  LYS251     -0.2867
    219  CB        36.5740   21.6210   15.2810 C.3   251  LYS251      0.0271
    220  CG        36.2590   21.9900   13.8310 C.3   251  LYS251      0.0035
    221  CD        34.7870   22.3440   13.6000 C.3   251  LYS251      0.0206
    222  CE        34.6960   22.6960   12.1210 C.3   251  LYS251      0.1093
    223  NZ        33.3060   22.9910   11.7480 N.3   251  LYS251     -0.1314
@<TRIPOS>BOND
     1    98    99    2
     2    98    97    1
     3    96    97    1
     4    97   100    1
     5   100   101    1
     6    88    87    2
     7   101   103   am
     8   101   102    2
     9    12    13    1
    10    87    86    1
    11    13    16    1
    12    13    14    1
    13    16    17    1
    14    85    86    1
    15    89    90    1
    16    89    86    1
    17    18    17   ar
    18    18    20   ar
    19    90    91    1
    20    17    19   ar
    21    20    22   ar
    22    15    14    2
    23    14    23   am
    24    42    43    1
    25    62    60   ar
    26    19    21   ar
    27    36    37    2
    28    36    35    1
    29    91    92    1
    30    38    35    1
    31    38    39    1
    32    22    21   ar
    33    82    81    2
    34    59    60    1
    35    59    56    1
    36    43    46    1
    37    43    44    1
    38    23    24    1
    39    40    39    1
    40    60    61   ar
    41    35    34    1
    42    92    93    2
    43    34    25   am
    44    39    41    1
    45    81    80    1
    46     3     4    2
    47     3     2    1
    48    57    56    1
    49    57    58    2
    50   198   199    1
    51    25    24    1
    52    25    26    2
    53    44    45    2
    54    44    47   am
    55    56    55    1
    56    24    27    1
    57     1     2    1
    58   199   202    1
    59   199   200    1
    60    55    49   am
    61    93    94    1
    62    93    95    1
    63    47    48    1
    64     2     5    1
    65    80    83    1
    66    80    79    1
    67   202   203    1
    68     5     6    1
    69    83    84    1
    70    27    28    1
    71   200   201    2
    72    28    29   ar
    73    28    30   ar
    74    29    31   ar
    75    63    64    1
    76    49    48    1
    77    49    50    2
    78     7     6    1
    79     7     8    1
    80    10     9    1
    81    48    51    1
    82    31    33   ar
    83    30    32   ar
    84   119   117   ar
    85   203   204    1
    86    33    32   ar
    87   204   205    1
    88    51    52    1
    89    70    69    1
    90     9     8    2
    91     9    11    1
    92    68    67    1
    93    68    69    1
    94    64    67    1
    95    64    65    1
    96   162   160   ar
    97   162   163   ar
    98   160   158   ar
    99   117   118   ar
   100   117   116    1
   101    71    65   am
   102    71    72    1
   103   164   163    1
   104    73    72    1
   105    73    74    2
   106    53    52   ar
   107    65    66    2
   108   205   206    1
   109    52    54   ar
   110   163   161   ar
   111   156   155    2
   112    72    75    1
   113   116   115    1
   114    75    76    1
   115   158   157    1
   116   158   159   ar
   117   157   154    1
   118   155   154    1
   119   161   159   ar
   120   109   108    1
   121    76    78   ar
   122    76    77   ar
   123   154   153    1
   124   115   112    1
   125   128   126   am
   126   110   108    1
   127   125   126    1
   128   125   124    1
   129   108   105    1
   130   126   127    2
   131   112   111    1
   132   112   113    1
   133   111   106   am
   134   180   179   ar
   135   106   105    1
   136   106   107    2
   137   197   195   ar
   138   105   104    1
   139   124   121    1
   140   140   139    2
   141   179   181   ar
   142   179   178    1
   143   193   192    2
   144   113   114    2
   145   149   148    2
   146   195   194    1
   147   195   196   ar
   148   191   192    1
   149   191   190    1
   150   191   194    1
   151   151   150    1
   152   121   120    1
   153   121   122    1
   154   152   150    1
   155   147   148    1
   156   147   150    1
   157   147   146    1
   158   178   175    1
   159   139   146   am
   160   139   138    1
   161   223   222    1
   162   207   208    1
   163   172   171    2
   164   177   176    2
   165   175   176    1
   166   175   174    1
   167   222   221    1
   168   213   212   ar
   169   122   123    2
   170   136   134   ar
   171   138   141    1
   172   138   137    1
   173   143   142    1
   174   143   144    1
   175   176   182   am
   176   173   171   am
   177   141   142    1
   178   171   170    1
   179   145   144    1
   180   208   211    1
   181   208   209    1
   182   134   135   ar
   183   134   133    1
   184   212   214   ar
   185   212   211    1
   186   221   220    1
   187   133   130    1
   188   220   219    1
   189   182   183    1
   190   209   210    2
   191   166   165    1
   192   166   169    1
   193   166   167    1
   194   170   169    1
   195   185   184    2
   196   188   187   ar
   197   183   184    1
   198   183   186    1
   199   168   167    2
   200   131   130    1
   201   131   132    2
   202   130   129    1
   203   219   216    1
   204   187   186    1
   205   187   189   ar
   206   215   216    1
   207   216   217    1
   208   217   218    2
