@<TRIPOS>MOLECULE
tmp/4n24A01.pdb
 99 95 0 0 0
SMALL
GASTEIGER

@<TRIPOS>ATOM
      1  N        -39.4820   -8.1810  154.7980 N.3   245  ASP245     -0.1239
      2  CA       -38.4580   -9.1250  154.3970 C.3   245  ASP245      0.1674
      3  C        -38.4000   -9.1390  152.8840 C.2   245  ASP245      0.2266
      4  O        -39.0580   -8.3210  152.2260 O.2   245  ASP245     -0.2867
      5  CB       -38.7760  -10.5080  154.9630 C.3   245  ASP245      0.1410
      6  CG       -37.5390  -11.2660  155.3880 C.2   245  ASP245      0.3668
      7  OD1      -36.5070  -11.1800  154.6880 O.co2 245  ASP245     -0.2456
      8  OD2      -37.5990  -11.9510  156.4320 O.co2 245  ASP245     -0.2456
      9  N        -32.9980  -10.1260  168.8310 N.3   355  LEU355     -0.1231
     10  CA       -32.8500  -11.1790  167.8440 C.3   355  LEU355      0.1693
     11  C        -32.0260  -12.2840  168.4670 C.2   355  LEU355      0.2592
     12  O        -30.9590  -12.0100  169.0170 O.2   355  LEU355     -0.2718
     13  CB       -32.0910  -10.6470  166.6370 C.3   355  LEU355      0.0284
     14  CG       -32.8680  -10.0360  165.4750 C.3   355  LEU355      0.0019
     15  CD1      -34.0190   -9.2000  165.9520 C.3   355  LEU355      0.0001
     16  CD2      -31.9300   -9.2320  164.6190 C.3   355  LEU355      0.0001
     17  N        -32.5000  -13.5240  168.3640 N.am  356  ASP356     -0.1960
     18  CA       -31.7790  -14.6770  168.9160 C.3   356  ASP356      0.1840
     19  C        -31.4300  -15.7470  167.8720 C.2   356  ASP356      0.2622
     20  O        -32.3120  -16.3070  167.2220 O.2   356  ASP356     -0.2715
     21  CB       -32.5630  -15.3020  170.0810 C.3   356  ASP356      0.1450
     22  CG       -31.8360  -16.4820  170.7080 C.2   356  ASP356      0.3671
     23  OD1      -32.5090  -17.3890  171.2440 O.co2 356  ASP356     -0.2456
     24  OD2      -30.5880  -16.5140  170.6540 O.co2 356  ASP356     -0.2456
     25  N        -30.1400  -16.0360  167.7250 N.am  357  SER357     -0.1950
     26  CA       -29.6930  -17.0930  166.8240 C.3   357  SER357      0.1924
     27  C        -28.7880  -18.0540  167.5750 C.2   357  SER357      0.2314
     28  O        -27.5600  -17.9590  167.4890 O.2   357  SER357     -0.2863
     29  CB       -28.9400  -16.5100  165.6230 C.3   357  SER357      0.2116
     30  OG       -29.7470  -15.5840  164.9190 O.3   357  SER357     -0.2180
     31  N        -37.2570  -12.5550  169.2320 N.3   375  VAL375     -0.1231
     32  CA       -37.4220  -13.1930  167.9290 C.3   375  VAL375      0.1692
     33  C        -36.2500  -14.1260  167.6120 C.2   375  VAL375      0.2593
     34  O        -35.0950  -13.6970  167.5570 O.2   375  VAL375     -0.2718
     35  CB       -37.6590  -12.1430  166.8130 C.3   375  VAL375      0.0266
     36  CG1      -36.8940  -10.8940  167.1060 C.3   375  VAL375      0.0020
     37  CG2      -37.2800  -12.6830  165.4410 C.3   375  VAL375      0.0020
     38  N        -36.5590  -15.4060  167.4230 N.am  376  THR376     -0.1939
     39  CA       -35.5410  -16.4230  167.1730 C.3   376  THR376      0.2028
     40  C        -35.6660  -16.9450  165.7550 C.2   376  THR376      0.2642
     41  O        -36.7590  -16.9660  165.2020 O.2   376  THR376     -0.2714
     42  CB       -35.7010  -17.6260  168.1150 C.3   376  THR376      0.1808
     43  OG1      -36.9450  -18.2770  167.8410 O.3   376  THR376     -0.2208
     44  CG2      -35.6880  -17.1840  169.5600 C.3   376  THR376      0.0379
     45  N        -34.5500  -17.3720  165.1700 N.am  377  ARG377     -0.1977
     46  CA       -34.5610  -17.9200  163.8150 C.3   377  ARG377      0.1597
     47  C        -35.1890  -19.3150  163.7600 C.2   377  ARG377      0.2287
     48  O        -35.6330  -19.7700  162.7000 O.2   377  ARG377     -0.2864
     49  CB       -33.1460  -17.9570  163.2410 C.3   377  ARG377      0.0334
     50  CG       -32.1550  -18.7820  164.0500 C.3   377  ARG377      0.0492
     51  CD       -30.7670  -18.7140  163.4190 C.3   377  ARG377      0.2205
     52  NE       -29.7890  -19.5440  164.1190 N.pl3 377  ARG377     -0.0865
     53  CZ       -28.4940  -19.5930  163.8120 C.cat 377  ARG377      0.5346
     54  NH1      -28.0150  -18.8540  162.8160 N.pl3 377  ARG377      0.1354
     55  NH2      -27.6750  -20.3770  164.5020 N.pl3 377  ARG377      0.1354
     56  N        -23.8210  -12.3190  165.1730 N.3   385  PHE385     -0.1241
     57  CA       -24.0760  -10.9050  165.4320 C.3   385  PHE385      0.1605
     58  C        -22.7940  -10.1510  165.8240 C.2   385  PHE385      0.2264
     59  O        -22.7820   -8.9330  165.8860 O.2   385  PHE385     -0.2867
     60  CB       -25.1840  -10.7350  166.4840 C.3   385  PHE385      0.0534
     61  CG       -26.5190  -11.2640  166.0380 C.ar  385  PHE385     -0.0203
     62  CD1      -27.2920  -12.0470  166.8790 C.ar  385  PHE385     -0.0042
     63  CD2      -27.0000  -10.9790  164.7710 C.ar  385  PHE385     -0.0042
     64  CE1      -28.5220  -12.5380  166.4630 C.ar  385  PHE385     -0.0003
     65  CE2      -28.2350  -11.4640  164.3510 C.ar  385  PHE385     -0.0003
     66  CZ       -28.9920  -12.2480  165.1980 C.ar  385  PHE385     -0.0000
     67  N        -30.6500  -14.8790  153.9050 N.3   423  VAL423     -0.1231
     68  CA       -31.9210  -14.6200  154.5820 C.3   423  VAL423      0.1692
     69  C        -31.7410  -13.4850  155.5860 C.2   423  VAL423      0.2591
     70  O        -32.5780  -12.5850  155.6820 O.2   423  VAL423     -0.2718
     71  CB       -32.5350  -15.9050  155.2200 C.3   423  VAL423      0.0266
     72  CG1      -31.5900  -16.5340  156.2110 C.3   423  VAL423      0.0020
     73  CG2      -33.8630  -15.5980  155.8890 C.3   423  VAL423      0.0020
     74  N        -30.6030  -13.4920  156.2780 N.am  424  VAL424     -0.1980
     75  CA       -30.3010  -12.4600  157.2630 C.3   424  VAL424      0.1595
     76  C        -29.9510  -11.1230  156.6060 C.2   424  VAL424      0.2287
     77  O        -30.4100  -10.0740  157.0560 O.2   424  VAL424     -0.2864
     78  CB       -29.1920  -12.9050  158.2190 C.3   424  VAL424      0.0276
     79  CG1      -28.8290  -11.7840  159.1880 C.3   424  VAL424      0.0022
     80  CG2      -29.6320  -14.1470  158.9880 C.3   424  VAL424      0.0022
     81  N        -33.2470   -9.7110  155.3350 N.3   427  PHE427     -0.1227
     82  CA       -33.9620   -9.1430  156.4720 C.3   427  PHE427      0.1736
     83  C        -33.4680   -7.7290  156.8220 C.2   427  PHE427      0.2595
     84  O        -34.2550   -6.7900  156.9410 O.2   427  PHE427     -0.2718
     85  CB       -33.8740  -10.0750  157.6910 C.3   427  PHE427      0.0547
     86  CG       -34.3270   -9.4310  158.9860 C.ar  427  PHE427     -0.0202
     87  CD1      -35.6660   -9.4290  159.3470 C.ar  427  PHE427     -0.0042
     88  CD2      -33.4100   -8.8410  159.8420 C.ar  427  PHE427     -0.0042
     89  CE1      -36.0800   -8.8360  160.5300 C.ar  427  PHE427     -0.0003
     90  CE2      -33.8170   -8.2460  161.0240 C.ar  427  PHE427     -0.0003
     91  CZ       -35.1500   -8.2410  161.3650 C.ar  427  PHE427     -0.0000
     92  N        -32.1610   -7.5760  156.9930 N.am  428  LEU428     -0.1980
     93  CA       -31.5980   -6.2860  157.3890 C.3   428  LEU428      0.1596
     94  C        -31.8690   -5.2130  156.3370 C.2   428  LEU428      0.2287
     95  O        -32.1950   -4.0740  156.6710 O.2   428  LEU428     -0.2864
     96  CB       -30.0980   -6.4190  157.6300 C.3   428  LEU428      0.0297
     97  CG       -29.7390   -7.4020  158.7460 C.3   428  LEU428      0.0022
     98  CD1      -28.2310   -7.6220  158.7710 C.3   428  LEU428      0.0001
     99  CD2      -30.2300   -6.8820  160.0930 C.3   428  LEU428      0.0001
@<TRIPOS>BOND
     1     4     3    2
     2     3     2    1
     3    67    68    1
     4     2     1    1
     5     2     5    1
     6    68    71    1
     7    68    69    1
     8     7     6   ar
     9     5     6    1
    10    71    73    1
    11    71    72    1
    12    81    82    1
    13     6     8   ar
    14    69    70    2
    15    69    74   am
    16    74    75    1
    17    94    95    2
    18    94    93    1
    19    82    83    1
    20    82    85    1
    21    76    77    2
    22    76    75    1
    23    83    84    2
    24    83    92   am
    25    92    93    1
    26    75    78    1
    27    93    96    1
    28    96    97    1
    29    85    86    1
    30    78    80    1
    31    78    79    1
    32    97    98    1
    33    97    99    1
    34    86    87   ar
    35    86    88   ar
    36    87    89   ar
    37    88    90   ar
    38    89    91   ar
    39    90    91   ar
    40    48    47    2
    41    54    53    1
    42    49    46    1
    43    49    50    1
    44    51    50    1
    45    51    52    1
    46    47    46    1
    47    53    52    2
    48    53    55    1
    49    46    45    1
    50    65    63   ar
    51    65    66   ar
    52    16    14    1
    53    63    61   ar
    54    30    29    1
    55    45    40   am
    56    56    57    1
    57    66    64   ar
    58    41    40    2
    59    57    58    1
    60    57    60    1
    61    37    35    1
    62    14    15    1
    63    14    13    1
    64    29    26    1
    65    40    39    1
    66    58    59    2
    67    61    60    1
    68    61    62   ar
    69    64    62   ar
    70    13    10    1
    71    35    36    1
    72    35    32    1
    73    26    27    1
    74    26    25    1
    75    39    38    1
    76    39    42    1
    77    20    19    2
    78    38    33   am
    79    28    27    2
    80    34    33    2
    81    33    32    1
    82    25    19   am
    83    43    42    1
    84    10    11    1
    85    10     9    1
    86    19    18    1
    87    32    31    1
    88    42    44    1
    89    17    11   am
    90    17    18    1
    91    11    12    2
    92    18    21    1
    93    21    22    1
    94    24    22   ar
    95    22    23   ar
