@<TRIPOS>MOLECULE
tmp/4n25A01.pdb
 106 98 0 0 0
SMALL
GASTEIGER

@<TRIPOS>ATOM
      1  N        189.3440   -7.6390  185.9650 N.3   308  PHE308     -0.1241
      2  CA       188.4210   -7.1120  184.9740 C.3   308  PHE308      0.1605
      3  C        187.1720   -6.5620  185.6580 C.2   308  PHE308      0.2264
      4  O        186.8120   -5.4050  185.4600 O.2   308  PHE308     -0.2867
      5  CB       188.0620   -8.1910  183.9540 C.3   308  PHE308      0.0534
      6  CG       187.0360   -7.7590  182.9560 C.ar  308  PHE308     -0.0203
      7  CD1      187.3560   -6.8440  181.9600 C.ar  308  PHE308     -0.0042
      8  CD2      185.7490   -8.2720  183.0010 C.ar  308  PHE308     -0.0042
      9  CE1      186.4170   -6.4480  181.0280 C.ar  308  PHE308     -0.0003
     10  CE2      184.8050   -7.8820  182.0680 C.ar  308  PHE308     -0.0003
     11  CZ       185.1360   -6.9640  181.0790 C.ar  308  PHE308     -0.0000
     12  N        182.7070  -13.7420  174.2590 N.3   335  ARG335     -0.1245
     13  CA       182.3970  -12.3560  173.9410 C.3   335  ARG335      0.1563
     14  C        180.9170  -12.0840  173.6520 C.2   335  ARG335      0.2260
     15  O        180.5860  -11.0200  173.1330 O.2   335  ARG335     -0.2867
     16  CB       183.2920  -11.8490  172.8140 C.3   335  ARG335      0.0307
     17  CG       184.7610  -12.0660  173.1070 C.3   335  ARG335      0.0489
     18  CD       185.6440  -11.5380  171.9830 C.3   335  ARG335      0.2205
     19  NE       185.5900  -10.0850  171.8370 N.pl3 335  ARG335     -0.0865
     20  CZ       185.9940   -9.2190  172.7620 C.cat 335  ARG335      0.5346
     21  NH1      186.4600   -9.6530  173.9180 N.pl3 335  ARG335      0.1354
     22  NH2      185.9220   -7.9130  172.5400 N.pl3 335  ARG335      0.1354
     23  N        179.0020   -8.8110  173.3800 N.3   338  GLN338     -0.1245
     24  CA       179.4640   -7.9350  172.3080 C.3   338  GLN338      0.1566
     25  C        179.1590   -8.4660  170.9060 C.2   338  GLN338      0.2260
     26  O        178.7010   -7.7350  170.0230 O.2   338  GLN338     -0.2867
     27  CB       180.9710   -7.7320  172.4770 C.3   338  GLN338      0.0367
     28  CG       181.5650   -6.5920  171.6960 C.3   338  GLN338      0.0905
     29  CD       182.9790   -6.2890  172.1550 C.2   338  GLN338      0.2608
     30  OE1      183.2820   -6.3480  173.3560 O.2   338  GLN338     -0.2717
     31  NE2      183.8580   -5.9920  171.2070 N.am  338  GLN338     -0.0878
     32  N        189.1890   -1.0020  170.8280 N.3   560  ASN560     -0.1225
     33  CA       187.8650   -1.4920  171.1640 C.3   560  ASN560      0.1785
     34  C        187.6670   -1.2360  172.6380 C.2   560  ASN560      0.2600
     35  O        187.9740   -2.0790  173.4840 O.2   560  ASN560     -0.2717
     36  CB       187.8660   -2.9990  170.9140 C.3   560  ASN560      0.1169
     37  CG       186.5070   -3.6310  171.1010 C.2   560  ASN560      0.2627
     38  OD1      186.4030   -4.8320  171.3440 O.2   560  ASN560     -0.2716
     39  ND2      185.4630   -2.8320  170.9930 N.am  560  ASN560     -0.0877
     40  N        186.9360   -0.1750  172.9280 N.am  561  MET561     -0.1920
     41  CA       186.9840    0.3870  174.2630 C.3   561  MET561      0.1952
     42  C        185.5680    0.7090  174.6810 C.2   561  MET561      0.2658
     43  O        184.6750    0.8030  173.8340 O.2   561  MET561     -0.2711
     44  CB       187.9060    1.6270  174.3170 C.2   561  MET561      0.0110
     45  CG       187.5450    2.7780  173.3740 C.2   561  MET561      0.0285
     46  SD       188.4920    4.3160  173.6270 S.3   561  MET561     -0.1125
     47  CE       190.0980    3.9120  172.9460 C.3   561  MET561      0.0742
     48  N        185.3540    0.8250  175.9860 N.am  562  ILE562     -0.1974
     49  CA       184.0510    1.2010  176.5230 C.3   562  ILE562      0.1596
     50  C        184.0170    2.7070  176.5260 C.2   562  ILE562      0.2287
     51  O        184.8790    3.3490  177.1300 O.2   562  ILE562     -0.2864
     52  CB       183.8790    0.6840  177.9730 C.3   562  ILE562      0.0276
     53  CG1      184.2370   -0.8040  178.0440 C.3   562  ILE562      0.0022
     54  CG2      182.4520    0.9800  178.4960 C.3   562  ILE562      0.0022
     55  CD1      184.2450   -1.3960  179.4510 C.3   562  ILE562      0.0001
     56  N        186.9470    3.1910  179.1900 N.3   569  GLY569     -0.1225
     57  CA       187.6550    1.9430  179.4600 C.3   569  GLY569      0.1811
     58  C        188.4320    1.3660  178.2910 C.2   569  GLY569      0.2280
     59  O        187.8440    0.7510  177.3980 O.2   569  GLY569     -0.2866
     60  N        191.2780   -1.3740  176.8710 N.3   571  PRO571     -0.2116
     61  CA       191.9710   -2.6390  177.1560 C.3   571  PRO571      0.1372
     62  C        193.4390   -2.3820  177.5150 C.2   571  PRO571      0.2244
     63  O        194.1330   -1.6470  176.8120 O.2   571  PRO571     -0.2868
     64  CB       191.9210   -3.3800  175.8110 C.3   571  PRO571      0.0268
     65  CG       190.7320   -2.8260  175.1110 C.3   571  PRO571      0.0207
     66  CD       190.5730   -1.3960  175.5730 C.3   571  PRO571      0.0892
     67  N        191.7820   -1.2780  181.4020 N.3   602  ILE602     -0.1245
     68  CA       191.0650   -2.3940  181.9940 C.3   602  ILE602      0.1561
     69  C        191.7320   -3.7010  181.6260 C.2   602  ILE602      0.2260
     70  O        191.8500   -4.0250  180.4430 O.2   602  ILE602     -0.2867
     71  CB       189.6350   -2.4660  181.4460 C.3   602  ILE602      0.0252
     72  CG1      188.9790   -1.0830  181.4710 C.3   602  ILE602      0.0019
     73  CG2      188.8390   -3.5060  182.2060 C.3   602  ILE602      0.0019
     74  CD1      188.5960   -0.6330  182.8340 C.3   602  ILE602      0.0001
     75  N        191.6570   -7.3000  181.0000 N.3   604  ASP604     -0.1239
     76  CA       190.8780   -8.5180  180.8260 C.3   604  ASP604      0.1674
     77  C        191.6780   -9.7990  180.5860 C.2   604  ASP604      0.2266
     78  O        191.0950  -10.8760  180.5010 O.2   604  ASP604     -0.2867
     79  CB       189.8430   -8.3240  179.7080 C.3   604  ASP604      0.1410
     80  CG       190.3960   -7.5590  178.5150 C.2   604  ASP604      0.3668
     81  OD1      191.5570   -7.7960  178.1240 O.co2 604  ASP604     -0.2456
     82  OD2      189.6620   -6.7100  177.9690 O.co2 604  ASP604     -0.2456
     83  N        190.4090  -12.2400  173.0900 N.3   615  VAL615     -0.1245
     84  CA       189.9100  -11.6870  174.3510 C.3   615  VAL615      0.1561
     85  C        188.6860  -12.4890  174.7770 C.2   615  VAL615      0.2260
     86  O        187.8490  -12.8590  173.9440 O.2   615  VAL615     -0.2867
     87  CB       189.5550  -10.1920  174.2240 C.3   615  VAL615      0.0252
     88  CG1      189.1320   -9.6270  175.5750 C.3   615  VAL615      0.0019
     89  CG2      190.7360   -9.4100  173.6590 C.3   615  VAL615      0.0019
     90  N        186.4560  -11.5790  177.3120 N.3   617  CYS617     -0.1221
     91  CA       185.4230  -10.7580  177.9280 C.3   617  CYS617      0.1808
     92  C        184.7260   -9.9440  176.8750 C.2   617  CYS617      0.2602
     93  O        185.2690   -9.7150  175.7980 O.2   617  CYS617     -0.2717
     94  CB       186.0470   -9.7770  178.9160 C.3   617  CYS617      0.0970
     95  SG       187.0340  -10.5610  180.1400 S.3   617  CYS617     -0.0800
     96  N        183.5450   -9.4470  177.2040 N.am  618  GLY618     -0.1942
     97  CA       182.8750   -8.5670  176.2760 C.3   618  GLY618      0.2014
     98  C        182.0590   -7.5460  177.0230 C.2   618  GLY618      0.2639
     99  O        181.6680   -7.7350  178.1840 O.2   618  GLY618     -0.2714
    100  N        181.8090   -6.4400  176.3440 N.am  619  THR619     -0.1950
    101  CA       181.0110   -5.3740  176.8980 C.3   619  THR619      0.1897
    102  C        180.1240   -4.8290  175.7880 C.2   619  THR619      0.2313
    103  O        180.4280   -4.9580  174.5890 O.2   619  THR619     -0.2863
    104  CB       181.8590   -4.2260  177.4900 C.3   619  THR619      0.1794
    105  OG1      182.4020   -3.4390  176.4280 O.3   619  THR619     -0.2208
    106  CG2      182.9950   -4.7610  178.3800 C.3   619  THR619      0.0378
@<TRIPOS>BOND
     1    26    25    2
     2    32    33    1
     3    25    24    1
     4    36    37    1
     5    36    33    1
     6    39    37   am
     7    37    38    2
     8    33    34    1
     9    31    29   am
    10    28    29    1
    11    28    27    1
    12    19    18    1
    13    19    20    2
    14    18    17    1
    15    29    30    2
    16    24    27    1
    17    24    23    1
    18    22    20    1
    19    34    40   am
    20    34    35    2
    21    20    21    1
    22    16    17    1
    23    16    13    1
    24    40    41    1
    25    47    46    1
    26    83    84    1
    27    15    14    2
    28    45    46    1
    29    45    44    2
    30    14    13    1
    31    89    87    1
    32    43    42    2
    33    13    12    1
    34    86    85    2
    35    87    84    1
    36    87    88    1
    37    41    44    1
    38    41    42    1
    39    84    85    1
    40   103   102    2
    41    42    48   am
    42    65    66    1
    43    65    64    1
    44    66    60    1
    45   102   101    1
    46    93    92    2
    47    64    61    1
    48    48    49    1
    49    97    98    1
    50    97    96    1
    51   100   101    1
    52   100    98   am
    53   105   104    1
    54    49    50    1
    55    49    52    1
    56    50    51    2
    57    63    62    2
    58    60    61    1
    59    92    96   am
    60    92    91    1
    61   101   104    1
    62    98    99    2
    63    61    62    1
    64    90    91    1
    65    59    58    2
    66   104   106    1
    67    91    94    1
    68    82    80   ar
    69    52    53    1
    70    52    54    1
    71    53    55    1
    72    81    80   ar
    73    58    57    1
    74    80    79    1
    75    94    95    1
    76    56    57    1
    77    79    76    1
    78    70    69    2
    79    78    77    2
    80    77    76    1
    81    76    75    1
    82     9    11   ar
    83     9     7   ar
    84    11    10   ar
    85    67    68    1
    86    71    72    1
    87    71    68    1
    88    71    73    1
    89    72    74    1
    90    69    68    1
    91     7     6   ar
    92    10     8   ar
    93     6     8   ar
    94     6     5    1
    95     5     2    1
    96     2     3    1
    97     2     1    1
    98     4     3    2
