@<TRIPOS>MOLECULE
tmp/4n27F00.pdb
 89 83 0 0 0
SMALL
GASTEIGER

@<TRIPOS>ATOM
      1  N        -47.0510   -6.0690 -117.9560 N.3    46  ARG46      -0.1245
      2  CA       -46.8890   -4.7910 -118.6380 C.3    46  ARG46       0.1563
      3  C        -45.8480   -4.9490 -119.7450 C.2    46  ARG46       0.2260
      4  O        -44.6500   -4.9870 -119.4840 O.2    46  ARG46      -0.2867
      5  CB       -46.5110   -3.6710 -117.6440 C.3    46  ARG46       0.0307
      6  CG       -46.3430   -2.2650 -118.2930 C.3    46  ARG46       0.0489
      7  CD       -46.8460   -1.0940 -117.3990 C.3    46  ARG46       0.2205
      8  NE       -46.0690   -0.9590 -116.1730 N.pl3  46  ARG46      -0.0865
      9  CZ       -44.9800   -0.2000 -116.0650 C.cat  46  ARG46       0.5346
     10  NH1      -44.5720    0.5250 -117.1010 N.pl3  46  ARG46       0.1354
     11  NH2      -44.3060   -0.1500 -114.9230 N.pl3  46  ARG46       0.1354
     12  N        -44.6280   -2.9250 -122.1070 N.3    48  ASP48      -0.1225
     13  CA       -44.5710   -1.5860 -122.6800 C.3    48  ASP48       0.1805
     14  C        -43.1760   -1.2390 -123.1980 C.2    48  ASP48       0.2597
     15  O        -43.0210   -0.3040 -123.9720 O.2    48  ASP48      -0.2718
     16  CB       -45.0300   -0.5290 -121.6680 C.3    48  ASP48       0.1424
     17  CG       -44.0600   -0.3360 -120.5110 C.2    48  ASP48       0.3668
     18  OD1      -43.2860   -1.2590 -120.1720 O.co2  48  ASP48      -0.2456
     19  OD2      -44.0810    0.7800 -119.9380 O.co2  48  ASP48      -0.2456
     20  N        -42.1640   -1.9780 -122.7620 N.am   49  ASN49      -0.1974
     21  CA       -40.8480   -1.8420 -123.3520 C.3    49  ASN49       0.1688
     22  C        -40.6100   -3.0410 -124.2840 C.2    49  ASN49       0.2292
     23  O        -41.2010   -3.1070 -125.3680 O.2    49  ASN49      -0.2864
     24  CB       -39.7620   -1.7270 -122.2790 C.3    49  ASN49       0.1181
     25  CG       -39.9930   -0.5410 -121.3280 C.2    49  ASN49       0.2629
     26  OD1      -40.7230    0.4050 -121.6510 O.2    49  ASN49      -0.2716
     27  ND2      -39.3240   -0.5670 -120.1760 N.am   49  ASN49      -0.0877
     28  N        -42.4280   -7.4020 -116.0820 N.3    67  HIS67      -0.1241
     29  CA       -42.0660   -6.1450 -116.7020 C.3    67  HIS67       0.1621
     30  C        -40.7290   -6.3270 -117.4240 C.2    67  HIS67       0.2264
     31  O        -40.1180   -7.3920 -117.3390 O.2    67  HIS67      -0.2867
     32  CB       -41.9880   -5.0300 -115.6440 C.3    67  HIS67       0.0745
     33  CG       -41.9630   -3.6410 -116.2180 C.ar   67  HIS67       0.0817
     34  ND1      -41.2060   -2.6220 -115.6810 N.ar   67  HIS67      -0.2268
     35  CD2      -42.6170   -3.1100 -117.2800 C.ar   67  HIS67       0.1154
     36  CE1      -41.3930   -1.5210 -116.3860 C.ar   67  HIS67       0.1986
     37  NE2      -42.2460   -1.7890 -117.3570 N.ar   67  HIS67      -0.2212
     38  N        -37.0010   -4.0650 -119.1020 N.3    69  ASP69      -0.1239
     39  CA       -36.2110   -2.8860 -119.4820 C.3    69  ASP69       0.1674
     40  C        -35.7190   -3.1190 -120.9110 C.2    69  ASP69       0.2266
     41  O        -35.4360   -4.2630 -121.2880 O.2    69  ASP69      -0.2867
     42  CB       -35.0100   -2.6540 -118.5570 C.3    69  ASP69       0.1410
     43  CG       -35.4090   -2.2330 -117.1690 C.2    69  ASP69       0.3668
     44  OD1      -36.2790   -1.3470 -117.0400 O.co2  69  ASP69      -0.2456
     45  OD2      -34.8330   -2.7750 -116.2010 O.co2  69  ASP69      -0.2456
     46  N        -38.6890   -9.8720 -114.0130 N.3    89  HIS89      -0.1241
     47  CA       -38.2350   -8.6840 -114.7090 C.3    89  HIS89       0.1621
     48  C        -37.1990   -8.9750 -115.7930 C.2    89  HIS89       0.2264
     49  O        -36.0540   -9.3350 -115.4830 O.2    89  HIS89      -0.2867
     50  CB       -37.6720   -7.7000 -113.6900 C.3    89  HIS89       0.0745
     51  CG       -37.9770   -6.2650 -114.0010 C.ar   89  HIS89       0.0817
     52  ND1      -37.0470   -5.4120 -114.5570 N.ar   89  HIS89      -0.2268
     53  CD2      -39.1310   -5.5550 -113.9120 C.ar   89  HIS89       0.1154
     54  CE1      -37.5990   -4.2270 -114.7480 C.ar   89  HIS89       0.1986
     55  NE2      -38.8690   -4.2890 -114.3780 N.ar   89  HIS89      -0.2212
     56  N        -34.4280  -10.9590 -111.6870 N.3   106  LEU106     -0.1245
     57  CA       -34.1170   -9.6480 -112.2750 C.3   106  LEU106      0.1561
     58  C        -33.5220   -9.7360 -113.6990 C.2   106  LEU106      0.2260
     59  O        -33.1900  -10.8380 -114.1720 O.2   106  LEU106     -0.2867
     60  CB       -33.1580   -8.8790 -111.3540 C.3   106  LEU106      0.0270
     61  CG       -33.7260   -8.4730 -109.9890 C.3   106  LEU106      0.0019
     62  CD1      -32.7220   -7.6550 -109.1760 C.3   106  LEU106      0.0001
     63  CD2      -35.0040   -7.6600 -110.2200 C.3   106  LEU106      0.0001
     64  N        -34.1860  -14.3010 -104.3530 N.3   122  LEU122     -0.1245
     65  CA       -33.8110  -13.1780 -105.1860 C.3   122  LEU122      0.1561
     66  C        -32.7410  -13.6130 -106.1940 C.2   122  LEU122      0.2260
     67  O        -31.5910  -13.8980 -105.8130 O.2   122  LEU122     -0.2867
     68  CB       -33.2800  -12.0320 -104.3280 C.3   122  LEU122      0.0270
     69  CG       -32.7160  -10.8550 -105.1420 C.3   122  LEU122      0.0019
     70  CD1      -33.8290  -10.1110 -105.8650 C.3   122  LEU122      0.0001
     71  CD2      -31.8790   -9.9110 -104.2950 C.3   122  LEU122      0.0001
     72  N        -30.3470  -12.4640 -108.8230 N.3   124  LYS124     -0.1231
     73  CA       -29.7210  -11.1800 -109.1550 C.3   124  LYS124      0.1693
     74  C        -29.6180  -10.9260 -110.6650 C.2   124  LYS124      0.2591
     75  O        -29.7840  -11.8390 -111.4810 O.2   124  LYS124     -0.2718
     76  CB       -28.3070  -11.1090 -108.5430 C.3   124  LYS124      0.0285
     77  CG       -27.3290  -12.1370 -109.1640 C.3   124  LYS124      0.0035
     78  CD       -25.9210  -12.1860 -108.5290 C.3   124  LYS124      0.0206
     79  CE       -24.9820  -13.1140 -109.3520 C.3   124  LYS124      0.1093
     80  NZ       -23.5170  -13.0100 -109.0480 N.3   124  LYS124     -0.1314
     81  N        -29.3320   -9.6750 -111.0190 N.am  125  GLU125     -0.1979
     82  CA       -29.2320   -9.2310 -112.4120 C.3   125  GLU125      0.1602
     83  C        -28.2490  -10.0930 -113.2400 C.2   125  GLU125      0.2287
     84  O        -27.0890  -10.2870 -112.8600 O.2   125  GLU125     -0.2864
     85  CB       -28.8020   -7.7610 -112.4310 C.3   125  GLU125      0.0415
     86  CG       -29.6560   -6.8510 -111.5260 C.3   125  GLU125      0.1163
     87  CD       -30.5210   -5.8760 -112.3060 C.2   125  GLU125      0.3649
     88  OE1      -30.2730   -5.7270 -113.5170 O.co2 125  GLU125     -0.2457
     89  OE2      -31.4460   -5.2590 -111.7200 O.co2 125  GLU125     -0.2457
@<TRIPOS>BOND
     1    23    22    2
     2    22    21    1
     3    15    14    2
     4    21    20    1
     5    21    24    1
     6    14    20   am
     7    14    13    1
     8    13    12    1
     9    13    16    1
    10    24    25    1
    11    16    17    1
    12    26    25    2
    13    25    27   am
    14    41    40    2
    15    40    39    1
    16    17    18   ar
    17    17    19   ar
    18     3     4    2
    19     3     2    1
    20    39    38    1
    21    39    42    1
    22     2     1    1
    23     2     5    1
    24    42    43    1
    25     6     5    1
    26     6     7    1
    27    30    31    2
    28    30    29    1
    29     7     8    1
    30    37    35   ar
    31    37    36   ar
    32    35    33   ar
    33    43    44   ar
    34    43    45   ar
    35    10     9    1
    36    29    28    1
    37    29    32    1
    38    36    34   ar
    39    33    34   ar
    40    33    32    1
    41     8     9    2
    42     9    11    1
    43    48    49    2
    44    48    47    1
    45    54    52   ar
    46    54    55   ar
    47    47    46    1
    48    47    50    1
    49    52    51   ar
    50    55    53   ar
    51    59    58    2
    52    51    53   ar
    53    51    50    1
    54    58    57    1
    55    88    87   ar
    56    83    84    2
    57    83    82    1
    58    85    82    1
    59    85    86    1
    60    82    81    1
    61    87    89   ar
    62    87    86    1
    63    57    56    1
    64    57    60    1
    65    75    74    2
    66    60    61    1
    67    81    74   am
    68    74    73    1
    69    63    61    1
    70    61    62    1
    71    79    80    1
    72    79    78    1
    73    77    76    1
    74    77    78    1
    75    73    72    1
    76    73    76    1
    77    66    67    2
    78    66    65    1
    79    70    69    1
    80    65    64    1
    81    65    68    1
    82    69    68    1
    83    69    71    1
