@<TRIPOS>MOLECULE
tmp/4n27B01.pdb
 102 96 0 0 0
SMALL
GASTEIGER

@<TRIPOS>ATOM
      1  N        -21.4920    3.7680  -48.3670 N.3    46  ARG46      -0.1245
      2  CA       -20.5330    4.8250  -48.0870 C.3    46  ARG46       0.1563
      3  C        -21.2140    6.1940  -47.8660 C.2    46  ARG46       0.2260
      4  O        -21.5150    6.9260  -48.8140 O.2    46  ARG46      -0.2867
      5  CB       -19.5120    4.9230  -49.2260 C.3    46  ARG46       0.0307
      6  CG       -18.5170    6.0610  -49.0550 C.3    46  ARG46       0.0489
      7  CD       -17.1370    5.7890  -49.6350 C.3    46  ARG46       0.2205
      8  NE       -17.0830    5.6390  -51.0910 N.pl3  46  ARG46      -0.0865
      9  CZ       -16.8710    6.6270  -51.9550 C.cat  46  ARG46       0.5346
     10  NH1      -16.7090    7.8670  -51.5300 N.pl3  46  ARG46       0.1354
     11  NH2      -16.8140    6.3660  -53.2540 N.pl3  46  ARG46       0.1354
     12  N        -20.3560    9.3300  -46.9820 N.3    48  ASP48      -0.1225
     13  CA       -19.2940   10.3130  -46.7940 C.3    48  ASP48       0.1805
     14  C        -19.6750   11.6910  -47.3400 C.2    48  ASP48       0.2597
     15  O        -19.0140   12.6820  -47.0480 O.2    48  ASP48      -0.2718
     16  CB       -17.9810    9.8290  -47.4320 C.3    48  ASP48       0.1424
     17  CG       -18.0800    9.6380  -48.9490 C.2    48  ASP48       0.3668
     18  OD1      -19.1810    9.3440  -49.4640 O.co2  48  ASP48      -0.2456
     19  OD2      -17.0560    9.8200  -49.6430 O.co2  48  ASP48      -0.2456
     20  N        -20.7190   11.7520  -48.1570 N.am   49  ASN49      -0.1974
     21  CA       -21.2860   13.0310  -48.5860 C.3    49  ASN49       0.1688
     22  C        -22.5890   13.3150  -47.8360 C.2    49  ASN49       0.2292
     23  O        -22.5700   13.7730  -46.6890 O.2    49  ASN49      -0.2864
     24  CB       -21.5220   13.0320  -50.0900 C.3    49  ASN49       0.1181
     25  CG       -20.2410   12.8470  -50.8740 C.2    49  ASN49       0.2629
     26  OD1      -19.1560   13.1840  -50.3940 O.2    49  ASN49      -0.2716
     27  ND2      -20.3530   12.2950  -52.0830 N.am   49  ASN49      -0.0877
     28  N        -24.2570    5.1670  -52.3650 N.3    67  HIS67      -0.1241
     29  CA       -23.3900    6.3300  -52.2560 C.3    67  HIS67       0.1621
     30  C        -24.2080    7.6120  -52.5050 C.2    67  HIS67       0.2264
     31  O        -25.4050    7.5290  -52.7910 O.2    67  HIS67      -0.2867
     32  CB       -22.2370    6.2010  -53.2390 C.3    67  HIS67       0.0745
     33  CG       -21.1920    7.2620  -53.1040 C.ar   67  HIS67       0.0817
     34  ND1      -20.5940    7.8500  -54.1990 N.ar   67  HIS67      -0.2268
     35  CD2      -20.6290    7.8370  -52.0140 C.ar   67  HIS67       0.1154
     36  CE1      -19.7160    8.7490  -53.7920 C.ar   67  HIS67       0.1986
     37  NE2      -19.7160    8.7600  -52.4690 N.ar   67  HIS67      -0.2212
     38  N        -23.9730   12.0730  -53.8750 N.3    69  ASP69      -0.1239
     39  CA       -23.3080   13.3210  -54.2440 C.3    69  ASP69       0.1674
     40  C        -23.9870   14.4160  -53.4570 C.2    69  ASP69       0.2266
     41  O        -25.1340   14.2610  -53.0450 O.2    69  ASP69      -0.2867
     42  CB       -23.3780   13.5990  -55.7430 C.3    69  ASP69       0.1410
     43  CG       -22.4530   12.7090  -56.5390 C.2    69  ASP69       0.3668
     44  OD1      -21.2760   12.5820  -56.1440 O.co2  69  ASP69      -0.2456
     45  OD2      -22.8970   12.1350  -57.5550 O.co2  69  ASP69      -0.2456
     46  N        -27.7260    5.4090  -55.9430 N.3    89  HIS89      -0.1241
     47  CA       -26.9340    6.6240  -55.8020 C.3    89  HIS89       0.1621
     48  C        -27.8590    7.8330  -55.6270 C.2    89  HIS89       0.2264
     49  O        -28.5700    8.1980  -56.5650 O.2    89  HIS89      -0.2867
     50  CB       -26.0460    6.8380  -57.0280 C.3    89  HIS89       0.0745
     51  CG       -24.6410    7.2360  -56.7000 C.ar   89  HIS89       0.0817
     52  ND1      -24.2070    8.5440  -56.6600 N.ar   89  HIS89      -0.2268
     53  CD2      -23.5560    6.4760  -56.4140 C.ar   89  HIS89       0.1154
     54  CE1      -22.9200    8.5690  -56.3500 C.ar   89  HIS89       0.1986
     55  NE2      -22.4990    7.3270  -56.2030 N.ar   89  HIS89      -0.2212
     56  N        -30.1680    6.2160  -60.1650 N.3   106  LEU106     -0.1245
     57  CA       -29.2570    7.3500  -60.1890 C.3   106  LEU106      0.1561
     58  C        -29.7750    8.5430  -59.4000 C.2   106  LEU106      0.2260
     59  O        -30.9080    8.5400  -58.9220 O.2   106  LEU106     -0.2867
     60  CB       -29.0150    7.7610  -61.6370 C.3   106  LEU106      0.0270
     61  CG       -28.3330    6.6240  -62.4020 C.3   106  LEU106      0.0019
     62  CD1      -27.9370    7.0330  -63.8180 C.3   106  LEU106      0.0001
     63  CD2      -27.1070    6.1120  -61.6050 C.3   106  LEU106      0.0001
     64  N        -32.3000    0.4350  -65.5130 N.3   122  LEU122     -0.1245
     65  CA       -31.6090    1.6820  -65.1990 C.3   122  LEU122      0.1561
     66  C        -32.5880    2.8660  -65.0430 C.2   122  LEU122      0.2260
     67  O        -33.1800    3.3130  -66.0220 O.2   122  LEU122     -0.2867
     68  CB       -30.5760    2.0020  -66.2780 C.3   122  LEU122      0.0270
     69  CG       -29.8740    3.3570  -66.1910 C.3   122  LEU122      0.0019
     70  CD1      -29.0180    3.3960  -64.9670 C.3   122  LEU122      0.0001
     71  CD2      -29.0200    3.5800  -67.4150 C.3   122  LEU122      0.0001
     72  N        -32.9240    6.5460  -64.6670 N.3   124  LYS124     -0.1231
     73  CA       -32.0240    7.6670  -64.8730 C.3   124  LYS124      0.1693
     74  C        -32.2870    8.8040  -63.8880 C.2   124  LYS124      0.2591
     75  O        -33.3030    8.8310  -63.1930 O.2   124  LYS124     -0.2718
     76  CB       -32.1120    8.1580  -66.3260 C.3   124  LYS124      0.0285
     77  CG       -33.4480    8.7420  -66.7530 C.3   124  LYS124      0.0035
     78  CD       -33.4710    9.0630  -68.2620 C.3   124  LYS124      0.0206
     79  CE       -34.7270    9.8320  -68.6900 C.3   124  LYS124      0.1093
     80  NZ       -34.5870   10.4180  -70.0590 N.3   124  LYS124     -0.1314
     81  N        -31.3440    9.7370  -63.8380 N.am  125  GLU125     -0.1979
     82  CA       -31.3800   10.8620  -62.9110 C.3   125  GLU125      0.1602
     83  C        -32.6860   11.6550  -62.9440 C.2   125  GLU125      0.2287
     84  O        -33.1770   12.0390  -64.0000 O.2   125  GLU125     -0.2864
     85  CB       -30.1990   11.7790  -63.1970 C.3   125  GLU125      0.0415
     86  CG       -28.8820   11.0330  -63.1560 C.3   125  GLU125      0.1163
     87  CD       -27.6780   11.9400  -63.0530 C.2   125  GLU125      0.3649
     88  OE1      -27.8260   13.1580  -63.2970 O.co2 125  GLU125     -0.2457
     89  OE2      -26.5790   11.4290  -62.7370 O.co2 125  GLU125     -0.2457
     90  N        -33.8580   -0.7300  -70.0370 N.3   138  SER138     -0.1203
     91  CA       -32.7630    0.2250  -69.9860 C.3   138  SER138      0.2005
     92  C        -32.7190    0.9290  -71.3470 C.2   138  SER138      0.2460
     93  O        -32.2250    0.3690  -72.3210 O.2   138  SER138     -0.2732
     94  CB       -31.4410   -0.4850  -69.6550 C.3   138  SER138      0.2103
     95  OG       -30.4030    0.4320  -69.3300 O.3   138  SER138     -0.2182
     96  N        -33.2940    2.1360  -71.4390 N.am  139  PRO139     -0.2728
     97  CA       -33.8810    2.9900  -70.3930 C.3   139  PRO139      0.1401
     98  C        -35.1910    2.4610  -69.8070 C.2   139  PRO139      0.2269
     99  O        -35.9660    1.7910  -70.4830 O.2   139  PRO139     -0.2865
    100  CB       -34.1380    4.3040  -71.1300 C.3   139  PRO139      0.0296
    101  CG       -34.4520    3.8660  -72.5150 C.3   139  PRO139      0.0237
    102  CD       -33.5540    2.6760  -72.7850 C.3   139  PRO139      0.0939
@<TRIPOS>BOND
     1   102   101    1
     2   102    96    1
     3   101   100    1
     4    93    92    2
     5    96    92   am
     6    96    97    1
     7    92    91    1
     8   100    97    1
     9    99    98    2
    10    97    98    1
    11    80    79    1
    12    90    91    1
    13    91    94    1
    14    94    95    1
    15    79    78    1
    16    78    77    1
    17    71    69    1
    18    77    76    1
    19    76    73    1
    20    68    69    1
    21    68    65    1
    22    69    70    1
    23    67    66    2
    24    64    65    1
    25    65    66    1
    26    73    72    1
    27    73    74    1
    28    84    83    2
    29    74    81   am
    30    74    75    2
    31    81    82    1
    32    62    61    1
    33    88    87   ar
    34    85    86    1
    35    85    82    1
    36    86    87    1
    37    87    89   ar
    38    83    82    1
    39    61    60    1
    40    61    63    1
    41    60    57    1
    42    57    56    1
    43    57    58    1
    44    58    59    2
    45    45    43   ar
    46    50    51    1
    47    50    47    1
    48    51    52   ar
    49    51    53   ar
    50    52    54   ar
    51    49    48    2
    52    43    44   ar
    53    43    42    1
    54    53    55   ar
    55    54    55   ar
    56    46    47    1
    57    47    48    1
    58    42    39    1
    59    39    38    1
    60    39    40    1
    61    34    36   ar
    62    34    33   ar
    63    36    37   ar
    64    40    41    2
    65    11     9    1
    66    32    33    1
    67    32    29    1
    68    33    35   ar
    69    31    30    2
    70    30    29    1
    71    37    35   ar
    72    28    29    1
    73    27    25   am
    74     9    10    1
    75     9     8    2
    76     8     7    1
    77    25    26    2
    78    25    24    1
    79    24    21    1
    80    19    17   ar
    81     7     6    1
    82    18    17   ar
    83     5     6    1
    84     5     2    1
    85    17    16    1
    86     4     3    2
    87    21    20    1
    88    21    22    1
    89     1     2    1
    90    20    14   am
    91     2     3    1
    92    22    23    2
    93    16    13    1
    94    14    15    2
    95    14    13    1
    96    12    13    1
