@<TRIPOS>MOLECULE
tmp/4n27E00.pdb
 89 83 0 0 0
SMALL
GASTEIGER

@<TRIPOS>ATOM
      1  N        -58.0390  -17.9750 -101.9030 N.3    46  ARG46      -0.1245
      2  CA       -58.5250  -18.9900 -102.8450 C.3    46  ARG46       0.1563
      3  C        -58.7520  -20.3690 -102.1910 C.2    46  ARG46       0.2260
      4  O        -57.8510  -21.1950 -102.0890 O.2    46  ARG46      -0.2867
      5  CB       -57.5600  -19.0960 -104.0490 C.3    46  ARG46       0.0307
      6  CG       -57.9160  -20.1850 -105.0690 C.3    46  ARG46       0.0489
      7  CD       -57.5960  -19.8020 -106.5400 C.3    46  ARG46       0.2205
      8  NE       -56.1860  -19.5120 -106.8190 N.pl3  46  ARG46      -0.0865
      9  CZ       -55.2710  -20.4260 -107.1370 C.cat  46  ARG46       0.5346
     10  NH1      -55.5990  -21.7120 -107.1670 N.pl3  46  ARG46       0.1354
     11  NH2      -54.0140  -20.0610 -107.3900 N.pl3  46  ARG46       0.1354
     12  N        -59.8310  -23.3630 -103.0090 N.3    48  ASP48      -0.1225
     13  CA       -60.1780  -24.3050 -104.0710 C.3    48  ASP48       0.1805
     14  C        -59.6490  -25.7120 -103.7930 C.2    48  ASP48       0.2597
     15  O        -60.1420  -26.6780 -104.3570 O.2    48  ASP48      -0.2718
     16  CB       -59.6770  -23.8100 -105.4520 C.3    48  ASP48       0.1424
     17  CG       -58.1510  -23.6250 -105.5220 C.2    48  ASP48       0.3668
     18  OD1      -57.5380  -23.2910 -104.4940 O.co2  48  ASP48      -0.2456
     19  OD2      -57.5560  -23.8540 -106.6040 O.co2  48  ASP48      -0.2456
     20  N        -58.6660  -25.8300 -102.9120 N.am   49  ASN49      -0.1974
     21  CA       -58.1900  -27.1370 -102.4700 C.3    49  ASN49       0.1688
     22  C        -58.6990  -27.5030 -101.0680 C.2    49  ASN49       0.2292
     23  O        -59.8310  -27.9800 -100.9240 O.2    49  ASN49      -0.2864
     24  CB       -56.6720  -27.1770 -102.5510 C.3    49  ASN49       0.1181
     25  CG       -56.1880  -27.0890 -103.9700 C.2    49  ASN49       0.2629
     26  OD1      -56.9020  -27.4960 -104.8830 O.2    49  ASN49      -0.2716
     27  ND2      -54.9970  -26.5340 -104.1800 N.am   49  ASN49      -0.0877
     28  N        -53.7750  -19.4510  -99.8600 N.3    67  HIS67      -0.1241
     29  CA       -54.0140  -20.6010 -100.7200 C.3    67  HIS67       0.1621
     30  C        -53.5960  -21.8810  -99.9850 C.2    67  HIS67       0.2264
     31  O        -53.0200  -21.8360  -98.8990 O.2    67  HIS67      -0.2867
     32  CB       -53.2390  -20.4770 -102.0410 C.3    67  HIS67       0.0745
     33  CG       -53.5990  -21.5200 -103.0600 C.ar   67  HIS67       0.0817
     34  ND1      -52.6510  -22.1670 -103.8290 N.ar   67  HIS67      -0.2268
     35  CD2      -54.7970  -22.0280 -103.4360 C.ar   67  HIS67       0.1154
     36  CE1      -53.2470  -23.0460 -104.6150 C.ar   67  HIS67       0.1986
     37  NE2      -54.5510  -22.9770 -104.4010 N.ar   67  HIS67      -0.2212
     38  N        -52.3850  -26.3040 -100.6830 N.3    69  ASP69      -0.1239
     39  CA       -52.1670  -27.5050 -101.4660 C.3    69  ASP69       0.1674
     40  C        -52.8790  -28.6000 -100.6810 C.2    69  ASP69       0.2266
     41  O        -53.0600  -28.4530  -99.4790 O.2    69  ASP69      -0.2867
     42  CB       -50.6800  -27.8050 -101.6410 C.3    69  ASP69       0.1410
     43  CG       -49.9970  -26.8590 -102.6140 C.2    69  ASP69       0.3668
     44  OD1      -50.5300  -26.6570 -103.7280 O.co2  69  ASP69      -0.2456
     45  OD2      -48.9260  -26.3200 -102.2590 O.co2  69  ASP69      -0.2456
     46  N        -49.7730  -19.9590  -96.8820 N.3    89  HIS89      -0.1241
     47  CA       -50.0400  -21.1520  -97.6870 C.3    89  HIS89       0.1621
     48  C        -50.1270  -22.3550  -96.7760 C.2    89  HIS89       0.2264
     49  O        -49.1330  -22.6950  -96.1420 O.2    89  HIS89      -0.2867
     50  CB       -48.9290  -21.3720  -98.7470 C.3    89  HIS89       0.0745
     51  CG       -49.4440  -21.7540 -100.1000 C.ar   89  HIS89       0.0817
     52  ND1      -49.4540  -23.0390 -100.5990 N.ar   89  HIS89      -0.2268
     53  CD2      -50.0290  -20.9820 -101.0550 C.ar   89  HIS89       0.1154
     54  CE1      -49.9770  -23.0350 -101.8180 C.ar   89  HIS89       0.1986
     55  NE2      -50.3420  -21.8020 -102.1090 N.ar   89  HIS89      -0.2212
     56  N        -45.2030  -20.9660  -95.1390 N.3   106  LEU106     -0.1245
     57  CA       -45.3910  -22.0730  -96.0890 C.3   106  LEU106      0.1561
     58  C        -46.1430  -23.2590  -95.5260 C.2   106  LEU106      0.2260
     59  O        -46.4760  -23.2780  -94.3410 O.2   106  LEU106     -0.2867
     60  CB       -44.0400  -22.5500  -96.6040 C.3   106  LEU106      0.0270
     61  CG       -43.3360  -21.3980  -97.3220 C.3   106  LEU106      0.0019
     62  CD1      -42.0340  -21.8340  -98.0060 C.3   106  LEU106      0.0001
     63  CD2      -44.3040  -20.7270  -98.2820 C.3   106  LEU106      0.0001
     64  N        -39.4670  -15.3560  -93.8160 N.3   122  LEU122     -0.1245
     65  CA       -39.9250  -16.5610  -94.4870 C.3   122  LEU122      0.1561
     66  C        -39.9510  -17.7880  -93.5520 C.2   122  LEU122      0.2260
     67  O        -38.8980  -18.2970  -93.1450 O.2   122  LEU122     -0.2867
     68  CB       -39.0190  -16.8230  -95.6710 C.3   122  LEU122      0.0270
     69  CG       -39.1790  -18.0990  -96.4820 C.3   122  LEU122      0.0019
     70  CD1      -40.4960  -18.1270  -97.2460 C.3   122  LEU122      0.0001
     71  CD2      -38.0050  -18.1470  -97.4250 C.3   122  LEU122      0.0001
     72  N        -40.3770  -21.4470  -93.2300 N.3   124  LYS124     -0.1231
     73  CA       -40.3000  -22.5600  -94.1630 C.3   124  LYS124      0.1693
     74  C        -41.2830  -23.6730  -93.8200 C.2   124  LYS124      0.2591
     75  O        -41.8400  -23.7310  -92.7100 O.2   124  LYS124     -0.2718
     76  CB       -38.8660  -23.1080  -94.2040 C.3   124  LYS124      0.0285
     77  CG       -38.4080  -23.6730  -92.8570 C.3   124  LYS124      0.0035
     78  CD       -36.9320  -24.0780  -92.8230 C.3   124  LYS124      0.0206
     79  CE       -36.5930  -24.7270  -91.4890 C.3   124  LYS124      0.1093
     80  NZ       -35.2520  -25.3610  -91.5080 N.3   124  LYS124     -0.1314
     81  N        -41.4670  -24.5770  -94.7780 N.am  125  GLU125     -0.1979
     82  CA       -42.3980  -25.6910  -94.6430 C.3   125  GLU125      0.1602
     83  C        -42.1810  -26.4460  -93.3440 C.2   125  GLU125      0.2287
     84  O        -41.0510  -26.7780  -92.9920 O.2   125  GLU125     -0.2864
     85  CB       -42.2720  -26.6610  -95.8280 C.3   125  GLU125      0.0415
     86  CG       -42.5260  -26.0850  -97.2280 C.3   125  GLU125      0.1163
     87  CD       -41.2860  -25.4630  -97.8810 C.2   125  GLU125      0.3649
     88  OE1      -40.3320  -25.0550  -97.1640 O.co2 125  GLU125     -0.2457
     89  OE2      -41.2700  -25.3940  -99.1320 O.co2 125  GLU125     -0.2457
@<TRIPOS>BOND
     1    11     9    1
     2    10     9    1
     3     9     8    2
     4     8     7    1
     5    19    17   ar
     6     7     6    1
     7    17    16    1
     8    17    18   ar
     9    16    13    1
    10     6     5    1
    11    26    25    2
    12    36    37   ar
    13    36    34   ar
    14    37    35   ar
    15    15    14    2
    16    27    25   am
    17    13    14    1
    18    13    12    1
    19     5     2    1
    20    25    24    1
    21    34    33   ar
    22    14    20   am
    23    44    43   ar
    24    35    33   ar
    25    33    32    1
    26    20    21    1
    27     2     3    1
    28     2     1    1
    29    43    45   ar
    30    43    42    1
    31    24    21    1
    32    21    22    1
    33     3     4    2
    34    55    54   ar
    35    55    53   ar
    36    32    29    1
    37    54    52   ar
    38    42    39    1
    39    39    38    1
    40    39    40    1
    41    22    23    2
    42    53    51   ar
    43    29    30    1
    44    29    28    1
    45    40    41    2
    46    52    51   ar
    47    51    50    1
    48    30    31    2
    49    89    87   ar
    50    50    47    1
    51    63    61    1
    52    62    61    1
    53    87    86    1
    54    87    88   ar
    55    47    46    1
    56    47    48    1
    57    71    69    1
    58    61    60    1
    59    70    69    1
    60    86    85    1
    61    48    49    2
    62    60    57    1
    63    69    68    1
    64    57    58    1
    65    57    56    1
    66    85    82    1
    67    68    65    1
    68    58    59    2
    69    81    82    1
    70    81    74   am
    71    82    83    1
    72    65    64    1
    73    65    66    1
    74    76    73    1
    75    76    77    1
    76    73    74    1
    77    73    72    1
    78    74    75    2
    79    66    67    2
    80    83    84    2
    81    77    78    1
    82    78    79    1
    83    80    79    1
