@<TRIPOS>MOLECULE
tmp/4n27C01.pdb
 150 142 0 0 0
SMALL
GASTEIGER

@<TRIPOS>ATOM
      1  N        -10.9840    1.7500  -54.0600 N.3    40  TRP40      -0.1241
      2  CA       -11.9580    1.7060  -53.0010 C.3    40  TRP40       0.1605
      3  C        -12.4300    0.3020  -52.6870 C.2    40  TRP40       0.2264
      4  O        -11.8920   -0.6750  -53.1970 O.2    40  TRP40      -0.2867
      5  CB       -13.1130    2.6120  -53.3630 C.3    40  TRP40       0.0550
      6  CG       -12.6640    4.0460  -53.4320 C.ar   40  TRP40       0.0003
      7  CD1      -12.0290    4.6500  -54.4620 C.ar   40  TRP40       0.0946
      8  CD2      -12.7860    5.0350  -52.3990 C.ar   40  TRP40       0.0152
      9  NE1      -11.7560    5.9610  -54.1510 N.ar   40  TRP40      -0.2442
     10  CE2      -12.2090    6.2230  -52.8880 C.ar   40  TRP40       0.0810
     11  CE3      -13.3470    5.0360  -51.1120 C.ar   40  TRP40       0.0012
     12  CZ2      -12.1700    7.4050  -52.1420 C.ar   40  TRP40       0.0191
     13  CZ3      -13.3060    6.2140  -50.3680 C.ar   40  TRP40       0.0001
     14  CH2      -12.7170    7.3800  -50.8880 C.ar   40  TRP40       0.0015
     15  N        -13.4280    3.1100  -58.2340 N.3    61  GLN61      -0.1245
     16  CA       -14.4410    3.0660  -57.1860 C.3    61  GLN61       0.1566
     17  C        -14.8860    1.6620  -56.7910 C.2    61  GLN61       0.2260
     18  O        -14.3850    0.6770  -57.3210 O.2    61  GLN61      -0.2867
     19  CB       -15.6250    3.9090  -57.6140 C.3    61  GLN61       0.0367
     20  CG       -15.2440    5.3850  -57.7330 C.3    61  GLN61       0.0905
     21  CD       -16.3480    6.2360  -58.3100 C.2    61  GLN61       0.2608
     22  OE1      -17.5400    5.9770  -58.0860 O.2    61  GLN61      -0.2717
     23  NE2      -15.9640    7.2520  -59.0790 N.am   61  GLN61      -0.0878
     24  N        -11.9910    8.7310  -63.8350 N.3    81  THR81      -0.1218
     25  CA       -12.9480    8.3180  -62.8330 C.3    81  THR81       0.1862
     26  C        -13.6390    7.0610  -63.3110 C.2    81  THR81       0.2287
     27  O        -14.2740    7.0550  -64.3600 O.2    81  THR81      -0.2866
     28  CB       -13.9660    9.4250  -62.5250 C.3    81  THR81       0.1770
     29  OG1      -13.3380   10.3800  -61.6700 O.3    81  THR81      -0.2211
     30  CG2      -15.1590    8.8690  -61.7960 C.3    81  THR81       0.0375
     31  N        -16.4450    4.6020  -62.3300 N.3    83  GLY83      -0.1210
     32  CA       -17.5900    4.5570  -61.4330 C.3    83  GLY83       0.1956
     33  C        -17.8020    3.2650  -60.6550 C.2    83  GLY83       0.2611
     34  O        -17.2970    2.2000  -61.0450 O.2    83  GLY83      -0.2717
     35  N        -18.5990    3.3540  -59.5870 N.am   84  HIS84      -0.1975
     36  CA       -18.9280    2.2080  -58.7530 C.3    84  HIS84       0.1656
     37  C        -19.2180    1.0240  -59.6690 C.2    84  HIS84       0.2291
     38  O        -20.0160    1.1450  -60.6090 O.2    84  HIS84      -0.2864
     39  CB       -20.1530    2.4960  -57.8590 C.3    84  HIS84       0.0771
     40  CG       -20.0890    3.7950  -57.1020 C.ar   84  HIS84       0.0820
     41  ND1      -19.4040    3.9450  -55.9130 N.ar   84  HIS84      -0.2267
     42  CD2      -20.6480    5.0030  -57.3670 C.ar   84  HIS84       0.1154
     43  CE1      -19.5300    5.1940  -55.4900 C.ar   84  HIS84       0.1986
     44  NE2      -20.2910    5.8560  -56.3470 N.ar   84  HIS84      -0.2212
     45  N        -14.3420    9.6270  -67.7350 N.3    98  LEU98      -0.1245
     46  CA       -15.2100    9.0130  -66.7300 C.3    98  LEU98       0.1561
     47  C        -15.8990    7.7780  -67.2920 C.2    98  LEU98       0.2260
     48  O        -16.4690    7.8400  -68.3830 O.2    98  LEU98      -0.2867
     49  CB       -16.2570   10.0090  -66.2370 C.3    98  LEU98       0.0270
     50  CG       -17.2120    9.5330  -65.1370 C.3    98  LEU98       0.0019
     51  CD1      -17.4090   10.6390  -64.1740 C.3    98  LEU98       0.0001
     52  CD2      -18.5750    9.0840  -65.6750 C.3    98  LEU98       0.0001
     53  N        -18.9230    5.5250  -66.2680 N.3   100  GLY100     -0.1210
     54  CA       -20.0710    5.5290  -65.3740 C.3   100  GLY100      0.1956
     55  C        -20.2930    4.2470  -64.5980 C.2   100  GLY100      0.2611
     56  O        -19.9220    3.1580  -65.0480 O.2   100  GLY100     -0.2717
     57  N        -20.9550    4.3580  -63.4540 N.am  101  MET101     -0.1979
     58  CA       -21.1430    3.2010  -62.5920 C.3   101  MET101      0.1605
     59  C        -21.8320    2.0570  -63.3330 C.2   101  MET101      0.2287
     60  O        -22.6800    2.2810  -64.2250 O.2   101  MET101     -0.2864
     61  CB       -21.9170    3.5880  -61.3320 C.3   101  MET101      0.0413
     62  CG       -23.3200    4.1080  -61.5660 C.3   101  MET101      0.0598
     63  SD       -23.9840    4.8580  -60.0580 S.3   101  MET101     -0.1393
     64  CE       -23.4380    6.5350  -60.3070 C.3   101  MET101      0.0692
     65  N        -17.0480   10.8800  -71.4940 N.3   116  LEU116     -0.1245
     66  CA       -17.9830   10.4280  -70.4810 C.3   116  LEU116      0.1561
     67  C        -18.7210    9.1970  -71.0150 C.2   116  LEU116      0.2260
     68  O        -19.4820    9.3030  -71.9750 O.2   116  LEU116     -0.2867
     69  CB       -18.9800   11.5210  -70.1240 C.3   116  LEU116      0.0270
     70  CG       -19.6720   11.4520  -68.7570 C.3   116  LEU116      0.0019
     71  CD1      -20.4010   12.7620  -68.5360 C.3   116  LEU116      0.0001
     72  CD2      -20.6080   10.2770  -68.6000 C.3   116  LEU116      0.0001
     73  N        -21.6440    6.8700  -70.1670 N.3   118  GLY118     -0.1210
     74  CA       -22.7470    6.9380  -69.2210 C.3   118  GLY118      0.1956
     75  C        -22.9420    5.6460  -68.4510 C.2   118  GLY118      0.2612
     76  O        -22.5520    4.5760  -68.9290 O.2   118  GLY118     -0.2717
     77  N        -23.5790    5.7300  -67.2860 N.am  119  ALA119     -0.1965
     78  CA       -23.8170    4.5540  -66.4590 C.3   119  ALA119      0.1728
     79  C        -24.5060    3.4340  -67.2390 C.2   119  ALA119      0.2617
     80  O        -25.3880    3.7000  -68.0600 O.2   119  ALA119     -0.2715
     81  CB       -24.6530    4.9220  -65.2600 C.3   119  ALA119      0.0334
     82  N        -24.0960    2.1930  -66.9730 N.am  120  GLY120     -0.1940
     83  CA       -24.7140    1.0160  -67.5600 C.3   120  GLY120      0.2014
     84  C        -24.4170    0.7750  -69.0250 C.2   120  GLY120      0.2639
     85  O        -24.9550   -0.1590  -69.6150 O.2   120  GLY120     -0.2714
     86  N        -23.5380    1.5750  -69.6150 N.am  121  THR121     -0.1950
     87  CA       -23.2430    1.4450  -71.0360 C.3   121  THR121      0.1897
     88  C        -22.3370    0.2640  -71.2560 C.2   121  THR121      0.2313
     89  O        -21.4890   -0.0270  -70.4100 O.2   121  THR121     -0.2863
     90  CB       -22.5550    2.7060  -71.6080 C.3   121  THR121      0.1794
     91  OG1      -23.4390    3.8250  -71.5250 O.3   121  THR121     -0.2208
     92  CG2      -22.2270    2.5220  -73.0390 C.3   121  THR121      0.0378
     93  N        -19.6260   11.9500  -75.4560 N.3   134  LEU134     -0.1245
     94  CA       -20.5540   11.4750  -74.4410 C.3   134  LEU134      0.1561
     95  C        -21.1890   10.2140  -75.0330 C.2   134  LEU134      0.2260
     96  O        -21.7680   10.2660  -76.1220 O.2   134  LEU134     -0.2867
     97  CB       -21.6100   12.5320  -74.0930 C.3   134  LEU134      0.0270
     98  CG       -22.7470   12.0270  -73.1980 C.3   134  LEU134      0.0019
     99  CD1      -22.2660   11.8660  -71.7530 C.3   134  LEU134      0.0001
    100  CD2      -23.9720   12.9240  -73.2410 C.3   134  LEU134      0.0001
    101  N        -23.6620    6.8080  -74.5060 N.3   136  VAL136     -0.1231
    102  CA       -24.7040    6.1130  -73.7480 C.3   136  VAL136      0.1692
    103  C        -25.3580    5.0140  -74.5900 C.2   136  VAL136      0.2592
    104  O        -25.2520    5.0180  -75.8170 O.2   136  VAL136     -0.2718
    105  CB       -25.7940    7.0730  -73.2570 C.3   136  VAL136      0.0266
    106  CG1      -25.1890    8.2230  -72.4440 C.3   136  VAL136      0.0020
    107  CG2      -26.5700    7.6140  -74.4410 C.3   136  VAL136      0.0020
    108  N        -26.0220    4.0750  -73.9150 N.am  137  GLY137     -0.1957
    109  CA       -26.8260    3.0520  -74.5690 C.3   137  GLY137      0.1869
    110  C        -26.3250    1.6150  -74.5250 C.2   137  GLY137      0.2309
    111  O        -25.2310    1.3020  -74.0420 O.2   137  GLY137     -0.2863
    112  N        -13.7650   16.0840  -60.9650 N.3   157  SER157     -0.1217
    113  CA       -14.0210   14.7580  -60.3800 C.3   157  SER157      0.1889
    114  C        -12.7460   14.0900  -59.8790 C.2   157  SER157      0.2288
    115  O        -12.6900   13.6240  -58.7330 O.2   157  SER157     -0.2866
    116  CB       -14.6980   13.8280  -61.3890 C.3   157  SER157      0.2089
    117  OG       -14.9090   12.5510  -60.8160 O.3   157  SER157     -0.2183
    118  N        -11.2940   15.8750  -56.6710 N.3   160  HIS160     -0.1226
    119  CA       -12.0130   15.6980  -55.4060 C.3   160  HIS160      0.1752
    120  C        -11.7370   14.3150  -54.8760 C.2   160  HIS160      0.2596
    121  O        -11.5910   14.1350  -53.6680 O.2   160  HIS160     -0.2718
    122  CB       -13.5200   15.9160  -55.5720 C.3   160  HIS160      0.0759
    123  CG       -13.8940   17.3430  -55.8460 C.ar  160  HIS160      0.0818
    124  ND1      -13.6970   18.3550  -54.9290 N.ar  160  HIS160     -0.2268
    125  CD2      -14.4350   17.9330  -56.9420 C.ar  160  HIS160      0.1154
    126  CE1      -14.1060   19.5020  -55.4440 C.ar  160  HIS160      0.1986
    127  NE2      -14.5580   19.2740  -56.6650 N.ar  160  HIS160     -0.2212
    128  N        -11.6430   13.3470  -55.7970 N.am  161  TYR161     -0.1976
    129  CA       -11.4100   11.9580  -55.4170 C.3   161  TYR161      0.1639
    130  C        -10.0030   11.6960  -54.9030 C.2   161  TYR161      0.2290
    131  O         -9.8250   10.9030  -53.9710 O.2   161  TYR161     -0.2864
    132  CB       -11.7190   11.0040  -56.5670 C.3   161  TYR161      0.0560
    133  CG       -12.9900   10.2580  -56.2710 C.ar  161  TYR161     -0.0198
    134  CD1      -14.1620   10.5120  -56.9720 C.ar  161  TYR161     -0.0009
    135  CD2      -13.0090    9.2820  -55.2770 C.ar  161  TYR161     -0.0009
    136  CE1      -15.3380    9.8270  -56.6640 C.ar  161  TYR161      0.0417
    137  CE2      -14.1740    8.6000  -54.9600 C.ar  161  TYR161      0.0417
    138  CZ       -15.3350    8.8690  -55.6590 C.ar  161  TYR161      0.1957
    139  OH       -16.4820    8.1690  -55.3480 O.3   161  TYR161     -0.2866
    140  N        -10.2970   13.0330  -51.4220 N.3   164  ARG164     -0.1245
    141  CA       -11.1340   12.1240  -50.6330 C.3   164  ARG164      0.1563
    142  C        -10.3730   10.8530  -50.2670 C.2   164  ARG164      0.2260
    143  O        -10.5230   10.3180  -49.1560 O.2   164  ARG164     -0.2867
    144  CB       -12.4190   11.7760  -51.3810 C.3   164  ARG164      0.0307
    145  CG       -13.3980   10.9230  -50.5770 C.3   164  ARG164      0.0489
    146  CD       -13.7640   11.6020  -49.2600 C.3   164  ARG164      0.2205
    147  NE       -14.2140   12.9790  -49.4540 N.pl3 164  ARG164     -0.0865
    148  CZ       -15.4860   13.3360  -49.5640 C.cat 164  ARG164      0.5346
    149  NH1      -16.4320   12.4110  -49.5210 N.pl3 164  ARG164      0.1354
    150  NH2      -15.8150   14.6100  -49.7410 N.pl3 164  ARG164      0.1354
@<TRIPOS>BOND
     1    96    95    2
     2   104   103    2
     3    93    94    1
     4    95    94    1
     5   103   108   am
     6   103   102    1
     7   109   110    1
     8   109   108    1
     9   110   111    2
    10   101   102    1
    11    94    97    1
    12   107   105    1
    13    97    98    1
    14   102   105    1
    15   105   106    1
    16   100    98    1
    17    98    99    1
    18    92    90    1
    19    68    67    2
    20    90    91    1
    21    90    87    1
    22    65    66    1
    23    88    87    1
    24    88    89    2
    25    87    86    1
    26    67    66    1
    27    66    69    1
    28    73    74    1
    29    69    70    1
    30    85    84    2
    31    86    84   am
    32    74    75    1
    33    84    83    1
    34    76    75    2
    35    70    72    1
    36    70    71    1
    37    75    77   am
    38    48    47    2
    39    80    79    2
    40    45    46    1
    41    83    82    1
    42    47    46    1
    43    77    78    1
    44    79    82   am
    45    79    78    1
    46    46    49    1
    47    78    81    1
    48    53    54    1
    49    49    50    1
    50    52    50    1
    51    54    55    1
    52    50    51    1
    53    56    55    2
    54    55    57   am
    55    27    26    2
    56    60    59    2
    57    24    25    1
    58    57    58    1
    59    59    58    1
    60    26    25    1
    61    25    28    1
    62    58    61    1
    63    28    30    1
    64    28    29    1
    65    31    32    1
    66    62    61    1
    67    62    63    1
    68    32    33    1
    69   116   117    1
    70   116   113    1
    71    34    33    2
    72   112   113    1
    73    33    35   am
    74    38    37    2
    75   113   114    1
    76    64    63    1
    77   114   115    2
    78    37    36    1
    79    35    36    1
    80    23    21   am
    81    36    39    1
    82    21    22    2
    83    21    20    1
    84    15    16    1
    85    39    40    1
    86    20    19    1
    87    19    16    1
    88    42    40   ar
    89    42    44   ar
    90    18    17    2
    91    16    17    1
    92    40    41   ar
    93   134   136   ar
    94   134   133   ar
    95   125   127   ar
    96   125   123   ar
    97   118   119    1
    98   127   126   ar
    99   136   138   ar
   100   132   133    1
   101   132   129    1
   102    44    43   ar
   103   133   135   ar
   104    41    43   ar
   105   123   122    1
   106   123   124   ar
   107   128   129    1
   108   128   120   am
   109   138   139    1
   110   138   137   ar
   111   122   119    1
   112   126   124   ar
   113   129   130    1
   114   119   120    1
   115   135   137   ar
   116   130   131    2
   117   120   121    2
   118     7     9   ar
   119     7     6   ar
   120     9    10   ar
   121     1     2    1
   122     6     5    1
   123     6     8   ar
   124     5     2    1
   125     4     3    2
   126     2     3    1
   127    10     8   ar
   128    10    12   ar
   129     8    11   ar
   130    12    14   ar
   131   140   141    1
   132   144   141    1
   133   144   145    1
   134    11    13   ar
   135    14    13   ar
   136   141   142    1
   137   145   146    1
   138   142   143    2
   139   150   148    1
   140   148   149    1
   141   148   147    2
   142   147   146    1
