@<TRIPOS>MOLECULE
tmp/4n27D00.pdb
 121 112 0 0 0
SMALL
GASTEIGER

@<TRIPOS>ATOM
      1  N        -44.6990    2.4420 -108.7870 N.3    61  GLN61      -0.1245
      2  CA       -45.0130    1.3110 -109.6820 C.3    61  GLN61       0.1566
      3  C        -46.0190    0.2520 -109.1710 C.2    61  GLN61       0.2260
      4  O        -46.6210    0.3990 -108.0950 O.2    61  GLN61      -0.2867
      5  CB       -43.7070    0.6360 -110.0820 C.3    61  GLN61       0.0367
      6  CG       -42.8290    1.5800 -110.9130 C.3    61  GLN61       0.0905
      7  CD       -41.4500    1.0350 -111.1880 C.2    61  GLN61       0.2608
      8  OE1      -41.2750   -0.1710 -111.3440 O.2    61  GLN61      -0.2717
      9  NE2      -40.4510    1.9210 -111.2220 N.am   61  GLN61      -0.0878
     10  N        -37.9240    6.8190 -107.6140 N.3    81  THR81      -0.1218
     11  CA       -38.4600    5.6870 -108.3450 C.3    81  THR81       0.1862
     12  C        -38.8390    4.6410 -107.3370 C.2    81  THR81       0.2287
     13  O        -37.9760    4.0880 -106.6500 O.2    81  THR81      -0.2866
     14  CB       -37.4520    5.1250 -109.3740 C.3    81  THR81       0.1770
     15  OG1      -37.3960    6.0000 -110.5130 O.3    81  THR81      -0.2211
     16  CG2      -37.8840    3.7520 -109.8460 C.3    81  THR81       0.0375
     17  N        -39.9420    1.1150 -106.8890 N.3    83  GLY83      -0.1210
     18  CA       -39.9460   -0.1140 -107.6670 C.3    83  GLY83       0.1956
     19  C        -41.2200   -0.9240 -107.5590 C.2    83  GLY83       0.2611
     20  O        -42.0160   -0.6990 -106.6500 O.2    83  GLY83      -0.2717
     21  N        -41.4270   -1.8410 -108.5040 N.am   84  HIS84      -0.1975
     22  CA       -42.5880   -2.7430 -108.4810 C.3    84  HIS84       0.1656
     23  C        -42.7980   -3.3580 -107.0900 C.2    84  HIS84       0.2291
     24  O        -41.8450   -3.9060 -106.4930 O.2    84  HIS84      -0.2864
     25  CB       -42.4380   -3.8550 -109.5430 C.3    84  HIS84       0.0771
     26  CG       -42.2010   -3.3500 -110.9450 C.ar   84  HIS84       0.0820
     27  ND1      -43.2200   -2.8730 -111.7470 N.ar   84  HIS84      -0.2267
     28  CD2      -41.0770   -3.2980 -111.7010 C.ar   84  HIS84       0.1154
     29  CE1      -42.7300   -2.5210 -112.9200 C.ar   84  HIS84       0.1986
     30  NE2      -41.4300   -2.7620 -112.9180 N.ar   84  HIS84      -0.2212
     31  N        -33.8860    5.7280 -105.6520 N.3    98  LEU98      -0.1245
     32  CA       -34.6600    4.5840 -106.1260 C.3    98  LEU98       0.1561
     33  C        -34.8950    3.5700 -104.9990 C.2    98  LEU98       0.2260
     34  O        -33.9520    3.1160 -104.3200 O.2    98  LEU98      -0.2867
     35  CB       -33.9570    3.8920 -107.2990 C.3    98  LEU98       0.0270
     36  CG       -34.7010    2.7470 -108.0050 C.3    98  LEU98       0.0019
     37  CD1      -34.3900    2.7970 -109.4950 C.3    98  LEU98       0.0001
     38  CD2      -34.3830    1.3650 -107.4300 C.3    98  LEU98       0.0001
     39  N        -35.7930   -0.0680 -104.8030 N.3   100  GLY100     -0.1210
     40  CA       -35.8590   -1.2650 -105.6400 C.3   100  GLY100      0.1956
     41  C        -37.1130   -2.1080 -105.4600 C.2   100  GLY100      0.2611
     42  O        -37.7090   -2.1260 -104.3880 O.2   100  GLY100     -0.2717
     43  N        -37.5020   -2.8340 -106.5030 N.am  101  MET101     -0.1979
     44  CA       -38.7280   -3.6380 -106.4820 C.3   101  MET101      0.1605
     45  C        -38.7300   -4.6510 -105.3360 C.2   101  MET101      0.2287
     46  O        -37.6820   -5.2150 -104.9720 O.2   101  MET101     -0.2864
     47  CB       -38.9280   -4.3460 -107.8390 C.3   101  MET101      0.0413
     48  CG       -37.8000   -5.3140 -108.2630 C.3   101  MET101      0.0598
     49  SD       -37.9460   -5.8770 -109.9930 S.3   101  MET101     -0.1393
     50  CE       -36.9700   -4.6670 -110.8530 C.3   101  MET101      0.0692
     51  N        -29.5780    4.3810 -103.6580 N.3   116  LEU116     -0.1245
     52  CA       -30.0630    3.1710 -104.2980 C.3   116  LEU116      0.1561
     53  C        -30.3630    2.1070 -103.2520 C.2   116  LEU116      0.2260
     54  O        -29.4580    1.5900 -102.5650 O.2   116  LEU116     -0.2867
     55  CB       -29.0490    2.6470 -105.3190 C.3   116  LEU116      0.0270
     56  CG       -29.5290    1.5790 -106.3100 C.3   116  LEU116      0.0019
     57  CD1      -30.9810    1.7780 -106.7070 C.3   116  LEU116      0.0001
     58  CD2      -28.6350    1.5500 -107.5390 C.3   116  LEU116      0.0001
     59  N        -31.5440   -1.5490 -103.0660 N.3   118  GLY118     -0.1210
     60  CA       -31.6720   -2.6880 -103.9610 C.3   118  GLY118      0.1956
     61  C        -32.9740   -3.4720 -103.8220 C.2   118  GLY118      0.2611
     62  O        -33.6520   -3.3990 -102.7960 O.2   118  GLY118     -0.2717
     63  N        -33.3220   -4.2190 -104.8640 N.am  119  ALA119     -0.1979
     64  CA       -34.5170   -5.0620 -104.8680 C.3   119  ALA119      0.1597
     65  C        -34.4990   -6.0430 -103.7030 C.2   119  ALA119      0.2287
     66  O        -33.4380   -6.5540 -103.3370 O.2   119  ALA119     -0.2864
     67  CB       -34.6260   -5.8090 -106.1850 C.3   119  ALA119      0.0319
     68  N        -25.5530    3.3130 -101.5410 N.3   134  LEU134     -0.1245
     69  CA       -26.0570    2.0540 -102.0650 C.3   134  LEU134      0.1561
     70  C        -26.2570    1.0790 -100.9090 C.2   134  LEU134      0.2260
     71  O        -25.3320    0.8540 -100.1090 O.2   134  LEU134     -0.2867
     72  CB       -25.0980    1.4650 -103.0970 C.3   134  LEU134      0.0270
     73  CG       -25.3970    0.0120 -103.4750 C.3   134  LEU134      0.0019
     74  CD1      -26.6270   -0.0610 -104.3660 C.3   134  LEU134      0.0001
     75  CD2      -24.1810   -0.6380 -104.1290 C.3   134  LEU134      0.0001
     76  N        -27.7890   -2.7990  -99.7230 N.3   136  VAL136     -0.1245
     77  CA       -28.2530   -4.1390 -100.0900 C.3   136  VAL136      0.1561
     78  C        -28.3500   -5.0600  -98.8700 C.2   136  VAL136      0.2260
     79  O        -27.6960   -4.8130  -97.8550 O.2   136  VAL136     -0.2867
     80  CB       -27.3130   -4.8150 -101.1180 C.3   136  VAL136      0.0252
     81  CG1      -27.1640   -3.9620 -102.3670 C.3   136  VAL136      0.0019
     82  CG2      -25.9500   -5.1260 -100.4880 C.3   136  VAL136      0.0019
     83  N        -34.0020    7.8490 -114.6710 N.3   157  SER157     -0.1217
     84  CA       -35.1090    6.9440 -114.3600 C.3   157  SER157      0.1889
     85  C        -36.4290    7.6470 -114.0400 C.2   157  SER157      0.2288
     86  O        -37.4720    7.3010 -114.6160 O.2   157  SER157     -0.2866
     87  CB       -34.7390    6.0270 -113.1920 C.3   157  SER157      0.2089
     88  OG       -35.8170    5.1530 -112.8950 O.3   157  SER157     -0.2183
     89  N        -37.6100    9.2040 -117.1660 N.3   160  HIS160     -0.1226
     90  CA       -38.1580    8.2840 -118.1630 C.3   160  HIS160      0.1752
     91  C        -39.6110    7.9370 -117.8000 C.2   160  HIS160      0.2596
     92  O        -40.4990    7.9000 -118.6870 O.2   160  HIS160     -0.2718
     93  CB       -37.3350    6.9930 -118.2630 C.3   160  HIS160      0.0759
     94  CG       -36.0270    7.1340 -118.9870 C.ar  160  HIS160      0.0818
     95  ND1      -35.8350    8.0220 -120.0260 N.ar  160  HIS160     -0.2268
     96  CD2      -34.8540    6.4610 -118.8480 C.ar  160  HIS160      0.1154
     97  CE1      -34.5970    7.9100 -120.4780 C.ar  160  HIS160      0.1986
     98  NE2      -33.9820    6.9690 -119.7810 N.ar  160  HIS160     -0.2212
     99  N        -39.8610    7.7410 -116.4950 N.am  161  TYR161     -0.1976
    100  CA       -41.1850    7.3350 -116.0230 C.3   161  TYR161      0.1639
    101  C        -42.2520    8.4420 -116.1010 C.2   161  TYR161      0.2290
    102  O        -43.4440    8.1480 -116.2800 O.2   161  TYR161     -0.2864
    103  CB       -41.1030    6.7610 -114.5980 C.3   161  TYR161      0.0560
    104  CG       -41.2450    5.2430 -114.5820 C.ar  161  TYR161     -0.0198
    105  CD1      -40.1230    4.4190 -114.4620 C.ar  161  TYR161     -0.0009
    106  CD2      -42.4980    4.6340 -114.7070 C.ar  161  TYR161     -0.0009
    107  CE1      -40.2300    3.0450 -114.4660 C.ar  161  TYR161      0.0417
    108  CE2      -42.6240    3.2480 -114.7110 C.ar  161  TYR161      0.0417
    109  CZ       -41.4790    2.4570 -114.5930 C.ar  161  TYR161      0.1957
    110  OH       -41.5770    1.0730 -114.5940 O.3   161  TYR161     -0.2866
    111  N        -43.1680    8.1420 -119.5650 N.3   164  ARG164     -0.1245
    112  CA       -43.9520    6.9220 -119.6690 C.3   164  ARG164      0.1563
    113  C        -45.3590    7.1070 -119.0810 C.2   164  ARG164      0.2260
    114  O        -46.3420    6.6440 -119.6810 O.2   164  ARG164     -0.2867
    115  CB       -43.2670    5.7560 -118.9600 C.3   164  ARG164      0.0307
    116  CG       -44.0200    4.4650 -119.1540 C.3   164  ARG164      0.0489
    117  CD       -44.0390    4.0170 -120.5980 C.3   164  ARG164      0.2205
    118  NE       -42.6710    3.7660 -121.0360 N.pl3 164  ARG164     -0.0865
    119  CZ       -42.3360    3.2560 -122.2100 C.cat 164  ARG164      0.5346
    120  NH1      -43.2700    2.9740 -123.1030 N.pl3 164  ARG164      0.1354
    121  NH2      -41.0610    3.0490 -122.4970 N.pl3 164  ARG164      0.1354
@<TRIPOS>BOND
     1   120   119    1
     2   121   119    1
     3   119   118    2
     4   118   117    1
     5   117   116    1
     6    97    95   ar
     7    97    98   ar
     8    95    94   ar
     9    98    96   ar
    10   114   113    2
    11   112   111    1
    12   112   113    1
    13   112   115    1
    14   116   115    1
    15    94    96   ar
    16    94    93    1
    17    92    91    2
    18    93    90    1
    19    90    91    1
    20    90    89    1
    21    91    99   am
    22    99   100    1
    23   102   101    2
    24   101   100    1
    25   100   103    1
    26   108   106   ar
    27   108   109   ar
    28   106   104   ar
    29    83    84    1
    30    86    85    2
    31   103   104    1
    32   110   109    1
    33   109   107   ar
    34   104   105   ar
    35   107   105   ar
    36    84    85    1
    37    84    87    1
    38    87    88    1
    39    29    30   ar
    40    29    27   ar
    41    30    28   ar
    42    27    26   ar
    43    28    26   ar
    44     8     7    2
    45     9     7   am
    46     7     6    1
    47    26    25    1
    48     6     5    1
    49    50    49    1
    50    15    14    1
    51     5     2    1
    52    49    48    1
    53    16    14    1
    54     2     3    1
    55     2     1    1
    56    25    22    1
    57    37    36    1
    58    14    11    1
    59     3     4    2
    60    21    22    1
    61    21    19   am
    62    22    23    1
    63    11    10    1
    64    11    12    1
    65    48    47    1
    66    36    38    1
    67    36    35    1
    68    47    44    1
    69    18    19    1
    70    18    17    1
    71    19    20    2
    72    58    56    1
    73    12    13    2
    74    35    32    1
    75    23    24    2
    76    57    56    1
    77    43    44    1
    78    43    41   am
    79    44    45    1
    80    56    55    1
    81    67    64    1
    82    32    31    1
    83    32    33    1
    84    40    41    1
    85    40    39    1
    86    41    42    2
    87    45    46    2
    88    55    52    1
    89    33    34    2
    90    64    63    1
    91    64    65    1
    92    63    61   am
    93    74    73    1
    94    52    51    1
    95    52    53    1
    96    75    73    1
    97    60    61    1
    98    60    59    1
    99    61    62    2
   100    65    66    2
   101    73    72    1
   102    53    54    2
   103    72    69    1
   104    81    80    1
   105    69    68    1
   106    69    70    1
   107    80    82    1
   108    80    77    1
   109    70    71    2
   110    77    76    1
   111    77    78    1
   112    78    79    2
