@<TRIPOS>MOLECULE
tmp/4n27F01.pdb
 146 139 0 0 0
SMALL
GASTEIGER

@<TRIPOS>ATOM
      1  N        -53.9420  -15.6910 -113.0050 N.3    40  TRP40      -0.1241
      2  CA       -54.8170  -15.6060 -111.8430 C.3    40  TRP40       0.1605
      3  C        -54.9140  -14.1880 -111.2870 C.2    40  TRP40       0.2264
      4  O        -54.2820  -13.2660 -111.7830 O.2    40  TRP40      -0.2867
      5  CB       -54.3510  -16.5990 -110.7920 C.3    40  TRP40       0.0550
      6  CG       -54.4660  -18.0020 -111.3140 C.ar   40  TRP40       0.0003
      7  CD1      -53.6000  -18.6320 -112.1570 C.ar   40  TRP40       0.0946
      8  CD2      -55.5370  -18.9280 -111.0780 C.ar   40  TRP40       0.0152
      9  NE1      -54.0510  -19.8910 -112.4440 N.ar   40  TRP40      -0.2442
     10  CE2      -55.2370  -20.1000 -111.7950 C.ar   40  TRP40       0.0810
     11  CE3      -56.7080  -18.8870 -110.3120 C.ar   40  TRP40       0.0012
     12  CZ2      -56.0660  -21.2260 -111.7720 C.ar   40  TRP40       0.0191
     13  CZ3      -57.5330  -20.0060 -110.2930 C.ar   40  TRP40       0.0001
     14  CH2      -57.2070  -21.1590 -111.0210 C.ar   40  TRP40       0.0015
     15  N        -49.5350  -17.2140 -111.2560 N.3    61  GLN61      -0.1245
     16  CA       -50.4030  -17.1790 -110.0740 C.3    61  GLN61       0.1566
     17  C        -50.6570  -15.7720 -109.5260 C.2    61  GLN61       0.2260
     18  O        -50.0740  -14.8090 -110.0090 O.2    61  GLN61      -0.2867
     19  CB       -49.8070  -18.0860 -109.0060 C.3    61  GLN61       0.0367
     20  CG       -49.8060  -19.5360 -109.4770 C.3    61  GLN61       0.0905
     21  CD       -49.0790  -20.4760 -108.5630 C.2    61  GLN61       0.2608
     22  OE1      -49.0350  -20.2900 -107.3470 O.2    61  GLN61      -0.2717
     23  NE2      -48.5210  -21.5240 -109.1420 N.am   61  GLN61      -0.0878
     24  N        -44.4620  -23.0110 -113.7840 N.3    81  THR81      -0.1218
     25  CA       -45.2960  -22.6640 -112.6320 C.3    81  THR81       0.1862
     26  C        -44.7210  -21.4440 -111.9430 C.2    81  THR81       0.2287
     27  O        -43.6400  -21.4880 -111.3520 O.2    81  THR81      -0.2866
     28  CB       -45.4180  -23.8230 -111.6310 C.3    81  THR81       0.1770
     29  OG1      -46.3480  -24.7690 -112.1510 O.3    81  THR81      -0.2211
     30  CG2      -45.9620  -23.3260 -110.3230 C.3    81  THR81       0.0375
     31  N        -45.0210  -19.0360 -109.0560 N.3    83  GLY83      -0.1210
     32  CA       -45.7010  -18.9730 -107.7630 C.3    83  GLY83       0.1956
     33  C        -46.3880  -17.6620 -107.4050 C.2    83  GLY83       0.2611
     34  O        -46.1110  -16.6400 -108.0100 O.2    83  GLY83      -0.2717
     35  N        -47.2810  -17.7100 -106.4200 N.am   84  HIS84      -0.1975
     36  CA       -47.9930  -16.5360 -105.9070 C.3    84  HIS84       0.1656
     37  C        -47.0640  -15.3190 -105.7340 C.2    84  HIS84       0.2291
     38  O        -45.9960  -15.4340 -105.0970 O.2    84  HIS84      -0.2864
     39  CB       -48.6540  -16.8680 -104.5440 C.3    84  HIS84       0.0771
     40  CG       -49.5290  -18.0860 -104.5530 C.ar   84  HIS84       0.0820
     41  ND1      -50.8470  -18.0550 -104.9620 N.ar   84  HIS84      -0.2267
     42  CD2      -49.2760  -19.3640 -104.1940 C.ar   84  HIS84       0.1154
     43  CE1      -51.3640  -19.2640 -104.8540 C.ar   84  HIS84       0.1986
     44  NE2      -50.4320  -20.0830 -104.3910 N.ar   84  HIS84      -0.2212
     45  N        -40.2810  -24.0530 -112.0820 N.3    98  LEU98      -0.1231
     46  CA       -41.1080  -23.4540 -111.0430 C.3    98  LEU98       0.1693
     47  C        -40.3830  -22.2820 -110.3830 C.2    98  LEU98       0.2592
     48  O        -39.2290  -22.4160 -109.9240 O.2    98  LEU98      -0.2718
     49  CB       -41.5130  -24.4920 -109.9840 C.3    98  LEU98       0.0284
     50  CG       -42.4280  -23.9430 -108.8770 C.3    98  LEU98       0.0019
     51  CD1      -43.4970  -24.9410 -108.5130 C.3    98  LEU98       0.0001
     52  CD2      -41.6390  -23.5950 -107.6450 C.3    98  LEU98       0.0001
     53  N        -41.0570  -21.1330 -110.3650 N.am   99  ILE99      -0.1966
     54  CA       -40.6000  -19.9490 -109.6320 C.3    99  ILE99       0.1727
     55  C        -41.4070  -19.7960 -108.3400 C.2    99  ILE99       0.2617
     56  O        -42.6000  -19.4370 -108.3820 O.2    99  ILE99      -0.2715
     57  CB       -40.7300  -18.6620 -110.4840 C.3    99  ILE99       0.0290
     58  CG1      -39.9600  -18.7930 -111.8040 C.3    99  ILE99       0.0022
     59  CG2      -40.2590  -17.4260 -109.6980 C.3    99  ILE99       0.0023
     60  CD1      -38.4790  -18.9290 -111.6170 C.3    99  ILE99       0.0001
     61  N        -40.7740  -20.0660 -107.1990 N.am  100  GLY100     -0.1940
     62  CA       -41.4740  -20.0400 -105.9230 C.3   100  GLY100      0.2014
     63  C        -42.2180  -18.7460 -105.6230 C.2   100  GLY100      0.2638
     64  O        -41.8940  -17.6970 -106.1820 O.2   100  GLY100     -0.2714
     65  N        -43.2360  -18.8290 -104.7690 N.am  101  MET101     -0.1976
     66  CA       -44.0330  -17.6670 -104.4050 C.3   101  MET101      0.1605
     67  C        -43.1460  -16.5970 -103.7930 C.2   101  MET101      0.2287
     68  O        -42.1960  -16.9090 -103.0650 O.2   101  MET101     -0.2864
     69  CB       -45.1710  -18.0480 -103.4470 C.3   101  MET101      0.0413
     70  CG       -44.7300  -18.6720 -102.1210 C.3   101  MET101      0.0598
     71  SD       -46.1300  -19.3820 -101.1790 S.3   101  MET101     -0.1393
     72  CE       -46.1480  -21.0490 -101.8440 C.3   101  MET101      0.0692
     73  N        -36.0650  -25.4750 -109.8660 N.3   116  LEU116     -0.1245
     74  CA       -36.9520  -25.0650 -108.7760 C.3   116  LEU116      0.1561
     75  C        -36.3340  -23.8550 -108.0640 C.2   116  LEU116      0.2260
     76  O        -35.2320  -23.9520 -107.5090 O.2   116  LEU116     -0.2867
     77  CB       -37.2080  -26.2180 -107.8030 C.3   116  LEU116      0.0270
     78  CG       -38.4590  -26.1480 -106.9110 C.3   116  LEU116      0.0019
     79  CD1      -38.7260  -27.5190 -106.3040 C.3   116  LEU116      0.0001
     80  CD2      -38.3740  -25.0760 -105.8090 C.3   116  LEU116      0.0001
     81  N        -36.7060  -21.4950 -104.9580 N.3   118  GLY118     -0.1210
     82  CA       -37.4620  -21.5080 -103.7110 C.3   118  GLY118      0.1956
     83  C        -38.2180  -20.2160 -103.4560 C.2   118  GLY118      0.2611
     84  O        -37.8560  -19.1750 -103.9870 O.2   118  GLY118     -0.2717
     85  N        -39.2700  -20.2800 -102.6500 N.am  119  ALA119     -0.1979
     86  CA       -40.0640  -19.0900 -102.3180 C.3   119  ALA119      0.1597
     87  C        -39.1920  -18.0070 -101.7070 C.2   119  ALA119      0.2287
     88  O        -38.2170  -18.3040 -101.0170 O.2   119  ALA119     -0.2864
     89  CB       -41.2230  -19.4480 -101.3660 C.3   119  ALA119      0.0319
     90  N        -36.9750  -16.1630 -102.9950 N.3   121  THR121     -0.1218
     91  CA       -35.6140  -16.1000 -103.5350 C.3   121  THR121      0.1862
     92  C        -35.3870  -14.8610 -104.4260 C.2   121  THR121      0.2287
     93  O        -36.2730  -14.4480 -105.1830 O.2   121  THR121     -0.2866
     94  CB       -35.2980  -17.3650 -104.3720 C.3   121  THR121      0.1770
     95  OG1      -35.5390  -18.5430 -103.6020 O.3   121  THR121     -0.2211
     96  CG2      -33.8600  -17.3760 -104.8710 C.3   121  THR121      0.0375
     97  N        -32.1250  -21.6430 -103.9150 N.3   136  VAL136     -0.1231
     98  CA       -32.7340  -20.9970 -102.7470 C.3   136  VAL136      0.1692
     99  C        -31.8330  -19.9300 -102.1360 C.2   136  VAL136      0.2592
    100  O        -30.6210  -19.9550 -102.3210 O.2   136  VAL136     -0.2718
    101  CB       -33.0630  -22.0300 -101.6380 C.3   136  VAL136      0.0266
    102  CG1      -33.9310  -23.1420 -102.1730 C.3   136  VAL136      0.0020
    103  CG2      -31.7880  -22.6110 -101.0800 C.3   136  VAL136      0.0020
    104  N        -32.4200  -19.0040 -101.3890 N.am  137  GLY137     -0.1957
    105  CA       -31.6240  -18.0620 -100.6280 C.3   137  GLY137      0.1869
    106  C        -31.6180  -16.6200 -101.0930 C.2   137  GLY137      0.2309
    107  O        -32.1640  -16.2620 -102.1450 O.2   137  GLY137     -0.2863
    108  N        -47.3960  -30.1580 -111.8290 N.3   157  SER157     -0.1217
    109  CA       -47.9000  -28.8470 -111.4270 C.3   157  SER157      0.1889
    110  C        -48.5460  -28.1150 -112.6010 C.2   157  SER157      0.2288
    111  O        -49.7100  -27.6900 -112.5150 O.2   157  SER157     -0.2866
    112  CB       -46.7730  -27.9910 -110.8510 C.3   157  SER157      0.2089
    113  OG       -47.2800  -26.7320 -110.4520 O.3   157  SER157     -0.2183
    114  N        -51.8380  -29.8570 -113.6230 N.3   160  HIS160     -0.1226
    115  CA       -52.9440  -29.6690 -112.7020 C.3   160  HIS160      0.1752
    116  C        -53.4230  -28.2290 -112.7910 C.2   160  HIS160      0.2596
    117  O        -54.6290  -27.9880 -112.7470 O.2   160  HIS160     -0.2718
    118  CB       -52.5350  -30.0030 -111.2760 C.3   160  HIS160      0.0759
    119  CG       -52.1520  -31.4370 -111.0830 C.ar  160  HIS160      0.0818
    120  ND1      -52.6800  -32.4560 -111.8480 N.ar  160  HIS160     -0.2268
    121  CD2      -51.3000  -32.0250 -110.2060 C.ar  160  HIS160      0.1154
    122  CE1      -52.1540  -33.6080 -111.4640 C.ar  160  HIS160      0.1986
    123  NE2      -51.3180  -33.3740 -110.4660 N.ar  160  HIS160     -0.2212
    124  N        -52.4990  -27.2680 -112.9550 N.am  161  TYR161     -0.1976
    125  CA       -52.9390  -25.8700 -113.0260 C.3   161  TYR161      0.1639
    126  C        -53.7190  -25.5820 -114.3190 C.2   161  TYR161      0.2290
    127  O        -54.7300  -24.8790 -114.2730 O.2   161  TYR161     -0.2864
    128  CB       -51.7820  -24.8610 -112.8590 C.3   161  TYR161      0.0560
    129  CG       -51.9240  -24.1410 -111.5270 C.ar  161  TYR161     -0.0198
    130  CD1      -52.9780  -23.2520 -111.3260 C.ar  161  TYR161     -0.0009
    131  CD2      -51.0190  -24.3270 -110.4830 C.ar  161  TYR161     -0.0009
    132  CE1      -53.1550  -22.5910 -110.1160 C.ar  161  TYR161      0.0417
    133  CE2      -51.1850  -23.6650 -109.2470 C.ar  161  TYR161      0.0417
    134  CZ       -52.2620  -22.7960 -109.0680 C.ar  161  TYR161      0.1957
    135  OH       -52.4730  -22.1130 -107.8660 O.3   161  TYR161     -0.2866
    136  N        -57.2160  -26.8850 -113.5450 N.3   164  ARG164     -0.1245
    137  CA       -57.8610  -25.9570 -112.6150 C.3   164  ARG164      0.1563
    138  C        -58.3070  -24.6480 -113.2860 C.2   164  ARG164      0.2260
    139  O        -59.3830  -24.1170 -112.9770 O.2   164  ARG164     -0.2867
    140  CB       -56.9140  -25.6590 -111.4540 C.3   164  ARG164      0.0307
    141  CG       -57.4890  -24.7920 -110.3370 C.3   164  ARG164      0.0489
    142  CD       -58.7720  -25.3720 -109.7410 C.3   164  ARG164      0.2205
    143  NE       -58.6360  -26.7950 -109.4230 N.pl3 164  ARG164     -0.0865
    144  CZ       -58.2540  -27.2720 -108.2450 C.cat 164  ARG164      0.5346
    145  NH1      -57.9060  -26.4330 -107.2740 N.pl3 164  ARG164      0.1354
    146  NH2      -58.1770  -28.5850 -108.0520 N.pl3 164  ARG164      0.1354
@<TRIPOS>BOND
     1   126   127    2
     2   126   125    1
     3    24    25    1
     4   114   115    1
     5   136   137    1
     6   138   139    2
     7   138   137    1
     8   125   124    1
     9   125   128    1
    10     1     2    1
    11   124   116   am
    12   128   129    1
    13   116   117    2
    14   116   115    1
    15   115   118    1
    16    25    26    1
    17    25    28    1
    18   137   140    1
    19   110   111    2
    20   110   109    1
    21     9     7   ar
    22     9    10   ar
    23     7     6   ar
    24    29    28    1
    25    45    46    1
    26    26    27    2
    27   120   122   ar
    28   120   119   ar
    29     2     3    1
    30     2     5    1
    31   108   109    1
    32    58    60    1
    33    58    57    1
    34    10    12   ar
    35    10     8   ar
    36     4     3    2
    37    12    14   ar
    38    28    30    1
    39   129   130   ar
    40   129   131   ar
    41   122   123   ar
    42   140   141    1
    43   109   112    1
    44   130   132   ar
    45     6     8   ar
    46     6     5    1
    47   118   119    1
    48    15    16    1
    49   119   121   ar
    50     8    11   ar
    51    46    47    1
    52    46    49    1
    53    14    13   ar
    54   112   113    1
    55    57    59    1
    56    57    54    1
    57   131   133   ar
    58   123   121   ar
    59    47    53   am
    60    47    48    2
    61    53    54    1
    62   141   142    1
    63    11    13   ar
    64   132   134   ar
    65    16    17    1
    66    16    19    1
    67    18    17    2
    68    49    50    1
    69    73    74    1
    70   142   143    1
    71    54    55    1
    72    20    19    1
    73    20    21    1
    74   143   144    2
    75   133   134   ar
    76    23    21   am
    77   134   135    1
    78    31    32    1
    79    50    51    1
    80    50    52    1
    81    74    75    1
    82    74    77    1
    83    21    22    2
    84    56    55    2
    85    55    61   am
    86   144   146    1
    87   144   145    1
    88    75    76    2
    89    34    33    2
    90    77    78    1
    91    32    33    1
    92    33    35   am
    93    61    62    1
    94    78    79    1
    95    78    80    1
    96    35    36    1
    97    64    63    2
    98    62    63    1
    99    36    37    1
   100    36    39    1
   101    37    38    2
   102    63    65   am
   103    93    92    2
   104    41    43   ar
   105    41    40   ar
   106    81    82    1
   107    96    94    1
   108    43    44   ar
   109    65    66    1
   110    40    39    1
   111    40    42   ar
   112    92    91    1
   113    66    67    1
   114    66    69    1
   115    44    42   ar
   116    94    95    1
   117    94    91    1
   118    84    83    2
   119    97    98    1
   120    67    68    2
   121    82    83    1
   122    91    90    1
   123    83    85   am
   124    69    70    1
   125    98    99    1
   126    98   101    1
   127    85    86    1
   128   100    99    2
   129    86    87    1
   130    86    89    1
   131   102   101    1
   132   107   106    2
   133    99   104   am
   134    70    71    1
   135    72    71    1
   136    87    88    2
   137   101   103    1
   138   104   105    1
   139   106   105    1
