@<TRIPOS>MOLECULE
tmp/4n2iA02.pdb
 99 92 0 0 0
SMALL
GASTEIGER

@<TRIPOS>ATOM
      1  N          7.0890   -8.6180  112.9710 N.3   316  PHE316     -0.1241
      2  CA         6.1840   -8.0960  111.9670 C.3   316  PHE316      0.1605
      3  C          4.9270   -7.5280  112.6250 C.2   316  PHE316      0.2264
      4  O          4.5240   -6.3950  112.3500 O.2   316  PHE316     -0.2867
      5  CB         5.8180   -9.1830  110.9620 C.3   316  PHE316      0.0534
      6  CG         4.8050   -8.7470  109.9520 C.ar  316  PHE316     -0.0203
      7  CD1        5.1500   -7.8610  108.9450 C.ar  316  PHE316     -0.0042
      8  CD2        3.5030   -9.2250  110.0040 C.ar  316  PHE316     -0.0042
      9  CE1        4.2140   -7.4620  108.0080 C.ar  316  PHE316     -0.0003
     10  CE2        2.5660   -8.8270  109.0720 C.ar  316  PHE316     -0.0003
     11  CZ         2.9220   -7.9470  108.0750 C.ar  316  PHE316     -0.0000
     12  N          0.4670  -14.8560  101.2850 N.3   341  ARG341     -0.1245
     13  CA         0.2320  -13.4830  100.8520 C.3   341  ARG341      0.1563
     14  C         -1.2370  -13.2060  100.5170 C.2   341  ARG341      0.2260
     15  O         -1.5420  -12.1670   99.9400 O.2   341  ARG341     -0.2867
     16  CB         1.1140  -13.1380   99.6490 C.3   341  ARG341      0.0307
     17  CG         2.5820  -12.9040   99.9800 C.3   341  ARG341      0.0489
     18  CD         2.8720  -11.4200  100.1770 C.3   341  ARG341      0.2205
     19  NE         3.7400  -10.8700   99.1400 N.pl3 341  ARG341     -0.0865
     20  CZ         4.3210   -9.6740   99.2080 C.cat 341  ARG341      0.5346
     21  NH1        4.1280   -8.8990  100.2680 N.pl3 341  ARG341      0.1354
     22  NH2        5.1010   -9.2530   98.2200 N.pl3 341  ARG341      0.1354
     23  N         -3.2080   -9.8930  100.3210 N.3   344  GLN344     -0.1245
     24  CA        -2.8010   -9.0010   99.2310 C.3   344  GLN344      0.1566
     25  C         -3.0430   -9.5920   97.8500 C.2   344  GLN344      0.2260
     26  O         -3.5010   -8.8900   96.9450 O.2   344  GLN344     -0.2867
     27  CB        -1.3480   -8.5290   99.3640 C.3   344  GLN344      0.0367
     28  CG        -0.8660   -7.7110   98.1520 C.3   344  GLN344      0.0905
     29  CD        -1.7690   -6.5210   97.8160 C.2   344  GLN344      0.2608
     30  OE1       -1.9650   -6.1830   96.6390 O.2   344  GLN344     -0.2717
     31  NE2       -2.3040   -5.8700   98.8450 N.am  344  GLN344     -0.0878
     32  N          7.1030   -1.8840   97.6780 N.3   584  ASN584     -0.1225
     33  CA         5.7740   -2.3720   97.9630 C.3   584  ASN584      0.1785
     34  C          5.5820   -2.1420   99.4400 C.2   584  ASN584      0.2597
     35  O          5.8890   -2.9960  100.2600 O.2   584  ASN584     -0.2718
     36  CB         5.8020   -3.8780   97.6910 C.3   584  ASN584      0.1169
     37  CG         4.4400   -4.5350   97.8160 C.2   584  ASN584      0.2627
     38  OD1        4.3210   -5.7480   97.6940 O.2   584  ASN584     -0.2716
     39  ND2        3.4160   -3.7410   98.0440 N.am  584  ASN584     -0.0877
     40  N          4.8210   -1.1050   99.7470 N.am  585  MET585     -0.1965
     41  CA         4.8510   -0.5230  101.0780 C.3   585  MET585      0.1736
     42  C          3.4380   -0.2430  101.5110 C.2   585  MET585      0.2616
     43  O          2.5350   -0.2000  100.6720 O.2   585  MET585     -0.2715
     44  CB         5.7320    0.7450  101.1190 C.3   585  MET585      0.0427
     45  CG         5.2750    1.9290  100.2730 C.3   585  MET585      0.0599
     46  SD         6.2670    3.4460  100.4980 S.3   585  MET585     -0.1393
     47  CE         7.8310    2.9740   99.7550 C.3   585  MET585      0.0692
     48  N          3.2380   -0.1060  102.8190 N.am  586  ILE586     -0.1977
     49  CA         1.9220    0.2090  103.3660 C.3   586  ILE586      0.1596
     50  C          1.8180    1.7150  103.4210 C.2   586  ILE586      0.2287
     51  O          2.6340    2.3680  104.0780 O.2   586  ILE586     -0.2864
     52  CB         1.7730   -0.3290  104.8110 C.3   586  ILE586      0.0276
     53  CG1        2.1100   -1.8200  104.8640 C.3   586  ILE586      0.0022
     54  CG2        0.3560   -0.0310  105.3710 C.3   586  ILE586      0.0022
     55  CD1        2.2070   -2.3950  106.3010 C.3   586  ILE586      0.0001
     56  N          4.7520    2.1910  106.0650 N.3   593  GLY593     -0.1225
     57  CA         5.4420    0.9470  106.3580 C.3   593  GLY593      0.1811
     58  C          6.2440    0.4480  105.1780 C.2   593  GLY593      0.2280
     59  O          5.6620   -0.0770  104.2350 O.2   593  GLY593     -0.2866
     60  N          9.0710   -2.3420  103.6670 N.3   595  PRO595     -0.2116
     61  CA         9.7610   -3.6050  103.9620 C.3   595  PRO595      0.1372
     62  C         11.2250   -3.3500  104.3240 C.2   595  PRO595      0.2244
     63  O         11.9250   -2.5900  103.6370 O.2   595  PRO595     -0.2868
     64  CB         9.6860   -4.3660  102.6260 C.3   595  PRO595      0.0268
     65  CG         8.4510   -3.8170  101.9630 C.3   595  PRO595      0.0207
     66  CD         8.3810   -2.3670  102.3640 C.3   595  PRO595      0.0892
     67  N          9.5600   -2.2590  108.3140 N.3   626  ILE626     -0.1245
     68  CA         8.8330   -3.3560  108.9340 C.3   626  ILE626      0.1561
     69  C          9.5130   -4.6430  108.5360 C.2   626  ILE626      0.2260
     70  O          9.7040   -4.8870  107.3450 O.2   626  ILE626     -0.2867
     71  CB         7.4070   -3.4000  108.3770 C.3   626  ILE626      0.0252
     72  CG1        6.7280   -2.0380  108.5630 C.3   626  ILE626      0.0019
     73  CG2        6.6300   -4.5300  108.9970 C.3   626  ILE626      0.0019
     74  CD1        6.0880   -1.8610  109.8900 C.3   626  ILE626      0.0001
     75  N          9.4450   -8.2840  107.8100 N.3   628  ASP628     -0.1239
     76  CA         8.6480   -9.4930  107.6320 C.3   628  ASP628      0.1674
     77  C          9.4340  -10.7900  107.4530 C.2   628  ASP628      0.2266
     78  O          8.8430  -11.8720  107.4570 O.2   628  ASP628     -0.2867
     79  CB         7.6440   -9.3080  106.4790 C.3   628  ASP628      0.1410
     80  CG         8.2570   -8.6350  105.2580 C.2   628  ASP628      0.3668
     81  OD1        9.4650   -8.8020  105.0170 O.co2 628  ASP628     -0.2456
     82  OD2        7.5190   -7.9410  104.5290 O.co2 628  ASP628     -0.2456
     83  N          4.2900  -12.6000  104.2140 N.3   641  CYS641     -0.1221
     84  CA         3.2760  -11.8090  104.9000 C.3   641  CYS641      0.1808
     85  C          2.5560  -10.9880  103.8680 C.2   641  CYS641      0.2602
     86  O          3.0610  -10.7780  102.7690 O.2   641  CYS641     -0.2717
     87  CB         3.9270  -10.8460  105.8940 C.3   641  CYS641      0.0970
     88  SG         4.9090  -11.6180  107.1600 S.3   641  CYS641     -0.0800
     89  N          1.3800  -10.4930  104.2220 N.am  642  GLY642     -0.1942
     90  CA         0.6880   -9.6150  103.3180 C.3   642  GLY642      0.2014
     91  C         -0.1280   -8.6020  104.0800 C.2   642  GLY642      0.2639
     92  O         -0.4850   -8.7910  105.2450 O.2   642  GLY642     -0.2714
     93  N         -0.4120   -7.5040  103.4050 N.am  643  THR643     -0.1950
     94  CA        -1.2350   -6.4580  103.9690 C.3   643  THR643      0.1897
     95  C         -2.0980   -5.9270  102.8430 C.2   643  THR643      0.2313
     96  O         -1.7210   -5.9740  101.6690 O.2   643  THR643     -0.2863
     97  CB        -0.4010   -5.2950  104.5450 C.3   643  THR643      0.1794
     98  OG1        0.2080   -4.5680  103.4750 O.3   643  THR643     -0.2208
     99  CG2        0.6960   -5.8050  105.4910 C.3   643  THR643      0.0378
@<TRIPOS>BOND
     1    30    29    2
     2    26    25    2
     3    32    33    1
     4    36    37    1
     5    36    33    1
     6    38    37    2
     7    37    39   am
     8    29    28    1
     9    29    31   am
    10    25    24    1
    11    33    34    1
    12    28    27    1
    13    22    20    1
    14    19    20    2
    15    19    18    1
    16    20    21    1
    17    24    27    1
    18    24    23    1
    19    34    40   am
    20    34    35    2
    21    16    17    1
    22    16    13    1
    23    40    41    1
    24    47    46    1
    25    15    14    2
    26    17    18    1
    27    45    46    1
    28    45    44    1
    29    14    13    1
    30    43    42    2
    31    13    12    1
    32    41    44    1
    33    41    42    1
    34    42    48   am
    35    96    95    2
    36    65    66    1
    37    65    64    1
    38    66    60    1
    39    64    61    1
    40    86    85    2
    41    48    49    1
    42    95    94    1
    43    90    91    1
    44    90    89    1
    45    49    50    1
    46    49    52    1
    47    93    94    1
    48    93    91   am
    49    50    51    2
    50    98    97    1
    51    63    62    2
    52    60    61    1
    53    85    89   am
    54    85    84    1
    55    61    62    1
    56    94    97    1
    57    91    92    2
    58    83    84    1
    59    59    58    2
    60    82    80   ar
    61    97    99    1
    62    52    53    1
    63    52    54    1
    64    53    55    1
    65    84    87    1
    66    81    80   ar
    67    58    57    1
    68    80    79    1
    69    87    88    1
    70    56    57    1
    71    79    76    1
    72    70    69    2
    73    77    78    2
    74    77    76    1
    75    76    75    1
    76     9    11   ar
    77     9     7   ar
    78    11    10   ar
    79    67    68    1
    80    71    72    1
    81    71    68    1
    82    71    73    1
    83    69    68    1
    84    72    74    1
    85     7     6   ar
    86    10     8   ar
    87     6     8   ar
    88     6     5    1
    89     5     2    1
    90     2     3    1
    91     2     1    1
    92     4     3    2
