@<TRIPOS>MOLECULE
tmp/4n2iA00.pdb
 89 85 0 0 0
SMALL
GASTEIGER

@<TRIPOS>ATOM
      1  N        -41.7900   -6.6310   96.0570 N.3   212  TYR212     -0.1241
      2  CA       -42.8360   -5.8050   96.6200 C.3   212  TYR212      0.1605
      3  C        -42.9820   -6.1710   98.0930 C.2   212  TYR212      0.2264
      4  O        -43.0210   -7.3530   98.4510 O.2   212  TYR212     -0.2867
      5  CB       -44.1500   -6.0180   95.8680 C.3   212  TYR212      0.0534
      6  CG       -45.3360   -5.3140   96.4920 C.ar  212  TYR212     -0.0201
      7  CD1      -45.5770   -3.9700   96.2380 C.ar  212  TYR212     -0.0009
      8  CD2      -46.2200   -5.9950   97.3260 C.ar  212  TYR212     -0.0009
      9  CE1      -46.6580   -3.3170   96.7980 C.ar  212  TYR212      0.0417
     10  CE2      -47.3110   -5.3510   97.8900 C.ar  212  TYR212      0.0417
     11  CZ       -47.5230   -4.0090   97.6170 C.ar  212  TYR212      0.1957
     12  OH       -48.5960   -3.3400   98.1630 O.3   212  TYR212     -0.2866
     13  N        -45.2970   -6.3560  101.1940 N.3   214  GLU214     -0.1245
     14  CA       -46.6700   -6.3090  101.6810 C.3   214  GLU214      0.1567
     15  C        -46.6910   -6.5740  103.1790 C.2   214  GLU214      0.2260
     16  O        -45.8370   -7.2900  103.7130 O.2   214  GLU214     -0.2867
     17  CB       -47.5860   -7.2850  100.9250 C.3   214  GLU214      0.0388
     18  CG       -47.3390   -8.7620  101.1870 C.3   214  GLU214      0.1160
     19  CD       -48.3440   -9.6560  100.4690 C.2   214  GLU214      0.3649
     20  OE1      -49.4920   -9.2100  100.2420 O.co2 214  GLU214     -0.2457
     21  OE2      -47.9850  -10.8030  100.1280 O.co2 214  GLU214     -0.2457
     22  N        -42.2090  -10.0000   98.3890 N.3   223  ILE223     -0.1245
     23  CA       -42.5160  -10.8870   97.2810 C.3   223  ILE223      0.1561
     24  C        -41.6510  -10.5590   96.0710 C.2   223  ILE223      0.2260
     25  O        -41.5810   -9.4010   95.6480 O.2   223  ILE223     -0.2867
     26  CB       -43.9920  -10.7710   96.8640 C.3   223  ILE223      0.0252
     27  CG1      -44.9130  -11.0040   98.0610 C.3   223  ILE223      0.0019
     28  CG2      -44.3160  -11.7460   95.7430 C.3   223  ILE223      0.0019
     29  CD1      -45.0610   -9.7980   98.9530 C.3   223  ILE223      0.0001
     30  N        -41.3920  -10.2970   92.5010 N.3   225  ILE225     -0.1245
     31  CA       -42.2540  -10.2480   91.3210 C.3   225  ILE225      0.1561
     32  C        -41.6760  -10.1940   89.8970 C.2   225  ILE225      0.2260
     33  O        -42.3910  -10.4850   88.9470 O.2   225  ILE225     -0.2867
     34  CB       -43.2560   -9.1170   91.4880 C.3   225  ILE225      0.0252
     35  CG1      -42.5430   -7.7750   91.4720 C.3   225  ILE225      0.0019
     36  CG2      -44.0420   -9.2950   92.7920 C.3   225  ILE225      0.0019
     37  CD1      -43.3680   -6.7110   90.7510 C.3   225  ILE225      0.0001
     38  N        -45.5290   -9.2190   85.8880 N.3   233  HIS233     -0.1226
     39  CA       -46.3840   -9.3410   87.0590 C.3   233  HIS233      0.1752
     40  C        -47.6330   -8.4830   86.8970 C.2   233  HIS233      0.2596
     41  O        -47.5280   -7.2760   86.6240 O.2   233  HIS233     -0.2718
     42  CB       -45.6220   -8.9100   88.3140 C.3   233  HIS233      0.0759
     43  CG       -46.4420   -8.9850   89.5630 C.ar  233  HIS233      0.0818
     44  ND1      -46.6560  -10.1620   90.2430 N.ar  233  HIS233     -0.2268
     45  CD2      -47.1110   -8.0250   90.2460 C.ar  233  HIS233      0.1154
     46  CE1      -47.4140   -9.9240   91.3000 C.ar  233  HIS233      0.1986
     47  NE2      -47.7020   -8.6350   91.3230 N.ar  233  HIS233     -0.2212
     48  N        -48.8040   -9.0880   87.0740 N.am  234  VAL234     -0.1966
     49  CA       -50.0500   -8.3360   86.9890 C.3   234  VAL234      0.1727
     50  C        -50.2670   -7.5710   88.2840 C.2   234  VAL234      0.2616
     51  O        -50.2910   -8.1500   89.3630 O.2   234  VAL234     -0.2715
     52  CB       -51.2730   -9.2490   86.7370 C.3   234  VAL234      0.0290
     53  CG1      -52.5620   -8.4280   86.7930 C.3   234  VAL234      0.0023
     54  CG2      -51.1500   -9.9450   85.3940 C.3   234  VAL234      0.0023
     55  N        -50.4270   -6.2630   88.1670 N.am  235  VAL235     -0.1963
     56  CA       -50.5650   -5.4000   89.3280 C.3   235  VAL235      0.1727
     57  C        -52.0140   -5.3160   89.7630 C.2   235  VAL235      0.2616
     58  O        -52.9140   -5.2890   88.9280 O.2   235  VAL235     -0.2715
     59  CB       -50.0940   -3.9790   88.9940 C.3   235  VAL235      0.0290
     60  CG1      -50.3400   -3.0520   90.1720 C.3   235  VAL235      0.0023
     61  CG2      -48.6200   -3.9920   88.5970 C.3   235  VAL235      0.0023
     62  N        -52.2380   -5.2900   91.0730 N.am  236  LYS236     -0.1977
     63  CA       -53.5670   -5.0570   91.6100 C.3   236  LYS236      0.1596
     64  C        -53.8590   -3.5600   91.6020 C.2   236  LYS236      0.2287
     65  O        -53.1670   -2.7810   92.2540 O.2   236  LYS236     -0.2864
     66  CB       -53.6590   -5.6010   93.0330 C.3   236  LYS236      0.0298
     67  CG       -52.8630   -4.8850   94.0270 C.3   236  LYS236      0.0038
     68  CD       -52.9240   -5.5990   95.3910 C.3   236  LYS236      0.0206
     69  CE       -52.3150   -4.9690   96.5810 C.3   236  LYS236      0.1093
     70  NZ       -50.9810   -4.4770   96.4370 N.3   236  LYS236     -0.1314
     71  N        -47.6850    2.1960   94.6040 N.3   244  LEU244     -0.1245
     72  CA       -47.1190    0.8900   94.9020 C.3   244  LEU244      0.1561
     73  C        -45.6110    1.0090   94.9610 C.2   244  LEU244      0.2260
     74  O        -44.9800    1.4850   94.0180 O.2   244  LEU244     -0.2867
     75  CB       -47.5230   -0.1260   93.8420 C.3   244  LEU244      0.0270
     76  CG       -49.0260   -0.4220   93.8380 C.3   244  LEU244      0.0019
     77  CD1      -49.3770   -1.2360   92.6110 C.3   244  LEU244      0.0001
     78  CD2      -49.4500   -1.1350   95.1240 C.3   244  LEU244      0.0001
     79  N        -41.9330   -0.5470   95.0230 N.3   246  PHE246     -0.1241
     80  CA       -41.1190   -1.7060   94.6860 C.3   246  PHE246      0.1605
     81  C        -39.6620   -1.4300   95.0080 C.2   246  PHE246      0.2264
     82  O        -39.2190   -0.2810   94.9930 O.2   246  PHE246     -0.2867
     83  CB       -41.2330   -2.0400   93.2020 C.3   246  PHE246      0.0534
     84  CG       -42.6420   -2.2660   92.7480 C.ar  246  PHE246     -0.0203
     85  CD1      -43.3690   -1.2300   92.1880 C.ar  246  PHE246     -0.0042
     86  CD2      -43.2520   -3.4980   92.9170 C.ar  246  PHE246     -0.0042
     87  CE1      -44.6740   -1.4230   91.7800 C.ar  246  PHE246     -0.0003
     88  CE2      -44.5590   -3.6990   92.5110 C.ar  246  PHE246     -0.0003
     89  CZ       -45.2680   -2.6610   91.9340 C.ar  246  PHE246     -0.0000
@<TRIPOS>BOND
     1    54    52    1
     2    38    39    1
     3    41    40    2
     4    52    53    1
     5    52    49    1
     6    40    39    1
     7    40    48   am
     8    49    48    1
     9    49    50    1
    10    39    42    1
    11    55    50   am
    12    55    56    1
    13    50    51    2
    14    42    43    1
    15    61    59    1
    16    58    57    2
    17    33    32    2
    18    59    56    1
    19    59    60    1
    20    56    57    1
    21    43    44   ar
    22    43    45   ar
    23    57    62   am
    24    32    31    1
    25    44    46   ar
    26    45    47   ar
    27    37    35    1
    28    62    63    1
    29    46    47   ar
    30    31    34    1
    31    31    30    1
    32    35    34    1
    33    34    36    1
    34    64    63    1
    35    64    65    2
    36    63    66    1
    37    87    89   ar
    38    87    85   ar
    39    89    88   ar
    40    85    84   ar
    41    88    86   ar
    42    77    76    1
    43    84    86   ar
    44    84    83    1
    45    66    67    1
    46    83    80    1
    47    76    75    1
    48    76    78    1
    49    75    72    1
    50    74    73    2
    51    67    68    1
    52    71    72    1
    53    80    81    1
    54    80    79    1
    55    72    73    1
    56    82    81    2
    57    68    69    1
    58    25    24    2
    59    28    26    1
    60     5     6    1
    61     5     2    1
    62     1     2    1
    63    24    23    1
    64     7     6   ar
    65     7     9   ar
    66    70    69    1
    67     6     8   ar
    68     2     3    1
    69     9    11   ar
    70    26    23    1
    71    26    27    1
    72    23    22    1
    73     8    10   ar
    74    11    10   ar
    75    11    12    1
    76    27    29    1
    77     3     4    2
    78    21    19   ar
    79    20    19   ar
    80    19    18    1
    81    17    18    1
    82    17    14    1
    83    13    14    1
    84    14    15    1
    85    15    16    2
