@<TRIPOS>MOLECULE
tmp/4n2lA02.pdb
 91 87 0 0 0
SMALL
GASTEIGER

@<TRIPOS>ATOM
      1  N         43.2140  -10.1300   31.5290 N.3   506  PHE506     -0.1241
      2  CA        42.3680  -11.1110   32.2280 C.3   506  PHE506      0.1605
      3  C         42.7990  -11.4150   33.6630 C.2   506  PHE506      0.2264
      4  O         42.6200  -12.5390   34.1480 O.2   506  PHE506     -0.2867
      5  CB        42.3150  -12.4350   31.4500 C.3   506  PHE506      0.0534
      6  CG        41.8590  -12.2890   30.0230 C.ar  506  PHE506     -0.0203
      7  CD1       40.5960  -11.8230   29.7360 C.ar  506  PHE506     -0.0042
      8  CD2       42.6970  -12.6260   28.9730 C.ar  506  PHE506     -0.0042
      9  CE1       40.1720  -11.6880   28.4230 C.ar  506  PHE506     -0.0003
     10  CE2       42.2780  -12.4940   27.6640 C.ar  506  PHE506     -0.0003
     11  CZ        41.0160  -12.0330   27.3870 C.ar  506  PHE506     -0.0000
     12  N         42.2810  -18.3070   32.7460 N.3   512  MET512     -0.1245
     13  CA        43.0720  -17.6610   31.6820 C.3   512  MET512      0.1570
     14  C         44.5650  -17.5220   31.9880 C.2   512  MET512      0.2261
     15  O         45.3600  -17.1970   31.1000 O.2   512  MET512     -0.2867
     16  CB        42.5420  -16.2440   31.4090 C.3   512  MET512      0.0387
     17  CG        41.0390  -16.1500   31.2440 C.3   512  MET512      0.0595
     18  SD        40.4940  -16.8420   29.7030 S.3   512  MET512     -0.1393
     19  CE        41.0990  -15.6480   28.5200 C.3   512  MET512      0.0692
     20  N         47.6340  -18.9560   29.9730 N.3   515  LYS515     -0.1245
     21  CA        47.7900  -18.3690   28.6390 C.3   515  LYS515      0.1561
     22  C         48.7460  -17.1740   28.6500 C.2   515  LYS515      0.2260
     23  O         49.3350  -16.8410   27.6270 O.2   515  LYS515     -0.2867
     24  CB        46.4340  -17.9080   28.0840 C.3   515  LYS515      0.0271
     25  CG        45.4170  -19.0180   27.8590 C.3   515  LYS515      0.0035
     26  CD        44.1730  -18.4750   27.1670 C.3   515  LYS515      0.0206
     27  CE        42.9440  -19.3160   27.4740 C.3   515  LYS515      0.1093
     28  NZ        43.1320  -20.7360   27.0880 N.3   515  LYS515     -0.1314
     29  N         48.4400  -13.7610   28.6600 N.3   517  ILE517     -0.1245
     30  CA        48.2060  -12.8340   27.5670 C.3   517  ILE517      0.1561
     31  C         48.5880  -11.4220   27.9940 C.2   517  ILE517      0.2260
     32  O         48.0800  -10.8980   28.9820 O.2   517  ILE517     -0.2867
     33  CB        46.7420  -12.8980   27.1140 C.3   517  ILE517      0.0252
     34  CG1       46.4400  -14.3110   26.6070 C.3   517  ILE517      0.0019
     35  CG2       46.4600  -11.8520   26.0340 C.3   517  ILE517      0.0019
     36  CD1       44.9840  -14.5650   26.3080 C.3   517  ILE517      0.0001
     37  N         38.6010  -12.3050   17.6730 N.3   565  LYS565     -0.1245
     38  CA        39.4120  -13.3800   17.1400 C.3   565  LYS565      0.1561
     39  C         38.5660  -14.0890   16.0940 C.2   565  LYS565      0.2260
     40  O         37.3660  -14.2870   16.2900 O.2   565  LYS565     -0.2867
     41  CB        39.8340  -14.3310   18.2620 C.3   565  LYS565      0.0271
     42  CG        40.5610  -15.5870   17.7930 C.3   565  LYS565      0.0035
     43  CD        41.8430  -15.2650   17.0280 C.3   565  LYS565      0.0206
     44  CE        42.3970  -16.4980   16.3090 C.3   565  LYS565      0.1093
     45  NZ        41.8680  -16.6730   14.8990 N.3   565  LYS565     -0.1314
     46  N         34.5390  -13.4120   16.9490 N.3   573  ARG573     -0.1231
     47  CA        33.9960  -13.5360   18.3010 C.3   573  ARG573      0.1694
     48  C         34.8330  -12.6540   19.2150 C.2   573  ARG573      0.2592
     49  O         36.0040  -12.4110   18.9300 O.2   573  ARG573     -0.2718
     50  CB        34.0110  -14.9910   18.7550 C.3   573  ARG573      0.0321
     51  CG        35.3830  -15.5350   19.0220 C.3   573  ARG573      0.0489
     52  CD        35.3130  -16.9210   19.6560 C.3   573  ARG573      0.2205
     53  NE        34.8070  -17.9330   18.7300 N.pl3 573  ARG573     -0.0865
     54  CZ        33.6920  -18.6350   18.9190 C.cat 573  ARG573      0.5346
     55  NH1       32.9570  -18.4420   20.0080 N.pl3 573  ARG573      0.1354
     56  NH2       33.3150  -19.5370   18.0200 N.pl3 573  ARG573      0.1354
     57  N         34.2430  -12.1710   20.3040 N.am  574  ALA574     -0.1966
     58  CA        34.9260  -11.2090   21.1690 C.3   574  ALA574      0.1728
     59  C         36.1850  -11.8140   21.7920 C.2   574  ALA574      0.2616
     60  O         36.1550  -12.9310   22.2980 O.2   574  ALA574     -0.2715
     61  CB        33.9980  -10.7210   22.2530 C.3   574  ALA574      0.0334
     62  N         37.2830  -11.0680   21.7370 N.am  575  PHE575     -0.1974
     63  CA        38.5350  -11.4690   22.3710 C.3   575  PHE575      0.1639
     64  C         38.4520  -11.1550   23.8710 C.2   575  PHE575      0.2290
     65  O         38.9070  -11.9460   24.7040 O.2   575  PHE575     -0.2864
     66  CB        39.7030  -10.7220   21.7220 C.3   575  PHE575      0.0560
     67  CG        41.0760  -11.1650   22.1950 C.ar  575  PHE575     -0.0200
     68  CD1       41.5760  -10.7550   23.4310 C.ar  575  PHE575     -0.0042
     69  CD2       41.8860  -11.9380   21.3740 C.ar  575  PHE575     -0.0042
     70  CE1       42.8450  -11.1470   23.8530 C.ar  575  PHE575     -0.0003
     71  CE2       43.1650  -12.3260   21.7840 C.ar  575  PHE575     -0.0003
     72  CZ        43.6400  -11.9350   23.0230 C.ar  575  PHE575     -0.0000
     73  N         37.1630  -16.2480   30.0500 N.3   632  PHE632     -0.1227
     74  CA        36.3050  -15.7230   28.9990 C.3   632  PHE632      0.1736
     75  C         36.7250  -16.3110   27.6390 C.2   632  PHE632      0.2595
     76  O         37.8440  -16.0840   27.1790 O.2   632  PHE632     -0.2718
     77  CB        36.3730  -14.1890   28.9970 C.3   632  PHE632      0.0547
     78  CG        35.6030  -13.5380   27.8690 C.ar  632  PHE632     -0.0202
     79  CD1       36.2600  -13.0900   26.7380 C.ar  632  PHE632     -0.0042
     80  CD2       34.2190  -13.3770   27.9490 C.ar  632  PHE632     -0.0042
     81  CE1       35.5530  -12.4890   25.6970 C.ar  632  PHE632     -0.0003
     82  CE2       33.5070  -12.7910   26.9130 C.ar  632  PHE632     -0.0003
     83  CZ        34.1750  -12.3370   25.7900 C.ar  632  PHE632     -0.0000
     84  N         35.8430  -17.1060   27.0410 N.am  633  LEU633     -0.1980
     85  CA        36.0090  -17.6670   25.6880 C.3   633  LEU633      0.1596
     86  C         35.2690  -16.9440   24.5470 C.2   633  LEU633      0.2287
     87  O         35.1660  -17.4760   23.4440 O.2   633  LEU633     -0.2864
     88  CB        35.7520  -19.1760   25.6460 C.3   633  LEU633      0.0297
     89  CG        36.5760  -20.0730   26.5770 C.3   633  LEU633      0.0022
     90  CD1       37.9690  -19.4860   26.8670 C.3   633  LEU633      0.0001
     91  CD2       35.7980  -20.3170   27.8580 C.3   633  LEU633      0.0001
@<TRIPOS>BOND
     1    45    44    1
     2    39    40    2
     3    39    38    1
     4    44    43    1
     5    46    47    1
     6    43    42    1
     7    38    37    1
     8    38    41    1
     9    42    41    1
    10    56    54    1
    11    47    50    1
    12    47    48    1
    13    53    54    2
    14    53    52    1
    15    50    51    1
    16    54    55    1
    17    49    48    2
    18    51    52    1
    19    48    57   am
    20    57    58    1
    21    58    59    1
    22    58    61    1
    23    69    71   ar
    24    69    67   ar
    25    66    67    1
    26    66    63    1
    27    62    59   am
    28    62    63    1
    29    71    72   ar
    30    59    60    2
    31    67    68   ar
    32    63    64    1
    33    72    70   ar
    34    68    70   ar
    35    87    86    2
    36    64    65    2
    37    86    85    1
    38    88    85    1
    39    88    89    1
    40    85    84    1
    41    81    83   ar
    42    81    79   ar
    43    83    82   ar
    44    35    33    1
    45    36    34    1
    46    89    90    1
    47    89    91    1
    48    34    33    1
    49    79    78   ar
    50    82    80   ar
    51    84    75   am
    52    28    27    1
    53    33    30    1
    54    26    27    1
    55    26    25    1
    56    76    75    2
    57    11    10   ar
    58    11     9   ar
    59    30    31    1
    60    30    29    1
    61    23    22    2
    62    75    74    1
    63    10     8   ar
    64    25    24    1
    65    78    80   ar
    66    78    77    1
    67    31    32    2
    68    24    21    1
    69     9     7   ar
    70    19    18    1
    71    21    22    1
    72    21    20    1
    73     8     6   ar
    74    77    74    1
    75    74    73    1
    76    18    17    1
    77     7     6   ar
    78     6     5    1
    79    15    14    2
    80    17    16    1
    81    16    13    1
    82     5     2    1
    83     1     2    1
    84    13    14    1
    85    13    12    1
    86     2     3    1
    87     3     4    2
