@<TRIPOS>MOLECULE
tmp/4n2qA00.pdb
 111 106 0 0 0
SMALL
GASTEIGER

@<TRIPOS>ATOM
      1  N         -0.4180   20.6740   41.2890 N.3    76  GLU76      -0.1245
      2  CA        -0.4160   21.8670   40.4540 C.3    76  GLU76       0.1567
      3  C         -1.7740   22.0660   39.7780 C.2    76  GLU76       0.2260
      4  O         -2.3440   23.1480   39.7980 O.2    76  GLU76      -0.2867
      5  CB         0.6960   21.7790   39.4100 C.3    76  GLU76       0.0388
      6  CG         0.9040   23.0800   38.6630 C.3    76  GLU76       0.1160
      7  CD         2.2590   23.1300   37.9800 C.2    76  GLU76       0.3649
      8  OE1        2.4860   22.2720   37.0980 O.co2  76  GLU76      -0.2457
      9  OE2        3.0880   24.0130   38.3440 O.co2  76  GLU76      -0.2457
     10  N          5.9860   16.2410   44.4980 N.3   124  ASP124     -0.1225
     11  CA         6.6960   17.4430   44.1170 C.3   124  ASP124      0.1805
     12  C          6.4590   18.5340   45.1670 C.2   124  ASP124      0.2598
     13  O          5.3480   19.0850   45.3160 O.2   124  ASP124     -0.2718
     14  CB         6.2450   17.9050   42.7250 C.3   124  ASP124      0.1424
     15  CG         7.0740   19.0740   42.1860 C.2   124  ASP124      0.3668
     16  OD1        7.2100   20.1080   42.8680 O.co2 124  ASP124     -0.2456
     17  OD2        7.5870   18.9740   41.0620 O.co2 124  ASP124     -0.2456
     18  N          7.5280   18.8710   45.8750 N.am  125  VAL125     -0.1966
     19  CA         7.4630   19.8480   46.9570 C.3   125  VAL125      0.1727
     20  C          6.9480   21.2020   46.4870 C.2   125  VAL125      0.2616
     21  O          6.0770   21.8050   47.1320 O.2   125  VAL125     -0.2715
     22  CB         8.8330   20.0530   47.6140 C.3   125  VAL125      0.0290
     23  CG1        8.6460   20.2380   49.1040 C.3   125  VAL125      0.0023
     24  CG2        9.7420   18.8570   47.3610 C.3   125  VAL125      0.0023
     25  N          7.4790   21.6880   45.3680 N.am  126  TYR126     -0.1960
     26  CA         7.1010   23.0200   44.8780 C.3   126  TYR126      0.1771
     27  C          5.6270   23.1060   44.5400 C.2   126  TYR126      0.2619
     28  O          4.9380   24.0360   44.9780 O.2   126  TYR126     -0.2715
     29  CB         7.9020   23.4140   43.6600 C.3   126  TYR126      0.0574
     30  CG         9.3180   23.8480   43.9690 C.ar  126  TYR126     -0.0198
     31  CD1        9.7440   25.1380   43.6880 C.ar  126  TYR126     -0.0009
     32  CD2       10.2340   22.9710   44.5320 C.ar  126  TYR126     -0.0009
     33  CE1       11.0420   25.5430   43.9580 C.ar  126  TYR126      0.0417
     34  CE2       11.5430   23.3690   44.7940 C.ar  126  TYR126      0.0417
     35  CZ        11.9370   24.6640   44.5050 C.ar  126  TYR126      0.1957
     36  OH        13.2180   25.1060   44.7410 O.3   126  TYR126     -0.2866
     37  N          5.1460   22.1210   43.7820 N.am  127  LYS127     -0.1977
     38  CA         3.7440   22.0580   43.3680 C.3   127  LYS127      0.1596
     39  C          2.8000   21.9390   44.5490 C.2   127  LYS127      0.2287
     40  O          1.7270   22.5500   44.5820 O.2   127  LYS127     -0.2864
     41  CB         3.5350   20.8900   42.4030 C.3   127  LYS127      0.0298
     42  CG         4.2940   21.0710   41.0930 C.3   127  LYS127      0.0038
     43  CD         4.0500   19.9190   40.1300 C.3   127  LYS127      0.0206
     44  CE         4.8790   20.1130   38.8660 C.3   127  LYS127      0.1093
     45  NZ         4.5200   19.1310   37.8060 N.3   127  LYS127     -0.1314
     46  N          3.4810   22.9310   47.5420 N.3   129  THR129     -0.1203
     47  CA         3.5340   24.2390   48.2250 C.3   129  THR129      0.1994
     48  C          2.6350   25.2520   47.5380 C.2   129  THR129      0.2617
     49  O          2.0030   26.0790   48.1800 O.2   129  THR129     -0.2717
     50  CB         4.9410   24.8140   48.2500 C.3   129  THR129      0.1784
     51  OG1        5.8540   23.8450   48.7850 O.3   129  THR129     -0.2211
     52  CG2        4.9820   26.0740   49.0830 C.3   129  THR129      0.0376
     53  N          2.5640   25.1590   46.2150 N.am  130  ARG130     -0.1979
     54  CA         1.7420   26.0560   45.4420 C.3   130  ARG130      0.1597
     55  C          0.2760   25.8340   45.7370 C.2   130  ARG130      0.2287
     56  O         -0.5090   26.7870   45.8160 O.2   130  ARG130     -0.2864
     57  CB         2.0140   25.8290   43.9720 C.3   130  ARG130      0.0334
     58  CG         1.1820   26.6710   43.0280 C.3   130  ARG130      0.0492
     59  CD         1.9890   26.8930   41.7840 C.3   130  ARG130      0.2205
     60  NE         1.1660   26.9490   40.5900 N.pl3 130  ARG130     -0.0865
     61  CZ         1.5330   27.5570   39.4690 C.cat 130  ARG130      0.5346
     62  NH1        2.6980   28.2140   39.3970 N.pl3 130  ARG130      0.1354
     63  NH2        0.7100   27.5410   38.4270 N.pl3 130  ARG130      0.1354
     64  N         -0.4020   27.2690   49.1940 N.3   133  ARG133     -0.1245
     65  CA        -0.3610   28.7330   49.0970 C.3   133  ARG133      0.1563
     66  C         -1.6740   29.2800   48.5630 C.2   133  ARG133      0.2260
     67  O         -2.2130   30.2320   49.1100 O.2   133  ARG133     -0.2867
     68  CB         0.7720   29.1650   48.1840 C.3   133  ARG133      0.0307
     69  CG         1.8950   29.9360   48.8540 C.3   133  ARG133      0.0489
     70  CD         3.0820   30.0910   47.9170 C.3   133  ARG133      0.2205
     71  NE         4.0440   31.0690   48.4000 N.pl3 133  ARG133     -0.0865
     72  CZ         3.8630   32.3810   48.3390 C.cat 133  ARG133      0.5346
     73  NH1        2.7650   32.8920   47.8040 N.pl3 133  ARG133      0.1354
     74  NH2        4.7860   33.1930   48.8180 N.pl3 133  ARG133      0.1354
     75  N         10.5520   21.5980   52.8390 N.3   160  ASP160     -0.1239
     76  CA        11.6150   22.4900   53.2840 C.3   160  ASP160      0.1674
     77  C         11.0850   23.6590   54.1180 C.2   160  ASP160      0.2266
     78  O          9.8890   23.7830   54.3750 O.2   160  ASP160     -0.2867
     79  CB        12.4030   23.0160   52.0780 C.3   160  ASP160      0.1410
     80  CG        11.5260   23.7040   51.0420 C.2   160  ASP160      0.3668
     81  OD1       10.2890   23.8170   51.2390 O.co2 160  ASP160     -0.2456
     82  OD2       12.0750   24.1080   49.9930 O.co2 160  ASP160     -0.2456
     83  N         10.7040   26.7530   53.3580 N.3   162  TYR162     -0.1227
     84  CA         9.7700   27.5750   52.5940 C.3   162  TYR162      0.1736
     85  C          8.3560   27.0640   52.8190 C.2   162  TYR162      0.2595
     86  O          7.4660   27.8320   53.1360 O.2   162  TYR162     -0.2718
     87  CB        10.1640   27.4850   51.1090 C.3   162  TYR162      0.0548
     88  CG         9.4590   28.4290   50.1440 C.ar  162  TYR162     -0.0200
     89  CD1       10.1760   29.3980   49.4530 C.ar  162  TYR162     -0.0009
     90  CD2        8.1000   28.3340   49.8940 C.ar  162  TYR162     -0.0009
     91  CE1        9.5580   30.2830   48.5780 C.ar  162  TYR162      0.0417
     92  CE2        7.4690   29.1940   48.9990 C.ar  162  TYR162      0.0417
     93  CZ         8.2090   30.1740   48.3440 C.ar  162  TYR162      0.1957
     94  OH         7.6170   31.0380   47.4390 O.3   162  TYR162     -0.2866
     95  N          8.1620   25.7520   52.6730 N.am  163  MET163     -0.1979
     96  CA         6.8510   25.1140   52.9160 C.3   163  MET163      0.1605
     97  C          6.3180   25.3640   54.3370 C.2   163  MET163      0.2287
     98  O          5.1580   25.7590   54.5180 O.2   163  MET163     -0.2864
     99  CB         6.9310   23.6080   52.6330 C.3   163  MET163      0.0413
    100  CG         5.7310   22.7880   53.0990 C.3   163  MET163      0.0598
    101  SD         4.1070   23.2580   52.4250 S.3   163  MET163     -0.1393
    102  CE         3.8850   21.8700   51.3390 C.3   163  MET163      0.0692
    103  N          2.5990   30.7820   58.7890 N.3   169  LYS169     -0.1245
    104  CA         2.0700   32.1260   58.5630 C.3   169  LYS169      0.1561
    105  C          0.6430   32.0450   58.0810 C.2   169  LYS169      0.2260
    106  O         -0.1790   32.8530   58.4330 O.2   169  LYS169     -0.2867
    107  CB         2.9440   32.8640   57.5550 C.3   169  LYS169      0.0271
    108  CG         2.8020   34.3760   57.5850 C.3   169  LYS169      0.0035
    109  CD         3.9570   35.0440   56.8490 C.3   169  LYS169      0.0206
    110  CE         5.2870   34.8420   57.5690 C.3   169  LYS169      0.1093
    111  NZ         6.4420   35.3220   56.7550 N.3   169  LYS169     -0.1314
@<TRIPOS>BOND
     1     8     7   ar
     2    45    44    1
     3     7     9   ar
     4     7     6    1
     5    63    61    1
     6     6     5    1
     7    44    43    1
     8    62    61    1
     9     5     2    1
    10    61    60    2
    11     3     4    2
    12     3     2    1
    13    43    42    1
    14     2     1    1
    15    60    59    1
    16    17    15   ar
    17    42    41    1
    18    59    58    1
    19    15    14    1
    20    15    16   ar
    21    41    38    1
    22    14    11    1
    23    58    57    1
    24    38    37    1
    25    38    39    1
    26    29    30    1
    27    29    26    1
    28    31    33   ar
    29    31    30   ar
    30    37    27   am
    31    33    35   ar
    32    30    32   ar
    33    57    54    1
    34    11    10    1
    35    11    12    1
    36    35    36    1
    37    35    34   ar
    38    32    34   ar
    39    27    26    1
    40    27    28    2
    41    39    40    2
    42    26    25    1
    43    12    13    2
    44    12    18   am
    45    25    20   am
    46    54    55    1
    47    54    53    1
    48    55    56    2
    49    18    19    1
    50    53    48   am
    51    20    19    1
    52    20    21    2
    53    19    22    1
    54    24    22    1
    55    94    93    1
    56    48    49    2
    57    48    47    1
    58    46    47    1
    59    22    23    1
    60    73    72    1
    61    70    71    1
    62    70    69    1
    63    68    69    1
    64    68    65    1
    65    47    50    1
    66    50    51    1
    67    50    52    1
    68    72    71    2
    69    72    74    1
    70    93    91   ar
    71    93    92   ar
    72    66    65    1
    73    66    67    2
    74    91    89   ar
    75    92    90   ar
    76    65    64    1
    77    89    88   ar
    78    90    88   ar
    79    82    80   ar
    80    88    87    1
    81    80    81   ar
    82    80    79    1
    83    87    84    1
    84   102   101    1
    85    79    76    1
    86   101   100    1
    87    84    85    1
    88    84    83    1
    89    99    96    1
    90    99   100    1
    91    95    85   am
    92    95    96    1
    93    85    86    2
    94    75    76    1
    95    96    97    1
    96    76    77    1
    97    77    78    2
    98    97    98    2
    99   111   110    1
   100   109   110    1
   101   109   108    1
   102   107   108    1
   103   107   104    1
   104   105   106    2
   105   105   104    1
   106   104   103    1
