@<TRIPOS>MOLECULE
tmp/4n2rA00.pdb
 129 124 0 0 0
SMALL
GASTEIGER

@<TRIPOS>ATOM
      1  N         35.7300   42.8900    0.2970 N.3    27  LYS27      -0.1231
      2  CA        35.6640   41.6660   -0.5000 C.3    27  LYS27       0.1693
      3  C         35.4180   40.4390    0.3560 C.2    27  LYS27       0.2592
      4  O         35.6680   40.4010    1.5580 O.2    27  LYS27      -0.2718
      5  CB        36.9800   41.4480   -1.2400 C.3    27  LYS27       0.0285
      6  CG        37.2760   42.4760   -2.3060 C.3    27  LYS27       0.0035
      7  CD        38.4770   42.0740   -3.1500 C.3    27  LYS27       0.0206
      8  CE        38.1230   40.9450   -4.0720 C.3    27  LYS27       0.1093
      9  NZ        39.3410   40.3930   -4.7580 N.3    27  LYS27      -0.1314
     10  N         34.9600   39.3630   -0.3090 N.am   28  ASP28      -0.1974
     11  CA        35.0990   38.0100    0.2270 C.3    28  ASP28       0.1709
     12  C         34.3710   37.8320    1.5590 C.2    28  ASP28       0.2293
     13  O         34.8420   37.1740    2.4680 O.2    28  ASP28      -0.2864
     14  CB        36.5700   37.5930    0.4060 C.3    28  ASP28       0.1436
     15  CG        37.4360   37.8160   -0.8070 C.2    28  ASP28       0.3671
     16  OD1       36.9670   37.7970   -1.9410 O.co2  28  ASP28      -0.2456
     17  OD2       38.7040   37.9780   -0.5340 O.co2  28  ASP28      -0.2456
     18  N         46.4040   43.0760    0.1260 N.3    50  TYR50      -0.1241
     19  CA        45.1970   42.5200    0.7990 C.3    50  TYR50       0.1605
     20  C         45.3980   42.5000    2.3150 C.2    50  TYR50       0.2264
     21  O         46.5030   42.2280    2.8200 O.2    50  TYR50      -0.2867
     22  CB        44.8930   41.1180    0.2940 C.3    50  TYR50       0.0534
     23  CG        44.3350   41.0780   -1.1010 C.ar   50  TYR50      -0.0201
     24  CD1       42.9930   41.4460   -1.3160 C.ar   50  TYR50      -0.0009
     25  CD2       45.0980   40.6890   -2.1900 C.ar   50  TYR50      -0.0009
     26  CE1       42.4690   41.4050   -2.6070 C.ar   50  TYR50       0.0417
     27  CE2       44.5400   40.6600   -3.4820 C.ar   50  TYR50       0.0417
     28  CZ        43.2420   41.0160   -3.6690 C.ar   50  TYR50       0.1957
     29  OH        42.6900   40.9850   -4.9550 O.3    50  TYR50      -0.2866
     30  N         42.9050   36.8080    5.2380 N.3    77  VAL77      -0.1231
     31  CA        42.3130   37.0010    3.9500 C.3    77  VAL77       0.1692
     32  C         41.2950   35.8880    3.6320 C.2    77  VAL77       0.2591
     33  O         41.5080   34.7000    3.8950 O.2    77  VAL77      -0.2718
     34  CB        43.3830   37.1600    2.8770 C.3    77  VAL77       0.0266
     35  CG1       42.7860   37.2520    1.4790 C.3    77  VAL77       0.0020
     36  CG2       44.2220   38.3990    3.1500 C.3    77  VAL77       0.0020
     37  N         40.1850   36.3040    3.0150 N.am   78  ALA78      -0.1980
     38  CA        39.1050   35.4190    2.5540 C.3    78  ALA78       0.1597
     39  C         38.5950   34.5830    3.7270 C.2    78  ALA78       0.2287
     40  O         38.6230   33.3400    3.6800 O.2    78  ALA78      -0.2864
     41  CB        39.4940   34.6240    1.3520 C.3    78  ALA78       0.0319
     42  N         43.1690   32.2760    4.7380 N.3    95  GLN95      -0.1231
     43  CA        44.2870   31.7970    3.9080 C.3    95  GLN95       0.1698
     44  C         45.4900   32.6500    4.1450 C.2    95  GLN95       0.2592
     45  O         45.4270   33.8110    4.4560 O.2    95  GLN95      -0.2718
     46  CB        43.9200   31.7460    2.4080 C.3    95  GLN95       0.0381
     47  CG        43.6420   33.1060    1.8010 C.3    95  GLN95       0.0905
     48  CD        42.8890   33.0070    0.4880 C.2    95  GLN95       0.2608
     49  OE1       42.0140   32.2130    0.3530 O.2    95  GLN95      -0.2717
     50  NE2       43.2460   33.8300   -0.4670 N.am   95  GLN95      -0.0878
     51  N         46.5990   31.9190    3.9940 N.am   96  TRP96      -0.1976
     52  CA        47.9580   32.4680    3.9360 C.3    96  TRP96       0.1640
     53  C         48.4840   32.8960    5.2710 C.2    96  TRP96       0.2290
     54  O         47.8620   32.7650    6.2430 O.2    96  TRP96      -0.2864
     55  CB        47.9940   33.6140    2.9280 C.3    96  TRP96       0.0576
     56  CG        47.6220   33.1690    1.5510 C.ar   96  TRP96       0.0006
     57  CD1       47.7530   31.9050    1.0350 C.ar   96  TRP96       0.0946
     58  CD2       47.0740   33.9380    0.5210 C.ar   96  TRP96       0.0152
     59  NE1       47.3650   31.8810   -0.2460 N.ar   96  TRP96      -0.2442
     60  CE2       46.9100   33.1040   -0.5740 C.ar   96  TRP96       0.0810
     61  CE3       46.6790   35.2160    0.4250 C.ar   96  TRP96       0.0012
     62  CZ2       46.4510   33.5350   -1.7300 C.ar   96  TRP96       0.0191
     63  CZ3       46.1840   35.6320   -0.6890 C.ar   96  TRP96       0.0001
     64  CH2       46.0660   34.8080   -1.7800 C.ar   96  TRP96       0.0015
     65  N         42.7820   28.2290   -2.3610 N.3   134  ILE134     -0.1231
     66  CA        42.2250   29.5020   -2.0000 C.3   134  ILE134      0.1692
     67  C         40.7720   29.3440   -1.6340 C.2   134  ILE134      0.2592
     68  O         40.1250   28.3340   -1.9540 O.2   134  ILE134     -0.2718
     69  CB        42.4310   30.5700   -3.0970 C.3   134  ILE134      0.0266
     70  CG1       41.7160   30.1620   -4.3710 C.3   134  ILE134      0.0019
     71  CG2       43.8900   30.9820   -3.2390 C.3   134  ILE134      0.0020
     72  CD1       41.6690   31.2890   -5.3620 C.3   134  ILE134      0.0001
     73  N         40.2470   30.3440   -0.9460 N.am  135  ASP135     -0.1974
     74  CA        38.8050   30.4970   -0.7620 C.3   135  ASP135      0.1709
     75  C         38.1840   29.2690   -0.0900 C.2   135  ASP135      0.2293
     76  O         37.1740   28.7200   -0.5520 O.2   135  ASP135     -0.2864
     77  CB        38.0990   30.8230   -2.0520 C.3   135  ASP135      0.1436
     78  CG        38.5570   32.1210   -2.6880 C.2   135  ASP135      0.3671
     79  OD1       39.1990   32.9160   -2.0040 O.co2 135  ASP135     -0.2456
     80  OD2       38.1880   32.3150   -3.8740 O.co2 135  ASP135     -0.2456
     81  N         36.3810   30.2140   -8.2500 N.3   187  GLU187     -0.1245
     82  CA        36.6830   30.7920   -6.9290 C.3   187  GLU187      0.1567
     83  C         35.5140   30.6780   -5.9800 C.2   187  GLU187      0.2260
     84  O         34.4020   30.2840   -6.3710 O.2   187  GLU187     -0.2867
     85  CB        37.0030   32.3900   -7.1430 C.3   187  GLU187      0.0388
     86  CG        38.3840   32.5270   -7.7060 C.3   187  GLU187      0.1160
     87  CD        38.8360   33.8820   -8.0270 C.2   187  GLU187      0.3649
     88  OE1       38.1080   34.8640   -7.9360 O.co2 187  GLU187     -0.2457
     89  OE2       40.0290   33.9860   -8.4470 O.co2 187  GLU187     -0.2457
     90  N         31.8450   30.3120   -7.6530 N.3   205  GLU205     -0.1245
     91  CA        31.9440   31.4630   -8.5600 C.3   205  GLU205      0.1567
     92  C         32.6580   31.0600   -9.8540 C.2   205  GLU205      0.2260
     93  O         33.6980   30.3830   -9.8470 O.2   205  GLU205     -0.2867
     94  CB        32.6710   32.5960   -7.8980 C.3   205  GLU205      0.0388
     95  CG        32.7460   33.8740   -8.7350 C.3   205  GLU205      0.1160
     96  CD        33.4780   34.9970   -8.0710 C.2   205  GLU205      0.3649
     97  OE1       33.7120   34.9420   -6.8430 O.co2 205  GLU205     -0.2457
     98  OE2       33.8000   35.9790   -8.8000 O.co2 205  GLU205     -0.2457
     99  N         32.3430   36.6690   -4.8510 N.3   253  HIS253     -0.1241
    100  CA        32.6570   36.1190   -3.5420 C.3   253  HIS253      0.1621
    101  C         31.9380   36.7670   -2.3520 C.2   253  HIS253      0.2264
    102  O         32.2020   37.9150   -1.9880 O.2   253  HIS253     -0.2867
    103  CB        34.1640   36.2080   -3.3150 C.3   253  HIS253      0.0745
    104  CG        34.6880   35.3260   -2.2100 C.ar  253  HIS253      0.0817
    105  ND1       35.9990   34.8780   -2.1990 N.ar  253  HIS253     -0.2268
    106  CD2       34.1000   34.7570   -1.1150 C.ar  253  HIS253      0.1154
    107  CE1       36.1690   34.1070   -1.1270 C.ar  253  HIS253      0.1986
    108  NE2       35.0410   34.0010   -0.4600 N.ar  253  HIS253     -0.2212
    109  N         30.0340   40.4260   -3.2930 N.3   277  GLN277     -0.1245
    110  CA        30.8250   41.5430   -3.7700 C.3   277  GLN277      0.1566
    111  C         30.4990   41.8500   -5.2020 C.2   277  GLN277      0.2260
    112  O         30.4310   40.9860   -6.0690 O.2   277  GLN277     -0.2867
    113  CB        32.3460   41.3080   -3.5280 C.3   277  GLN277      0.0367
    114  CG        32.9610   40.2380   -4.3970 C.3   277  GLN277      0.0905
    115  CD        34.3920   39.9410   -4.1140 C.2   277  GLN277      0.2608
    116  OE1       34.9170   40.2750   -3.0590 O.2   277  GLN277     -0.2717
    117  NE2       35.0480   39.2510   -5.0340 N.am  277  GLN277     -0.0878
    118  N         43.0890   43.9720  -11.5070 N.3   288  TYR288     -0.1241
    119  CA        42.1050   43.2250  -10.7100 C.3   288  TYR288      0.1605
    120  C         42.2450   43.5250   -9.2300 C.2   288  TYR288      0.2264
    121  O         41.2430   43.7120   -8.5460 O.2   288  TYR288     -0.2867
    122  CB        42.2660   41.7470  -10.9350 C.3   288  TYR288      0.0534
    123  CG        41.3320   40.9240  -10.0100 C.ar  288  TYR288     -0.0201
    124  CD1       40.0090   40.7240  -10.3090 C.ar  288  TYR288     -0.0009
    125  CD2       41.7660   40.4940   -8.7880 C.ar  288  TYR288     -0.0009
    126  CE1       39.1460   40.0500   -9.4230 C.ar  288  TYR288      0.0417
    127  CE2       40.9060   39.9350   -7.8720 C.ar  288  TYR288      0.0417
    128  CZ        39.6340   39.6900   -8.2150 C.ar  288  TYR288      0.1957
    129  OH        38.7500   39.0960   -7.3080 O.3   288  TYR288     -0.2866
@<TRIPOS>BOND
     1   118   119    1
     2   122   119    1
     3   122   123    1
     4   119   120    1
     5   124   123   ar
     6   124   126   ar
     7   123   125   ar
     8    92    93    2
     9    92    91    1
    10   126   128   ar
    11   120   121    2
    12    98    96   ar
    13   125   127   ar
    14    95    96    1
    15    95    94    1
    16    91    94    1
    17    91    90    1
    18    89    87   ar
    19    81    82    1
    20   128   127   ar
    21   128   129    1
    22    96    97   ar
    23    87    88   ar
    24    87    86    1
    25    86    85    1
    26    85    82    1
    27    82    83    1
    28    84    83    2
    29   112   111    2
    30    72    70    1
    31   111   110    1
    32   117   115   am
    33    29    28    1
    34    99   100    1
    35     9     8    1
    36   114   115    1
    37   114   113    1
    38    70    69    1
    39   115   116    2
    40     8     7    1
    41    80    78   ar
    42   110   113    1
    43   110   109    1
    44    28    27   ar
    45    28    26   ar
    46   100   103    1
    47   100   101    1
    48    27    25   ar
    49   103   104    1
    50    71    69    1
    51     7     6    1
    52    69    66    1
    53    78    77    1
    54    78    79   ar
    55    26    24   ar
    56    65    66    1
    57   101   102    2
    58     6     5    1
    59   104   105   ar
    60   104   106   ar
    61   105   107   ar
    62    25    23   ar
    63    77    74    1
    64    66    67    1
    65    68    67    2
    66    16    15   ar
    67    64    62   ar
    68    64    63   ar
    69    62    60   ar
    70    67    73   am
    71    24    23   ar
    72     5     2    1
    73   107   108   ar
    74   106   108   ar
    75    23    22    1
    76    73    74    1
    77    15    17   ar
    78    15    14    1
    79    74    75    1
    80    63    61   ar
    81    60    59   ar
    82    60    58   ar
    83    76    75    2
    84     2     1    1
    85     2     3    1
    86    50    48   am
    87    10    11    1
    88    10     3   am
    89    59    57   ar
    90    18    19    1
    91    11    14    1
    92    11    12    1
    93    22    19    1
    94    49    48    2
    95     3     4    2
    96    61    58   ar
    97    48    47    1
    98    58    56   ar
    99    19    20    1
   100    57    56   ar
   101    41    38    1
   102    35    34    1
   103    56    55    1
   104    12    13    2
   105    47    46    1
   106    20    21    2
   107    46    43    1
   108    38    37    1
   109    38    39    1
   110    34    36    1
   111    34    31    1
   112    55    52    1
   113    37    32   am
   114    32    33    2
   115    32    31    1
   116    40    39    2
   117    43    44    1
   118    43    42    1
   119    52    51    1
   120    52    53    1
   121    31    30    1
   122    51    44   am
   123    44    45    2
   124    53    54    2
