@<TRIPOS>MOLECULE
tmp/4n2zA03.pdb
 161 153 0 0 0
SMALL
GASTEIGER

@<TRIPOS>ATOM
      1  N        -17.3650  -17.7050    1.6140 N.3    52  TYR52      -0.1241
      2  CA       -17.7600  -18.8340    0.7860 C.3    52  TYR52       0.1605
      3  C        -17.2360  -20.1260    1.3350 C.2    52  TYR52       0.2264
      4  O        -16.0890  -20.1940    1.8750 O.2    52  TYR52      -0.2867
      5  CB       -17.0850  -18.6990   -0.5790 C.3    52  TYR52       0.0534
      6  CG       -17.6780  -17.6360   -1.4480 C.ar   52  TYR52      -0.0201
      7  CD1      -17.5160  -16.2630   -1.1780 C.ar   52  TYR52      -0.0009
      8  CD2      -18.2870  -17.9840   -2.6550 C.ar   52  TYR52      -0.0009
      9  CE1      -18.0690  -15.2910   -2.0730 C.ar   52  TYR52       0.0417
     10  CE2      -18.8970  -17.0340   -3.4590 C.ar   52  TYR52       0.0417
     11  CZ       -18.7570  -15.7190   -3.1900 C.ar   52  TYR52       0.1957
     12  OH       -19.3010  -14.8210   -4.1110 O.3    52  TYR52      -0.2866
     13  N        -12.1480  -20.2090    3.5300 N.3    82  TYR82      -0.1241
     14  CA       -12.5440  -19.8470    2.1390 C.3    82  TYR82       0.1605
     15  C        -12.4120  -21.0610    1.2290 C.2    82  TYR82       0.2264
     16  O        -11.3120  -21.6070    1.0840 O.2    82  TYR82      -0.2867
     17  CB       -11.6460  -18.7170    1.6720 C.3    82  TYR82       0.0534
     18  CG       -11.7840  -18.3130    0.2560 C.ar   82  TYR82      -0.0201
     19  CD1      -12.9970  -18.3300   -0.3860 C.ar   82  TYR82      -0.0009
     20  CD2      -10.6740  -17.8610   -0.4590 C.ar   82  TYR82      -0.0009
     21  CE1      -13.1110  -17.9420   -1.7240 C.ar   82  TYR82       0.0417
     22  CE2      -10.7990  -17.4650   -1.7780 C.ar   82  TYR82       0.0417
     23  CZ       -12.0440  -17.4860   -2.3820 C.ar   82  TYR82       0.1957
     24  OH       -12.1240  -17.0300   -3.6770 O.3    82  TYR82      -0.2866
     25  N        -14.4310  -22.3040   -2.5950 N.3    84  ALA84      -0.1245
     26  CA       -15.4380  -21.9720   -3.5990 C.3    84  ALA84       0.1562
     27  C        -15.1930  -22.6790   -4.8970 C.2    84  ALA84       0.2260
     28  O        -14.0590  -23.0280   -5.2250 O.2    84  ALA84      -0.2867
     29  CB       -15.5040  -20.4810   -3.8240 C.3    84  ALA84       0.0290
     30  N        -11.1350  -23.5530   -5.0620 N.3   102  GLN102     -0.1245
     31  CA       -10.2250  -22.4890   -4.7560 C.3   102  GLN102      0.1566
     32  C        -10.2820  -22.1440   -3.2780 C.2   102  GLN102      0.2260
     33  O        -11.3020  -22.3290   -2.5870 O.2   102  GLN102     -0.2867
     34  CB       -10.5530  -21.2490   -5.5690 C.3   102  GLN102      0.0367
     35  CG       -11.7840  -20.5220   -5.1090 C.3   102  GLN102      0.0905
     36  CD       -12.5040  -19.8940   -6.2450 C.2   102  GLN102      0.2608
     37  OE1      -12.6540  -20.4610   -7.3190 O.2   102  GLN102     -0.2717
     38  NE2      -13.0210  -18.6550   -5.9900 N.am  102  GLN102     -0.0878
     39  N         -9.1440  -11.5560   -9.2060 N.3   143  TYR143     -0.1241
     40  CA        -9.1840  -12.5780   -8.1740 C.3   143  TYR143      0.1605
     41  C         -8.8380  -13.8890   -8.9070 C.2   143  TYR143      0.2264
     42  O         -9.2570  -14.1050  -10.0490 O.2   143  TYR143     -0.2867
     43  CB       -10.5960  -12.7320   -7.6280 C.3   143  TYR143      0.0534
     44  CG       -11.0720  -11.5050   -6.9190 C.ar  143  TYR143     -0.0201
     45  CD1      -10.6530  -11.2360   -5.6310 C.ar  143  TYR143     -0.0009
     46  CD2      -11.8630  -10.5800   -7.5870 C.ar  143  TYR143     -0.0009
     47  CE1      -11.0790  -10.0720   -4.9760 C.ar  143  TYR143      0.0417
     48  CE2      -12.2940   -9.4290   -6.9650 C.ar  143  TYR143      0.0417
     49  CZ       -11.9030   -9.1870   -5.6560 C.ar  143  TYR143      0.1957
     50  OH       -12.3370   -8.0170   -5.0750 O.3   143  TYR143     -0.2866
     51  N         -9.4210  -17.4990   -9.5090 N.3   145  VAL145     -0.1245
     52  CA       -10.6480  -18.2360   -9.3750 C.3   145  VAL145      0.1561
     53  C        -10.9180  -19.3900  -10.3700 C.2   145  VAL145      0.2260
     54  O        -10.4110  -19.3910  -11.4000 O.2   145  VAL145     -0.2867
     55  CB       -11.8600  -17.2760   -9.4980 C.3   145  VAL145      0.0252
     56  CG1      -11.8220  -16.2320   -8.4200 C.3   145  VAL145      0.0019
     57  CG2      -11.9350  -16.6720  -10.8740 C.3   145  VAL145      0.0019
     58  N        -10.3280  -13.1420  -13.3930 N.3   163  ASP163     -0.1239
     59  CA       -11.3480  -12.1370  -13.4670 C.3   163  ASP163      0.1674
     60  C        -10.6900  -10.8950  -14.1290 C.2   163  ASP163      0.2266
     61  O        -11.1290   -9.7550  -13.8660 O.2   163  ASP163     -0.2867
     62  CB       -11.9040  -11.7620  -12.0980 C.3   163  ASP163      0.1410
     63  CG       -12.9860  -12.6700  -11.6270 C.2   163  ASP163      0.3668
     64  OD1      -13.3290  -13.6200  -12.3340 O.co2 163  ASP163     -0.2456
     65  OD2      -13.5500  -12.3050  -10.5360 O.co2 163  ASP163     -0.2456
     66  N        -11.5440   -8.4100  -20.2100 N.3   192  ARG192     -0.1245
     67  CA       -12.0080   -9.0100  -18.9570 C.3   192  ARG192      0.1563
     68  C        -13.3850   -9.6390  -19.1600 C.2   192  ARG192      0.2260
     69  O        -13.6090  -10.7710  -18.8390 O.2   192  ARG192     -0.2867
     70  CB       -12.1270   -7.9280  -17.8810 C.3   192  ARG192      0.0307
     71  CG       -12.4200   -8.3830  -16.4850 C.3   192  ARG192      0.0489
     72  CD       -12.5790   -7.2590  -15.4730 C.3   192  ARG192      0.2205
     73  NE       -13.9470   -6.7950  -15.5860 N.pl3 192  ARG192     -0.0865
     74  CZ       -14.8690   -6.7090  -14.6280 C.cat 192  ARG192      0.5346
     75  NH1      -14.6120   -6.9310  -13.3660 N.pl3 192  ARG192      0.1354
     76  NH2      -16.0670   -6.3270  -14.9610 N.pl3 192  ARG192      0.1354
     77  N        -14.1980  -14.1200  -18.7250 N.3   196  PHE196     -0.1227
     78  CA       -14.1140  -13.6260  -17.3840 C.3   196  PHE196      0.1736
     79  C        -13.7680  -14.7170  -16.3460 C.2   196  PHE196      0.2598
     80  O        -12.7820  -14.5900  -15.6000 O.2   196  PHE196     -0.2717
     81  CB       -15.4350  -12.9460  -17.0220 C.3   196  PHE196      0.0547
     82  CG       -15.4160  -12.2120  -15.7440 C.ar  196  PHE196     -0.0202
     83  CD1      -14.4660  -11.2130  -15.4970 C.ar  196  PHE196     -0.0042
     84  CD2      -16.3570  -12.4880  -14.7300 C.ar  196  PHE196     -0.0042
     85  CE1      -14.4910  -10.4890  -14.2940 C.ar  196  PHE196     -0.0003
     86  CE2      -16.3440  -11.8020  -13.5580 C.ar  196  PHE196     -0.0003
     87  CZ       -15.4170  -10.8070  -13.3080 C.ar  196  PHE196     -0.0000
     88  N        -14.5690  -15.7830  -16.2780 N.am  197  GLU197     -0.1934
     89  CA       -14.3860  -16.8370  -15.2450 C.3   197  GLU197      0.1818
     90  C        -15.1530  -18.1090  -15.5680 C.2   197  GLU197      0.2332
     91  O        -15.7000  -18.2500  -16.7140 O.2   197  GLU197     -0.2860
     92  CB       -14.6980  -16.2680  -13.8700 C.2   197  GLU197      0.0097
     93  CG       -16.1440  -15.9860  -13.5880 C.2   197  GLU197      0.0837
     94  CD       -16.4400  -15.1820  -12.3230 C.2   197  GLU197      0.3877
     95  OE1      -15.4890  -14.8020  -11.6020 O.co2 197  GLU197     -0.2406
     96  OE2      -17.6330  -14.9440  -12.0710 O.co2 197  GLU197     -0.2406
     97  N        -19.4520  -11.3920  -19.4160 N.3   216  ILE216     -0.1245
     98  CA       -20.4060  -10.3550  -18.9840 C.3   216  ILE216      0.1561
     99  C        -20.7700   -9.5580  -20.2020 C.2   216  ILE216      0.2260
    100  O        -19.8920   -8.9420  -20.8470 O.2   216  ILE216     -0.2867
    101  CB       -19.8270   -9.4500  -17.9400 C.3   216  ILE216      0.0252
    102  CG1      -19.3470  -10.2660  -16.7300 C.3   216  ILE216      0.0019
    103  CG2      -20.8520   -8.4280  -17.4740 C.3   216  ILE216      0.0019
    104  CD1      -18.5890   -9.4680  -15.6640 C.3   216  ILE216      0.0001
    105  N        -24.9160   -6.3760  -19.3060 N.3   220  GLY220     -0.1225
    106  CA       -24.4850   -6.5360  -17.9330 C.3   220  GLY220      0.1811
    107  C        -24.7960   -7.9360  -17.4260 C.2   220  GLY220      0.2280
    108  O        -24.3890   -8.2830  -16.2940 O.2   220  GLY220     -0.2866
    109  N        -24.7650  -12.2450  -17.4120 N.3   222  ARG222     -0.1245
    110  CA       -23.8210  -13.3560  -17.6360 C.3   222  ARG222      0.1563
    111  C        -24.2710  -14.2510  -18.7910 C.2   222  ARG222      0.2260
    112  O        -25.4440  -14.4480  -18.9640 O.2   222  ARG222     -0.2867
    113  CB       -23.6720  -14.1700  -16.3710 C.3   222  ARG222      0.0307
    114  CG       -23.2270  -13.4110  -15.1670 C.3   222  ARG222      0.0489
    115  CD       -22.0370  -12.5210  -15.4040 C.3   222  ARG222      0.2205
    116  NE       -21.5260  -11.8470  -14.2060 N.pl3 222  ARG222     -0.0865
    117  CZ       -20.4650  -12.2340  -13.4600 C.cat 222  ARG222      0.5346
    118  NH1      -19.8400  -13.3880  -13.6680 N.pl3 222  ARG222      0.1354
    119  NH2      -20.0580  -11.4800  -12.4670 N.pl3 222  ARG222      0.1354
    120  N        -22.3230   -8.0530   -4.6390 N.3   301  TYR301     -0.1227
    121  CA       -22.1710   -9.3340   -5.3520 C.3   301  TYR301      0.1736
    122  C        -22.3120  -10.5530   -4.4630 C.2   301  TYR301      0.2595
    123  O        -23.0650  -11.5050   -4.7720 O.2   301  TYR301     -0.2718
    124  CB       -20.8170   -9.3890   -6.0450 C.3   301  TYR301      0.0548
    125  CG       -20.7260  -10.6850   -6.8400 C.ar  301  TYR301     -0.0200
    126  CD1      -21.3250  -10.7890   -8.0700 C.ar  301  TYR301     -0.0009
    127  CD2      -20.0910  -11.7890   -6.3130 C.ar  301  TYR301     -0.0009
    128  CE1      -21.2400  -11.9700   -8.7980 C.ar  301  TYR301      0.0417
    129  CE2      -20.0210  -12.9620   -7.0260 C.ar  301  TYR301      0.0417
    130  CZ       -20.6070  -13.0590   -8.2560 C.ar  301  TYR301      0.1957
    131  OH       -20.5450  -14.2990   -8.9280 O.3   301  TYR301     -0.2866
    132  N        -21.6270  -10.5680   -3.3180 N.am  302  ASN302     -0.1974
    133  CA       -21.6380  -11.7640   -2.4700 C.3   302  ASN302      0.1688
    134  C        -22.9650  -12.1160   -1.8370 C.2   302  ASN302      0.2292
    135  O        -23.1420  -13.2770   -1.3980 O.2   302  ASN302     -0.2864
    136  CB       -20.5190  -11.7070   -1.4460 C.3   302  ASN302      0.1181
    137  CG       -19.1260  -11.8030   -2.0990 C.2   302  ASN302      0.2629
    138  OD1      -18.9730  -12.3180   -3.1770 O.2   302  ASN302     -0.2716
    139  ND2      -18.1900  -11.2240   -1.5180 N.am  302  ASN302     -0.0877
    140  N        -25.9610  -11.6110   -3.5590 N.3   304  LEU304     -0.1245
    141  CA       -26.9110  -11.8220   -4.6390 C.3   304  LEU304      0.1561
    142  C        -27.6490  -13.1600   -4.5230 C.2   304  LEU304      0.2260
    143  O        -27.0790  -14.1470   -4.0150 O.2   304  LEU304     -0.2867
    144  CB       -26.3200  -11.6200   -6.0260 C.3   304  LEU304      0.0270
    145  CG       -25.7530  -10.2390   -6.4020 C.3   304  LEU304      0.0019
    146  CD1      -24.9790  -10.3520   -7.7260 C.3   304  LEU304      0.0001
    147  CD2      -26.8270   -9.1400   -6.4390 C.3   304  LEU304      0.0001
    148  N        -28.5030  -15.9430   -5.8910 N.3   306  TRP306     -0.1241
    149  CA       -28.2230  -16.9650   -6.9000 C.3   306  TRP306      0.1605
    150  C        -28.9780  -18.2760   -6.5460 C.2   306  TRP306      0.2264
    151  O        -28.9940  -18.7120   -5.4300 O.2   306  TRP306     -0.2867
    152  CB       -26.7290  -17.2770   -7.0160 C.3   306  TRP306      0.0550
    153  CG       -25.8990  -16.1620   -7.6170 C.ar  306  TRP306      0.0003
    154  CD1      -25.1350  -15.2790   -6.8770 C.ar  306  TRP306      0.0946
    155  CD2      -25.8610  -15.6850   -8.9830 C.ar  306  TRP306      0.0152
    156  NE1      -24.5710  -14.3730   -7.6980 N.ar  306  TRP306     -0.2442
    157  CE2      -24.9720  -14.5980   -9.0090 C.ar  306  TRP306      0.0810
    158  CE3      -26.3500  -16.1560  -10.1980 C.ar  306  TRP306      0.0012
    159  CZ2      -24.6320  -13.9350  -10.1680 C.ar  306  TRP306      0.0191
    160  CZ3      -26.0540  -15.4310  -11.3850 C.ar  306  TRP306      0.0001
    161  CH2      -25.1550  -14.3570  -11.3640 C.ar  306  TRP306      0.0015
@<TRIPOS>BOND
     1   100    99    2
     2    66    67    1
     3    99    98    1
     4    97    98    1
     5   105   106    1
     6    68    67    1
     7    68    69    2
     8    98   101    1
     9   112   111    2
    10    67    70    1
    11   111   110    1
    12    77    78    1
    13   101   103    1
    14   101   102    1
    15   106   107    1
    16    70    71    1
    17   110   109    1
    18   110   113    1
    19   107   108    2
    20    78    81    1
    21    78    79    1
    22    81    82    1
    23   102   104    1
    24    91    90    2
    25    71    72    1
    26   113   114    1
    27    79    88   am
    28    79    80    2
    29    88    89    1
    30    82    83   ar
    31    82    84   ar
    32    73    72    1
    33    73    74    2
    34    90    89    1
    35    83    85   ar
    36   115   114    1
    37   115   116    1
    38    89    92    1
    39    76    74    1
    40    84    86   ar
    41    74    75    1
    42    85    87   ar
    43   116   117    2
    44    60    61    2
    45    60    59    1
    46    92    93    2
    47   118   117    1
    48    93    94    1
    49    86    87   ar
    50    59    58    1
    51    59    62    1
    52   117   119    1
    53    64    63   ar
    54    94    96   ar
    55    94    95   ar
    56    62    63    1
    57    63    65   ar
    58    54    53    2
    59   160   161   ar
    60   160   158   ar
    61   161   159   ar
    62    57    55    1
    63    53    52    1
    64   158   155   ar
    65   159   157   ar
    66    42    41    2
    67    51    52    1
    68    55    52    1
    69    55    56    1
    70    39    40    1
    71   157   155   ar
    72   157   156   ar
    73   155   153   ar
    74   131   130    1
    75    41    40    1
    76   128   130   ar
    77   128   126   ar
    78   130   129   ar
    79    40    43    1
    80   126   125   ar
    81   146   145    1
    82   156   154   ar
    83    43    44    1
    84   153   152    1
    85   153   154   ar
    86    46    48   ar
    87    46    44   ar
    88    37    36    2
    89   129   127   ar
    90   152   149    1
    91    48    49   ar
    92    44    45   ar
    93   149   150    1
    94   149   148    1
    95   125   127   ar
    96   125   124    1
    97   150   151    2
    98   147   145    1
    99   145   144    1
   100    36    38   am
   101    36    35    1
   102   124   121    1
   103   144   141    1
   104    49    50    1
   105    49    47   ar
   106    45    47   ar
   107    34    35    1
   108    34    31    1
   109   121   120    1
   110   121   122    1
   111    28    27    2
   112    30    31    1
   113    27    26    1
   114   123   122    2
   115    31    32    1
   116   141   142    1
   117   141   140    1
   118   142   143    2
   119   122   132   am
   120    12    11    1
   121    29    26    1
   122    24    23    1
   123    26    25    1
   124    10    11   ar
   125    10     8   ar
   126   132   133    1
   127    32    33    2
   128    11     9   ar
   129   138   137    2
   130     8     6   ar
   131   133   134    1
   132   133   136    1
   133    23    22   ar
   134    23    21   ar
   135   137   139   am
   136   137   136    1
   137     9     7   ar
   138   134   135    2
   139    22    20   ar
   140    21    19   ar
   141     6     7   ar
   142     6     5    1
   143     5     2    1
   144    20    18   ar
   145    19    18   ar
   146    18    17    1
   147     2     3    1
   148     2     1    1
   149    16    15    2
   150    15    14    1
   151     3     4    2
   152    17    14    1
   153    14    13    1
