@<TRIPOS>MOLECULE
tmp/4n31B00.pdb
 71 64 0 0 0
SMALL
GASTEIGER

@<TRIPOS>ATOM
      1  N         57.5680   12.3620  -12.2230 N.3     5  VAL5       -0.1245
      2  CA        57.1130   11.2550  -11.4420 C.3     5  VAL5        0.1561
      3  C         55.6000   11.3650  -11.2460 C.2     5  VAL5        0.2260
      4  O         55.1370   12.3760  -10.7680 O.2     5  VAL5       -0.2867
      5  CB        57.8190   11.2310  -10.0800 C.3     5  VAL5        0.0252
      6  CG1       57.2100   10.1470   -9.1930 C.3     5  VAL5        0.0019
      7  CG2       59.3180   11.0160  -10.2750 C.3     5  VAL5        0.0019
      8  N         51.7620    9.0120  -10.0690 N.3     7  ILE7       -0.1245
      9  CA        50.9550    7.8740   -9.6850 C.3     7  ILE7        0.1561
     10  C         49.8570    7.6530  -10.7160 C.2     7  ILE7        0.2260
     11  O         48.9950    8.4900  -10.9030 O.2     7  ILE7       -0.2867
     12  CB        50.3330    8.0880   -8.2920 C.3     7  ILE7        0.0252
     13  CG1       51.4290    8.4130   -7.2790 C.3     7  ILE7        0.0019
     14  CG2       49.6040    6.8260   -7.8240 C.3     7  ILE7        0.0019
     15  CD1       52.5410    7.3850   -7.2180 C.3     7  ILE7        0.0001
     16  N         47.4860    3.3140   -9.0800 N.3    20  GLY20      -0.1225
     17  CA        48.3620    3.1680   -7.9260 C.3    20  GLY20       0.1811
     18  C         49.8180    2.8670   -8.2560 C.2    20  GLY20       0.2280
     19  O         50.7130    3.0480   -7.4050 O.2    20  GLY20      -0.2866
     20  N         53.4580    3.6070   -9.4080 N.3    22  GLY22      -0.1210
     21  CA        54.3500    4.7300   -9.5760 C.3    22  GLY22       0.1956
     22  C         55.1640    4.6450  -10.8530 C.2    22  GLY22       0.2612
     23  O         55.7640    3.6270  -11.1190 O.2    22  GLY22      -0.2717
     24  N         55.2370    5.7520  -11.6050 N.am   23  VAL23      -0.1965
     25  CA        56.0570    5.8230  -12.7940 C.3    23  VAL23       0.1727
     26  C         57.0300    6.9890  -12.8680 C.2    23  VAL23       0.2616
     27  O         56.7750    8.0990  -12.3820 O.2    23  VAL23      -0.2715
     28  CB        55.2100    5.8200  -14.0690 C.3    23  VAL23       0.0290
     29  CG1       54.3680    4.5520  -14.1300 C.3    23  VAL23       0.0023
     30  CG2       54.3620    7.0860  -14.1600 C.3    23  VAL23       0.0023
     31  N         58.0850    6.7450  -13.6280 N.am   24  LEU24      -0.1977
     32  CA        59.0640    7.7560  -13.9990 C.3    24  LEU24       0.1596
     33  C         59.0380    7.9230  -15.4990 C.2    24  LEU24       0.2287
     34  O         59.0760    6.9340  -16.2640 O.2    24  LEU24      -0.2864
     35  CB        60.4430    7.2740  -13.5950 C.3    24  LEU24       0.0297
     36  CG        61.6520    8.1590  -13.6670 C.3    24  LEU24       0.0022
     37  CD1       61.6080    9.1460  -12.5130 C.3    24  LEU24       0.0001
     38  CD2       62.8530    7.2320  -13.5300 C.3    24  LEU24       0.0001
     39  N         60.1690    3.6420  -16.1650 N.3   128  THR128     -0.1218
     40  CA        60.2640    2.8240  -14.9350 C.3   128  THR128      0.1862
     41  C         58.9030    2.7560  -14.2600 C.2   128  THR128      0.2287
     42  O         58.1870    3.7640  -14.1640 O.2   128  THR128     -0.2866
     43  CB        61.2970    3.4010  -13.9400 C.3   128  THR128      0.1770
     44  OG1       62.5630    3.5400  -14.5710 O.3   128  THR128     -0.2211
     45  CG2       61.4550    2.5190  -12.7250 C.3   128  THR128      0.0375
     46  N         57.0140    1.1840  -10.6310 N.3   130  LEU130     -0.1245
     47  CA        57.1220    0.6400   -9.2820 C.3   130  LEU130      0.1561
     48  C         55.7120    0.4180   -8.8040 C.2   130  LEU130      0.2260
     49  O         54.9270    1.3650   -8.7240 O.2   130  LEU130     -0.2867
     50  CB        57.8500    1.6110   -8.3320 C.3   130  LEU130      0.0270
     51  CG        58.1200    1.1860   -6.8840 C.3   130  LEU130      0.0019
     52  CD1       59.0390   -0.0190   -6.9020 C.3   130  LEU130      0.0001
     53  CD2       58.7130    2.3040   -6.0250 C.3   130  LEU130      0.0001
     54  N         53.5080   -1.2210   -5.8570 N.3   132  VAL132     -0.1231
     55  CA        53.7080   -1.5000   -4.4670 C.3   132  VAL132      0.1692
     56  C         52.5170   -2.1650   -3.8310 C.2   132  VAL132      0.2591
     57  O         52.5620   -2.4450   -2.6490 O.2   132  VAL132     -0.2718
     58  CB        54.0480   -0.2330   -3.6620 C.3   132  VAL132      0.0266
     59  CG1       55.2720    0.4250   -4.2620 C.3   132  VAL132      0.0020
     60  CG2       52.8530    0.7130   -3.5720 C.3   132  VAL132      0.0020
     61  N         51.4750   -2.4710   -4.5980 N.am  133  ARG133     -0.1980
     62  CA        50.3820   -3.2670   -4.0540 C.3   133  ARG133      0.1597
     63  C         49.5620   -3.8360   -5.1760 C.2   133  ARG133      0.2287
     64  O         49.7790   -3.5100   -6.3350 O.2   133  ARG133     -0.2864
     65  CB        49.4960   -2.4460   -3.1140 C.3   133  ARG133      0.0334
     66  CG        48.6120   -1.4240   -3.8090 C.3   133  ARG133      0.0492
     67  CD        48.4680   -0.1370   -2.9820 C.3   133  ARG133      0.2205
     68  NE        48.2950    1.0780   -3.7860 N.pl3 133  ARG133     -0.0865
     69  CZ        47.2260    1.3230   -4.5510 C.cat 133  ARG133      0.5346
     70  NH1       46.2950    0.3880   -4.7270 N.pl3 133  ARG133      0.1354
     71  NH2       47.0860    2.4930   -5.1680 N.pl3 133  ARG133      0.1354
@<TRIPOS>BOND
     1    34    33    2
     2    39    40    1
     3    33    32    1
     4    40    41    1
     5    40    43    1
     6    44    43    1
     7    41    42    2
     8    30    28    1
     9    29    28    1
    10    28    25    1
    11    32    31    1
    12    32    35    1
    13    43    45    1
    14    36    35    1
    15    36    38    1
    16    36    37    1
    17    31    26   am
    18    26    25    1
    19    26    27    2
    20    25    24    1
    21     1     2    1
    22    24    22   am
    23     2     3    1
    24     2     5    1
    25     3     4    2
    26    23    22    2
    27    11    10    2
    28    22    21    1
    29    10     9    1
    30    46    47    1
    31     7     5    1
    32     5     6    1
    33     8     9    1
    34     9    12    1
    35    21    20    1
    36    47    48    1
    37    47    50    1
    38    16    17    1
    39    48    49    2
    40    50    51    1
    41    12    14    1
    42    12    13    1
    43    18    17    1
    44    18    19    2
    45    13    15    1
    46    52    51    1
    47    51    53    1
    48    64    63    2
    49    54    55    1
    50    63    62    1
    51    71    69    1
    52    70    69    1
    53    61    62    1
    54    61    56   am
    55    69    68    2
    56    55    56    1
    57    55    58    1
    58    59    58    1
    59    62    65    1
    60    56    57    2
    61    66    65    1
    62    66    67    1
    63    68    67    1
    64    58    60    1
