@<TRIPOS>MOLECULE
tmp/4n35A00.pdb
 87 81 0 0 0
SMALL
GASTEIGER

@<TRIPOS>ATOM
      1  N         34.5000   35.5500    3.0220 N.3    88  GLU88      -0.1245
      2  CA        33.8100   35.2260    4.2620 C.3    88  GLU88       0.1567
      3  C         33.9480   33.7200    4.5230 C.2    88  GLU88       0.2260
      4  O         34.1650   32.9570    3.5920 O.2    88  GLU88      -0.2867
      5  CB        32.3250   35.6430    4.1990 C.3    88  GLU88       0.0388
      6  CG        32.0580   37.0750    3.7090 C.3    88  GLU88       0.1160
      7  CD        32.5380   38.1540    4.6710 C.2    88  GLU88       0.3649
      8  OE1       32.8140   37.8480    5.8500 O.co2  88  GLU88      -0.2457
      9  OE2       32.6220   39.3310    4.2460 O.co2  88  GLU88      -0.2457
     10  N         35.0380   36.1070    7.6550 N.3    90  ASN90      -0.1240
     11  CA        36.2840   36.8150    7.9210 C.3    90  ASN90       0.1653
     12  C         36.4780   37.2220    9.3740 C.2    90  ASN90       0.2266
     13  O         37.5120   37.7970    9.7150 O.2    90  ASN90      -0.2867
     14  CB        36.4600   38.0170    6.9780 C.3    90  ASN90       0.1155
     15  CG        35.4040   39.0940    7.1770 C.2    90  ASN90       0.2627
     16  OD1       34.5480   39.0030    8.0610 O.2    90  ASN90      -0.2716
     17  ND2       35.4720   40.1330    6.3530 N.am   90  ASN90      -0.0877
     18  N         35.4080   39.6520   10.9360 N.3    92  ALA92      -0.1245
     19  CA        35.7760   41.0640   10.9370 C.3    92  ALA92       0.1562
     20  C         35.5700   41.6760   12.3210 C.2    92  ALA92       0.2260
     21  O         34.4940   41.5840   12.8910 O.2    92  ALA92      -0.2867
     22  CB        34.9760   41.8180    9.8850 C.3    92  ALA92       0.0290
     23  N         32.3350   38.3520   15.0220 N.3    96  GLU96      -0.1245
     24  CA        31.2950   37.8940   14.1040 C.3    96  GLU96       0.1567
     25  C         31.0330   36.4020   14.2600 C.2    96  GLU96       0.2260
     26  O         31.6140   35.5770   13.5600 O.2    96  GLU96      -0.2867
     27  CB        31.6650   38.2380   12.6710 C.3    96  GLU96       0.0388
     28  CG        32.0070   39.7070   12.5070 C.3    96  GLU96       0.1160
     29  CD        31.9500   40.1710   11.0780 C.2    96  GLU96       0.3649
     30  OE1       32.5150   39.4920   10.1890 O.co2  96  GLU96      -0.2457
     31  OE2       31.3200   41.2280   10.8290 O.co2  96  GLU96      -0.2457
     32  N         23.2530   37.4020    2.7380 N.3   102  LYS102     -0.1245
     33  CA        23.5410   38.8110    2.4650 C.3   102  LYS102      0.1561
     34  C         23.5110   39.1290    0.9790 C.2   102  LYS102      0.2260
     35  O         23.0260   40.1880    0.5810 O.2   102  LYS102     -0.2867
     36  CB        24.8990   39.1920    3.0710 C.3   102  LYS102      0.0271
     37  CG        25.4630   40.5450    2.6420 C.3   102  LYS102      0.0035
     38  CD        26.6790   40.8930    3.4940 C.3   102  LYS102      0.0206
     39  CE        27.3580   42.1880    3.0390 C.3   102  LYS102      0.1093
     40  NZ        28.5030   42.4910    3.9460 N.3   102  LYS102     -0.1314
     41  N         27.3810   35.7540    4.9670 N.3   110  ASN110     -0.1225
     42  CA        28.3550   36.5680    5.6810 C.3   110  ASN110      0.1785
     43  C         28.2600   36.3240    7.1780 C.2   110  ASN110      0.2597
     44  O         27.1600   36.1780    7.7300 O.2   110  ASN110     -0.2718
     45  CB        28.1330   38.0600    5.4070 C.3   110  ASN110      0.1169
     46  CG        29.0550   38.9360    6.2320 C.2   110  ASN110      0.2627
     47  OD1       30.2600   38.6870    6.2880 O.2   110  ASN110     -0.2716
     48  ND2       28.4950   39.9380    6.9080 N.am  110  ASN110     -0.0877
     49  N         29.4060   36.2590    7.8450 N.am  111  ASP111     -0.1960
     50  CA        29.4090   36.2850    9.2940 C.3   111  ASP111      0.1840
     51  C         29.3580   37.7450    9.7480 C.2   111  ASP111      0.2622
     52  O         30.0260   38.6020    9.1790 O.2   111  ASP111     -0.2715
     53  CB        30.6180   35.5250    9.8700 C.3   111  ASP111      0.1450
     54  CG        31.9700   36.0950    9.4150 C.2   111  ASP111      0.3671
     55  OD1       32.0670   36.6430    8.2980 O.co2 111  ASP111     -0.2456
     56  OD2       32.9550   35.9510   10.1740 O.co2 111  ASP111     -0.2456
     57  N         28.5320   38.0230   10.7470 N.am  112  ALA112     -0.1964
     58  CA        28.3480   39.3760   11.2590 C.3   112  ALA112      0.1713
     59  C         28.1590   39.2970   12.7610 C.2   112  ALA112      0.2458
     60  O         27.9210   38.2170   13.2960 O.2   112  ALA112     -0.2730
     61  CB        27.1370   40.0330   10.5880 C.3   112  ALA112      0.0333
     62  N         28.2990   40.4300   13.4610 N.am  113  PRO113     -0.2727
     63  CA        28.0740   40.4350   14.9030 C.3   113  PRO113      0.1402
     64  C         26.6530   40.0390   15.2790 C.2   113  PRO113      0.2269
     65  O         25.6740   40.5710   14.7420 O.2   113  PRO113     -0.2865
     66  CB        28.3490   41.8930   15.2920 C.3   113  PRO113      0.0296
     67  CG        29.3380   42.3410   14.2780 C.3   113  PRO113      0.0237
     68  CD        28.9020   41.6950   13.0020 C.3   113  PRO113      0.0939
     69  N         23.7810   42.6550   15.9610 N.3   116  ILE116     -0.1245
     70  CA        23.1940   43.5210   14.9340 C.3   116  ILE116      0.1561
     71  C         21.7750   43.0510   14.6060 C.2   116  ILE116      0.2260
     72  O         21.5180   41.8540   14.5700 O.2   116  ILE116     -0.2867
     73  CB        24.0400   43.5280   13.6370 C.3   116  ILE116      0.0252
     74  CG1       25.4910   43.9320   13.9280 C.3   116  ILE116      0.0019
     75  CG2       23.4300   44.4570   12.5860 C.3   116  ILE116      0.0019
     76  CD1       25.6680   45.3840   14.2430 C.3   116  ILE116      0.0001
     77  N         18.7960   42.3080   12.0380 N.3   118  PHE118     -0.1241
     78  CA        18.4520   42.0980   10.6450 C.3   118  PHE118      0.1605
     79  C         17.1160   41.3780   10.6380 C.2   118  PHE118      0.2264
     80  O         16.7110   40.7950   11.6500 O.2   118  PHE118     -0.2867
     81  CB        19.4530   41.1730    9.9450 C.3   118  PHE118      0.0534
     82  CG        20.8180   41.7580    9.7490 C.ar  118  PHE118     -0.0203
     83  CD1       21.0130   42.8340    8.8960 C.ar  118  PHE118     -0.0042
     84  CD2       21.9210   41.1920   10.3750 C.ar  118  PHE118     -0.0042
     85  CE1       22.2870   43.3590    8.6950 C.ar  118  PHE118     -0.0003
     86  CE2       23.1870   41.7020   10.1730 C.ar  118  PHE118     -0.0003
     87  CZ        23.3700   42.7920    9.3320 C.ar  118  PHE118     -0.0000
@<TRIPOS>BOND
     1    35    34    2
     2    34    33    1
     3    33    32    1
     4    33    36    1
     5    37    36    1
     6    37    38    1
     7     1     2    1
     8    39    38    1
     9    39    40    1
    10     4     3    2
    11     6     5    1
    12     6     7    1
    13     5     2    1
    14     9     7   ar
    15     2     3    1
    16     7     8   ar
    17    41    42    1
    18    45    42    1
    19    45    46    1
    20    42    43    1
    21    46    47    2
    22    46    48   am
    23    17    15   am
    24    14    15    1
    25    14    11    1
    26    15    16    2
    27    43    44    2
    28    43    49   am
    29    10    11    1
    30    49    50    1
    31    11    12    1
    32    55    54   ar
    33    85    83   ar
    34    85    87   ar
    35    83    82   ar
    36    52    51    2
    37    50    51    1
    38    50    53    1
    39    87    86   ar
    40    12    13    2
    41    54    53    1
    42    54    56   ar
    43    51    57   am
    44    82    81    1
    45    82    84   ar
    46    22    19    1
    47    81    78    1
    48    86    84   ar
    49    30    29   ar
    50    61    58    1
    51    79    78    1
    52    79    80    2
    53    78    77    1
    54    57    58    1
    55    31    29   ar
    56    18    19    1
    57    19    20    1
    58    29    28    1
    59    58    59    1
    60    20    21    2
    61    28    27    1
    62    75    73    1
    63    27    24    1
    64    59    60    2
    65    59    62   am
    66    68    62    1
    67    68    67    1
    68    62    63    1
    69    26    25    2
    70    73    74    1
    71    73    70    1
    72    74    76    1
    73    24    25    1
    74    24    23    1
    75    67    66    1
    76    72    71    2
    77    71    70    1
    78    65    64    2
    79    63    64    1
    80    63    66    1
    81    70    69    1
