@<TRIPOS>MOLECULE
tmp/4n36A00.pdb
 87 81 0 0 0
SMALL
GASTEIGER

@<TRIPOS>ATOM
      1  N         34.3290   35.5570    3.1300 N.3    88  GLU88      -0.1245
      2  CA        33.6350   35.2750    4.3790 C.3    88  GLU88       0.1567
      3  C         33.7570   33.7880    4.6880 C.2    88  GLU88       0.2260
      4  O         33.9130   32.9800    3.7750 O.2    88  GLU88      -0.2867
      5  CB        32.1580   35.6860    4.2940 C.3    88  GLU88       0.0388
      6  CG        31.9150   37.1030    3.7880 C.3    88  GLU88       0.1160
      7  CD        32.4930   38.1810    4.6900 C.2    88  GLU88       0.3649
      8  OE1       32.7710   37.9110    5.8820 O.co2  88  GLU88      -0.2457
      9  OE2       32.6520   39.3280    4.2030 O.co2  88  GLU88      -0.2457
     10  N         34.8730   36.2350    7.9470 N.3    90  ASN90      -0.1240
     11  CA        36.1220   36.9390    8.2540 C.3    90  ASN90       0.1653
     12  C         36.2740   37.5060    9.6670 C.2    90  ASN90       0.2266
     13  O         37.3120   38.0850    9.9850 O.2    90  ASN90      -0.2867
     14  CB        36.4400   38.0090    7.2000 C.3    90  ASN90       0.1155
     15  CG        35.3810   39.0900    7.1130 C.2    90  ASN90       0.2627
     16  OD1       34.4370   39.1320    7.9080 O.2    90  ASN90      -0.2716
     17  ND2       35.5410   39.9870    6.1400 N.am   90  ASN90      -0.0877
     18  N         35.1320   40.1150   11.5310 N.3    92  ALA92      -0.1245
     19  CA        35.5430   41.5150   11.6080 C.3    92  ALA92       0.1562
     20  C         35.4940   42.0320   13.0370 C.2    92  ALA92       0.2260
     21  O         34.5130   41.8180   13.7500 O.2    92  ALA92      -0.2867
     22  CB        34.6760   42.3710   10.7060 C.3    92  ALA92       0.0290
     23  N         32.2090   38.8190   14.9740 N.3    96  GLU96      -0.1245
     24  CA        31.1830   38.3380   14.0450 C.3    96  GLU96       0.1567
     25  C         30.9680   36.8360   14.2380 C.2    96  GLU96       0.2260
     26  O         31.5890   36.0060   13.5670 O.2    96  GLU96      -0.2867
     27  CB        31.5630   38.6550   12.5970 C.3    96  GLU96       0.0388
     28  CG        31.9080   40.1270   12.3750 C.3    96  GLU96       0.1160
     29  CD        31.8560   40.5560   10.9210 C.2    96  GLU96       0.3649
     30  OE1       32.4110   39.8610   10.0400 O.co2  96  GLU96      -0.2457
     31  OE2       31.2560   41.6170   10.6560 O.co2  96  GLU96      -0.2457
     32  N         23.1170   37.4320    2.7780 N.3   102  LYS102     -0.1245
     33  CA        23.3860   38.8250    2.3820 C.3   102  LYS102      0.1561
     34  C         23.3370   39.0560    0.8640 C.2   102  LYS102      0.2260
     35  O         22.5780   39.9000    0.3810 O.2   102  LYS102     -0.2867
     36  CB        24.7220   39.2930    2.9710 C.3   102  LYS102      0.0271
     37  CG        25.2420   40.6500    2.4380 C.3   102  LYS102      0.0035
     38  CD        26.4730   41.0900    3.2230 C.3   102  LYS102      0.0206
     39  CE        27.1660   42.3240    2.6010 C.3   102  LYS102      0.1093
     40  NZ        28.4580   42.6150    3.2750 N.3   102  LYS102     -0.1314
     41  N         27.2250   35.9260    4.9700 N.3   110  ASN110     -0.1225
     42  CA        28.1930   36.7670    5.6490 C.3   110  ASN110      0.1785
     43  C         28.0960   36.5600    7.1550 C.2   110  ASN110      0.2597
     44  O         26.9960   36.3590    7.6960 O.2   110  ASN110     -0.2718
     45  CB        27.9510   38.2430    5.3030 C.3   110  ASN110      0.1169
     46  CG        28.8900   39.1810    6.0450 C.2   110  ASN110      0.2627
     47  OD1       30.0940   38.9250    6.1700 O.2   110  ASN110     -0.2716
     48  ND2       28.3380   40.2670    6.5600 N.am  110  ASN110     -0.0877
     49  N         29.2420   36.5810    7.8330 N.am  111  ASP111     -0.1960
     50  CA        29.2580   36.6530    9.2790 C.3   111  ASP111      0.1840
     51  C         29.2460   38.1190    9.7240 C.2   111  ASP111      0.2622
     52  O         29.9650   38.9560    9.1750 O.2   111  ASP111     -0.2715
     53  CB        30.4320   35.8440    9.8840 C.3   111  ASP111      0.1450
     54  CG        31.8130   36.3780    9.4840 C.2   111  ASP111      0.3671
     55  OD1       31.9600   36.9420    8.3820 O.co2 111  ASP111     -0.2456
     56  OD2       32.7650   36.1950   10.2780 O.co2 111  ASP111     -0.2456
     57  N         28.3860   38.4290   10.6880 N.am  112  ALA112     -0.1964
     58  CA        28.2070   39.7960   11.1890 C.3   112  ALA112      0.1713
     59  C         28.0770   39.7400   12.7000 C.2   112  ALA112      0.2458
     60  O         27.8630   38.6620   13.2490 O.2   112  ALA112     -0.2730
     61  CB        26.9610   40.4040   10.5790 C.3   112  ALA112      0.0333
     62  N         28.2090   40.8860   13.3910 N.am  113  PRO113     -0.2727
     63  CA        28.0210   40.8630   14.8450 C.3   113  PRO113      0.1402
     64  C         26.6100   40.4630   15.2510 C.2   113  PRO113      0.2269
     65  O         25.6400   40.9590   14.6810 O.2   113  PRO113     -0.2865
     66  CB        28.2930   42.3160   15.2600 C.3   113  PRO113      0.0296
     67  CG        29.1860   42.8460   14.1960 C.3   113  PRO113      0.0237
     68  CD        28.7410   42.1810   12.9250 C.3   113  PRO113      0.0939
     69  N         23.7190   43.1430   16.0370 N.3   116  ILE116     -0.1245
     70  CA        23.1260   43.9700   14.9830 C.3   116  ILE116      0.1561
     71  C         21.7090   43.4870   14.6760 C.2   116  ILE116      0.2260
     72  O         21.4600   42.2900   14.6800 O.2   116  ILE116     -0.2867
     73  CB        23.9530   43.8550   13.6870 C.3   116  ILE116      0.0252
     74  CG1       25.4000   44.2940   13.9320 C.3   116  ILE116      0.0019
     75  CG2       23.3240   44.6820   12.5710 C.3   116  ILE116      0.0019
     76  CD1       25.5080   45.6870   14.4870 C.3   116  ILE116      0.0001
     77  N         18.6780   42.7000   12.1060 N.3   118  PHE118     -0.1241
     78  CA        18.3450   42.4420   10.7110 C.3   118  PHE118      0.1605
     79  C         17.0060   41.7280   10.7060 C.2   118  PHE118      0.2264
     80  O         16.5860   41.1510   11.7210 O.2   118  PHE118     -0.2867
     81  CB        19.3490   41.4810   10.0440 C.3   118  PHE118      0.0534
     82  CG        20.7150   42.0680    9.7810 C.ar  118  PHE118     -0.0203
     83  CD1       20.8810   43.1000    8.8690 C.ar  118  PHE118     -0.0042
     84  CD2       21.8390   41.5560   10.4170 C.ar  118  PHE118     -0.0042
     85  CE1       22.1430   43.6320    8.6110 C.ar  118  PHE118     -0.0003
     86  CE2       23.1080   42.0760   10.1620 C.ar  118  PHE118     -0.0003
     87  CZ        23.2580   43.1190    9.2550 C.ar  118  PHE118     -0.0000
@<TRIPOS>BOND
     1    35    34    2
     2    34    33    1
     3    33    32    1
     4    33    36    1
     5    37    36    1
     6    37    38    1
     7    39    38    1
     8    39    40    1
     9     1     2    1
    10     4     3    2
    11     6     5    1
    12     6     7    1
    13     9     7   ar
    14     5     2    1
    15     2     3    1
    16     7     8   ar
    17    41    42    1
    18    45    42    1
    19    45    46    1
    20    42    43    1
    21    46    47    2
    22    46    48   am
    23    17    15   am
    24    15    14    1
    25    15    16    2
    26    43    44    2
    27    43    49   am
    28    14    11    1
    29    49    50    1
    30    10    11    1
    31    11    12    1
    32    55    54   ar
    33    85    83   ar
    34    85    87   ar
    35    83    82   ar
    36    52    51    2
    37    87    86   ar
    38    50    51    1
    39    50    53    1
    40    54    53    1
    41    54    56   ar
    42    12    13    2
    43    51    57   am
    44    82    81    1
    45    82    84   ar
    46    30    29   ar
    47    81    78    1
    48    86    84   ar
    49    61    58    1
    50    31    29   ar
    51    57    58    1
    52    22    19    1
    53    79    78    1
    54    79    80    2
    55    78    77    1
    56    29    28    1
    57    58    59    1
    58    18    19    1
    59    19    20    1
    60    28    27    1
    61    75    73    1
    62    27    24    1
    63    59    60    2
    64    59    62   am
    65    68    62    1
    66    68    67    1
    67    20    21    2
    68    62    63    1
    69    26    25    2
    70    73    74    1
    71    73    70    1
    72    74    76    1
    73    24    25    1
    74    24    23    1
    75    67    66    1
    76    71    72    2
    77    71    70    1
    78    65    64    2
    79    63    64    1
    80    63    66    1
    81    70    69    1
