@<TRIPOS>MOLECULE
tmp/4n38B00.pdb
 87 81 0 0 0
SMALL
GASTEIGER

@<TRIPOS>ATOM
      1  N         33.7220    0.3660   40.5780 N.3    88  GLU88      -0.1245
      2  CA        32.9740    0.7030   39.3800 C.3    88  GLU88       0.1567
      3  C         33.1950    2.1800   39.0620 C.2    88  GLU88       0.2260
      4  O         33.4860    2.9680   39.9580 O.2    88  GLU88      -0.2867
      5  CB        31.4790    0.3680   39.5650 C.3    88  GLU88       0.0388
      6  CG        31.2040   -1.0560   40.0960 C.3    88  GLU88       0.1160
      7  CD        31.4400   -2.1810   39.0760 C.2    88  GLU88       0.3649
      8  OE1       31.6500   -1.9140   37.8710 O.co2  88  GLU88      -0.2457
      9  OE2       31.3970   -3.3630   39.4850 O.co2  88  GLU88      -0.2457
     10  N         33.7340   -0.3500   35.7960 N.3    90  ASN90      -0.1240
     11  CA        34.8680   -1.2210   35.5060 C.3    90  ASN90       0.1653
     12  C         34.9020   -1.7360   34.0770 C.2    90  ASN90       0.2266
     13  O         35.8070   -2.4890   33.7050 O.2    90  ASN90      -0.2867
     14  CB        34.9670   -2.3710   36.5250 C.3    90  ASN90       0.1155
     15  CG        33.8440   -3.4000   36.3880 C.2    90  ASN90       0.2627
     16  OD1       32.9560   -3.2870   35.5370 O.2    90  ASN90      -0.2716
     17  ND2       33.8970   -4.4280   37.2320 N.am   90  ASN90      -0.0877
     18  N         33.5710   -4.0230   32.4740 N.3    92  ALA92      -0.1245
     19  CA        33.7570   -5.4650   32.3190 C.3    92  ALA92       0.1562
     20  C         33.5600   -5.9110   30.8760 C.2    92  ALA92       0.2260
     21  O         32.5030   -5.6800   30.2780 O.2    92  ALA92      -0.2867
     22  CB        32.8190   -6.2340   33.2390 C.3    92  ALA92       0.0290
     23  N         30.5020   -2.2120   28.8750 N.3    96  GLU96      -0.1245
     24  CA        29.5500   -1.6460   29.8300 C.3    96  GLU96       0.1567
     25  C         29.4460   -0.1260   29.6920 C.2    96  GLU96       0.2260
     26  O         30.1800    0.6300   30.3250 O.2    96  GLU96      -0.2867
     27  CB        29.9200   -2.0470   31.2550 C.3    96  GLU96       0.0388
     28  CG        30.1460   -3.5400   31.3740 C.3    96  GLU96       0.1160
     29  CD        30.0800   -4.0220   32.7880 C.2    96  GLU96       0.3649
     30  OE1       30.7290   -3.4020   33.6510 O.co2  96  GLU96      -0.2457
     31  OE2       29.3580   -5.0090   33.0330 O.co2  96  GLU96      -0.2457
     32  N         22.3980   -0.2550   41.6250 N.3   102  LYS102     -0.1245
     33  CA        22.5640   -1.6800   41.9240 C.3   102  LYS102      0.1561
     34  C         22.5470   -1.9820   43.4300 C.2   102  LYS102      0.2260
     35  O         21.8240   -2.8570   43.8870 O.2   102  LYS102     -0.2867
     36  CB        23.8680   -2.1880   41.2820 C.3   102  LYS102      0.0271
     37  CG        24.3470   -3.5610   41.7490 C.3   102  LYS102      0.0035
     38  CD        25.4000   -4.1120   40.7830 C.3   102  LYS102      0.0206
     39  CE        25.8340   -5.5300   41.1700 C.3   102  LYS102      0.1093
     40  NZ        26.5430   -6.2320   40.0560 N.3   102  LYS102     -0.1314
     41  N         26.5220    0.8680   39.1460 N.3   110  ASN110     -0.1225
     42  CA        27.3520   -0.0470   38.3800 C.3   110  ASN110      0.1785
     43  C         27.1930    0.2560   36.8970 C.2   110  ASN110      0.2597
     44  O         26.0910    0.5950   36.4400 O.2   110  ASN110     -0.2718
     45  CB        26.9540   -1.5080   38.6440 C.3   110  ASN110      0.1169
     46  CG        27.8000   -2.4790   37.8660 C.2   110  ASN110      0.2627
     47  OD1       29.0110   -2.3100   37.7750 O.2   110  ASN110     -0.2716
     48  ND2       27.1660   -3.4800   37.2640 N.am  110  ASN110     -0.0877
     49  N         28.2860    0.1570   36.1410 N.am  111  ASP111     -0.1960
     50  CA        28.1650    0.1760   34.6940 C.3   111  ASP111      0.1840
     51  C         27.9000   -1.2460   34.2000 C.2   111  ASP111      0.2622
     52  O         28.4960   -2.1990   34.6910 O.2   111  ASP111     -0.2715
     53  CB        29.4150    0.7810   34.0220 C.3   111  ASP111      0.1450
     54  CG        30.7060    0.0670   34.4080 C.2   111  ASP111      0.3671
     55  OD1       30.7590   -0.5150   35.5150 O.co2 111  ASP111     -0.2456
     56  OD2       31.6800    0.1200   33.6110 O.co2 111  ASP111     -0.2456
     57  N         26.9990   -1.3810   33.2360 N.am  112  ALA112     -0.1964
     58  CA        26.5680   -2.6830   32.7670 C.3   112  ALA112      0.1713
     59  C         26.2750   -2.5970   31.2840 C.2   112  ALA112      0.2458
     60  O         26.0780   -1.5040   30.7560 O.2   112  ALA112     -0.2730
     61  CB        25.3270   -3.1360   33.5360 C.3   112  ALA112      0.0333
     62  N         26.2700   -3.7480   30.5980 N.am  113  PRO113     -0.2727
     63  CA        25.9450   -3.8040   29.1700 C.3   113  PRO113      0.1402
     64  C         24.5580   -3.2420   28.8800 C.2   113  PRO113      0.2269
     65  O         23.5940   -3.6070   29.5620 O.2   113  PRO113     -0.2865
     66  CB        25.9600   -5.3040   28.8690 C.3   113  PRO113      0.0296
     67  CG        26.8960   -5.8750   29.8670 C.3   113  PRO113      0.0237
     68  CD        26.7160   -5.0550   31.1130 C.3   113  PRO113      0.0939
     69  N         21.4830   -5.5510   28.4540 N.3   116  ILE116     -0.1245
     70  CA        20.8980   -6.3260   29.5640 C.3   116  ILE116      0.1561
     71  C         19.5450   -5.7020   29.9160 C.2   116  ILE116      0.2260
     72  O         19.4160   -4.4770   29.9130 O.2   116  ILE116     -0.2867
     73  CB        21.8050   -6.3320   30.8090 C.3   116  ILE116      0.0252
     74  CG1       23.1970   -6.8710   30.4680 C.3   116  ILE116      0.0019
     75  CG2       21.1830   -7.1570   31.9440 C.3   116  ILE116      0.0019
     76  CD1       23.1710   -8.2260   29.7890 C.3   116  ILE116      0.0001
     77  N         16.7720   -4.6900   32.6270 N.3   118  PHE118     -0.1241
     78  CA        16.5570   -4.4360   34.0400 C.3   118  PHE118      0.1605
     79  C         15.3130   -3.5770   34.1520 C.2   118  PHE118      0.2264
     80  O         14.8930   -2.9510   33.1770 O.2   118  PHE118     -0.2867
     81  CB        17.6970   -3.6210   34.6520 C.3   118  PHE118      0.0534
     82  CG        19.0060   -4.3540   34.7740 C.ar  118  PHE118     -0.0203
     83  CD1       19.1130   -5.4960   35.5550 C.ar  118  PHE118     -0.0042
     84  CD2       20.1480   -3.8530   34.1620 C.ar  118  PHE118     -0.0042
     85  CE1       20.3260   -6.1560   35.6890 C.ar  118  PHE118     -0.0003
     86  CE2       21.3740   -4.5110   34.2890 C.ar  118  PHE118     -0.0003
     87  CZ        21.4590   -5.6660   35.0540 C.ar  118  PHE118     -0.0000
@<TRIPOS>BOND
     1    69    70    1
     2    66    63    1
     3    66    67    1
     4    23    24    1
     5    64    63    1
     6    64    65    2
     7    63    62    1
     8    70    71    1
     9    70    73    1
    10    25    24    1
    11    25    26    2
    12    76    74    1
    13    24    27    1
    14    67    68    1
    15    72    71    2
    16    21    20    2
    17    74    73    1
    18    62    68    1
    19    62    59   am
    20    60    59    2
    21    73    75    1
    22    20    19    1
    23    27    28    1
    24    59    58    1
    25    28    29    1
    26    19    18    1
    27    19    22    1
    28    77    78    1
    29    58    57    1
    30    58    61    1
    31    29    31   ar
    32    29    30   ar
    33    80    79    2
    34    57    51   am
    35    56    54   ar
    36    13    12    2
    37    53    54    1
    38    53    50    1
    39    78    79    1
    40    78    81    1
    41    12    11    1
    42    84    86   ar
    43    84    82   ar
    44    51    52    2
    45    51    50    1
    46    86    87   ar
    47    54    55   ar
    48    81    82    1
    49    50    49    1
    50    82    83   ar
    51    87    85   ar
    52    11    10    1
    53    11    14    1
    54    16    15    2
    55    83    85   ar
    56    49    43   am
    57    15    14    1
    58    15    17   am
    59    44    43    2
    60    43    42    1
    61    48    46   am
    62    47    46    2
    63    46    45    1
    64     8     7   ar
    65    42    45    1
    66    42    41    1
    67     3     2    1
    68     3     4    2
    69     7     9   ar
    70     7     6    1
    71     2     5    1
    72     2     1    1
    73     5     6    1
    74    40    39    1
    75    38    39    1
    76    38    37    1
    77    36    37    1
    78    36    33    1
    79    32    33    1
    80    33    34    1
    81    34    35    2
