@<TRIPOS>MOLECULE
tmp/4n3eI02.pdb
 80 76 0 0 0
SMALL
GASTEIGER

@<TRIPOS>ATOM
      1  N         57.7870  -13.6250  195.5670 N.3    22  ALA22      -0.1245
      2  CA        59.2160  -13.3110  195.6750 C.3    22  ALA22       0.1562
      3  C         59.5590  -11.9160  196.1220 C.2    22  ALA22       0.2260
      4  O         60.6090  -11.7080  196.7060 O.2    22  ALA22      -0.2867
      5  CB        59.8940  -13.5130  194.3160 C.3    22  ALA22       0.0290
      6  N         64.0620  -13.5940  199.6870 N.3    30  VAL30      -0.1245
      7  CA        64.5500  -13.6090  198.3070 C.3    30  VAL30       0.1561
      8  C         65.7050  -12.6560  198.2160 C.2    30  VAL30       0.2260
      9  O         66.6750  -12.8900  197.4940 O.2    30  VAL30      -0.2867
     10  CB        63.4610  -13.3790  197.2750 C.3    30  VAL30       0.0252
     11  CG1       64.0700  -13.1400  195.8970 C.3    30  VAL30       0.0019
     12  CG2       62.5400  -14.5910  197.2650 C.3    30  VAL30       0.0019
     13  N         69.0670  -14.6030  199.0240 N.3    33  LYS33      -0.1231
     14  CA        69.3670  -15.3330  197.7900 C.3    33  LYS33       0.1693
     15  C         69.9070  -14.5620  196.6160 C.2    33  LYS33       0.2591
     16  O         70.9170  -14.9870  196.0570 O.2    33  LYS33      -0.2718
     17  CB        68.1160  -16.1240  197.3750 C.3    33  LYS33       0.0285
     18  CG        67.8270  -17.2390  198.3920 C.3    33  LYS33       0.0035
     19  CD        66.3630  -17.6560  198.4980 C.3    33  LYS33       0.0206
     20  CE        66.1820  -18.9300  199.3400 C.3    33  LYS33       0.1093
     21  NZ        66.8170  -18.9320  200.6980 N.3    33  LYS33      -0.1314
     22  N         69.2700  -13.4580  196.2190 N.am   34  ALA34      -0.1980
     23  CA        69.7260  -12.6070  195.0690 C.3    34  ALA34       0.1597
     24  C         71.0240  -11.9050  195.2080 C.2    34  ALA34       0.2287
     25  O         71.7620  -11.7080  194.2360 O.2    34  ALA34      -0.2864
     26  CB        68.6860  -11.5560  194.7040 C.3    34  ALA34       0.0319
     27  N         66.8880   -8.8940  188.9800 N.3   146  GLN146     -0.1231
     28  CA        67.6310  -10.1790  189.2340 C.3   146  GLN146      0.1698
     29  C         66.6240  -11.2460  189.5040 C.2   146  GLN146      0.2592
     30  O         66.7870  -12.3870  189.0930 O.2   146  GLN146     -0.2718
     31  CB        68.5460  -10.1420  190.4750 C.3   146  GLN146      0.0381
     32  CG        69.6180   -9.0330  190.4270 C.3   146  GLN146      0.0905
     33  CD        70.0240   -8.5170  191.7660 C.2   146  GLN146      0.2608
     34  OE1       69.3140   -8.7220  192.7180 O.2   146  GLN146     -0.2717
     35  NE2       71.1630   -7.8300  191.8490 N.am  146  GLN146     -0.0878
     36  N         65.5840  -10.8850  190.2440 N.am  147  VAL147     -0.1980
     37  CA        64.5400  -11.8250  190.5040 C.3   147  VAL147      0.1595
     38  C         63.8090  -12.2790  189.2350 C.2   147  VAL147      0.2287
     39  O         63.3090  -13.3670  189.1730 O.2   147  VAL147     -0.2864
     40  CB        63.5530  -11.2970  191.5820 C.3   147  VAL147      0.0276
     41  CG1       62.7330  -12.4720  192.0660 C.3   147  VAL147      0.0022
     42  CG2       64.2280  -10.7740  192.8080 C.3   147  VAL147      0.0022
     43  N         65.8900  -14.8190  187.2500 N.3   150  TYR150     -0.1227
     44  CA        65.8560  -16.0640  187.9700 C.3   150  TYR150      0.1736
     45  C         64.5460  -16.8000  187.7520 C.2   150  TYR150      0.2595
     46  O         64.5240  -17.9690  187.3830 O.2   150  TYR150     -0.2718
     47  CB        65.9990  -15.8430  189.4500 C.3   150  TYR150      0.0548
     48  CG        66.1930  -17.1930  190.1160 C.ar  150  TYR150     -0.0200
     49  CD1       67.4370  -17.7720  190.1930 C.ar  150  TYR150     -0.0009
     50  CD2       65.1530  -17.8680  190.6110 C.ar  150  TYR150     -0.0009
     51  CE1       67.5920  -19.0130  190.7370 C.ar  150  TYR150      0.0417
     52  CE2       65.3070  -19.1050  191.2010 C.ar  150  TYR150      0.0417
     53  CZ        66.5210  -19.6730  191.2580 C.ar  150  TYR150      0.1957
     54  OH        66.6710  -20.9280  191.8710 O.3   150  TYR150     -0.2866
     55  N         63.4420  -16.1080  187.9880 N.am  151  LEU151     -0.1980
     56  CA        62.1210  -16.7070  187.7820 C.3   151  LEU151      0.1596
     57  C         61.8670  -16.9390  186.2760 C.2   151  LEU151      0.2287
     58  O         60.9010  -17.6060  185.8970 O.2   151  LEU151     -0.2864
     59  CB        61.0270  -15.7970  188.3460 C.3   151  LEU151      0.0297
     60  CG        61.1150  -15.4870  189.8440 C.3   151  LEU151      0.0022
     61  CD1       60.0250  -14.5250  190.2710 C.3   151  LEU151      0.0001
     62  CD2       61.0160  -16.7560  190.6580 C.3   151  LEU151      0.0001
     63  N         59.9410  -22.7330  190.4410 N.3   157  VAL157     -0.1231
     64  CA        60.1120  -21.9830  191.6260 C.3   157  VAL157      0.1692
     65  C         58.9780  -21.0150  191.8050 C.2   157  VAL157      0.2592
     66  O         58.9700  -20.0080  191.1930 O.2   157  VAL157     -0.2718
     67  CB        61.4000  -21.1800  191.4620 C.3   157  VAL157      0.0266
     68  CG1       61.6340  -20.2720  192.6580 C.3   157  VAL157      0.0020
     69  CG2       62.5700  -22.1400  191.3730 C.3   157  VAL157      0.0020
     70  N         58.0660  -21.3160  192.7140 N.am  158  PHE158     -0.1976
     71  CA        56.9640  -20.4580  193.0730 C.3   158  PHE158      0.1639
     72  C         55.7850  -20.6210  192.1490 C.2   158  PHE158      0.2290
     73  O         54.7890  -19.9330  192.3310 O.2   158  PHE158     -0.2864
     74  CB        57.3250  -18.9610  193.0810 C.3   158  PHE158      0.0560
     75  CG        58.2870  -18.5420  194.1570 C.ar  158  PHE158     -0.0200
     76  CD1       58.4010  -19.2150  195.3460 C.ar  158  PHE158     -0.0042
     77  CD2       59.0400  -17.4070  193.9780 C.ar  158  PHE158     -0.0042
     78  CE1       59.2850  -18.7530  196.3290 C.ar  158  PHE158     -0.0003
     79  CE2       59.9180  -16.9520  194.9290 C.ar  158  PHE158     -0.0003
     80  CZ        60.0480  -17.6210  196.1190 C.ar  158  PHE158     -0.0000
@<TRIPOS>BOND
     1    58    57    2
     2    57    56    1
     3    43    44    1
     4    46    45    2
     5    45    44    1
     6    45    55   am
     7    56    55    1
     8    56    59    1
     9    44    47    1
    10    59    60    1
    11    27    28    1
    12    30    29    2
    13    39    38    2
    14    28    29    1
    15    28    31    1
    16    38    37    1
    17    47    48    1
    18    29    36   am
    19    60    61    1
    20    60    62    1
    21    48    49   ar
    22    48    50   ar
    23    49    51   ar
    24    36    37    1
    25    32    31    1
    26    32    33    1
    27    63    64    1
    28    37    40    1
    29    50    52   ar
    30    51    53   ar
    31    66    65    2
    32    52    53   ar
    33    53    54    1
    34    69    67    1
    35    67    64    1
    36    67    68    1
    37    40    41    1
    38    40    42    1
    39    64    65    1
    40    33    35   am
    41    33    34    2
    42    65    70   am
    43    72    73    2
    44    72    71    1
    45    70    71    1
    46    71    74    1
    47    74    75    1
    48    77    75   ar
    49    77    79   ar
    50    75    76   ar
    51    25    24    2
    52     5     2    1
    53    26    23    1
    54    79    80   ar
    55    23    24    1
    56    23    22    1
    57    76    78   ar
    58     1     2    1
    59     2     3    1
    60    11    10    1
    61    16    15    2
    62    80    78   ar
    63     3     4    2
    64    22    15   am
    65    15    14    1
    66    12    10    1
    67    10     7    1
    68    17    14    1
    69    17    18    1
    70     9     8    2
    71    14    13    1
    72     8     7    1
    73     7     6    1
    74    18    19    1
    75    19    20    1
    76    20    21    1
