@<TRIPOS>MOLECULE
tmp/4n3eI04.pdb
 92 88 0 0 0
SMALL
GASTEIGER

@<TRIPOS>ATOM
      1  N         71.9710   -7.1310  207.1800 N.3    59  PHE59      -0.1241
      2  CA        73.0630   -7.1120  206.2480 C.3    59  PHE59       0.1605
      3  C         74.2230   -8.0110  206.6330 C.2    59  PHE59       0.2264
      4  O         74.1230   -8.7130  207.6100 O.2    59  PHE59      -0.2867
      5  CB        73.5260   -5.7320  205.9450 C.3    59  PHE59       0.0534
      6  CG        72.4860   -4.8900  205.2620 C.ar   59  PHE59      -0.0203
      7  CD1       71.3290   -4.5610  205.9040 C.ar   59  PHE59      -0.0042
      8  CD2       72.6880   -4.3910  203.9780 C.ar   59  PHE59      -0.0042
      9  CE1       70.3810   -3.7910  205.2770 C.ar   59  PHE59      -0.0003
     10  CE2       71.7740   -3.5600  203.3700 C.ar   59  PHE59      -0.0003
     11  CZ        70.6120   -3.2620  204.0210 C.ar   59  PHE59      -0.0000
     12  N         79.3400   -4.5580  205.2160 N.3    63  HIS63      -0.1227
     13  CA        78.4090   -3.5500  204.6490 C.3    63  HIS63       0.1737
     14  C         78.1510   -2.4410  205.6630 C.2    63  HIS63       0.2438
     15  O         77.9490   -2.7270  206.8650 O.2    63  HIS63      -0.2733
     16  CB        77.0570   -4.1600  204.1820 C.3    63  HIS63       0.0758
     17  CG        76.3180   -3.3320  203.1570 C.ar   63  HIS63       0.0818
     18  ND1       75.1950   -2.5930  203.4560 N.ar   63  HIS63      -0.2268
     19  CD2       76.5540   -3.1220  201.8380 C.ar   63  HIS63       0.1154
     20  CE1       74.7790   -1.9550  202.3750 C.ar   63  HIS63       0.1986
     21  NE2       75.5890   -2.2590  201.3790 N.ar   63  HIS63      -0.2212
     22  N         78.1560   -1.1770  205.1790 N.am   64  PRO64      -0.2718
     23  CA        77.7580   -0.0350  205.9560 C.3    64  PRO64       0.1535
     24  C         76.4420   -0.1420  206.7500 C.2    64  PRO64       0.2598
     25  O         76.3410    0.5180  207.7970 O.2    64  PRO64      -0.2715
     26  CB        77.6630    1.0310  204.8920 C.3    64  PRO64       0.0310
     27  CG        78.8720    0.7270  204.0900 C.3    64  PRO64       0.0237
     28  CD        78.8010   -0.7300  203.9360 C.3    64  PRO64       0.0939
     29  N         75.4720   -0.9410  206.3030 N.am   65  LEU65      -0.1978
     30  CA        74.1610   -0.9100  206.9100 C.3    65  LEU65       0.1596
     31  C         74.0230   -2.1130  207.7360 C.2    65  LEU65       0.2287
     32  O         74.8720   -3.0030  207.7050 O.2    65  LEU65      -0.2864
     33  CB        73.0280   -0.8400  205.9020 C.3    65  LEU65       0.0297
     34  CG        72.9670    0.4600  205.0770 C.3    65  LEU65       0.0022
     35  CD1       71.8450    0.4870  204.0720 C.3    65  LEU65       0.0001
     36  CD2       72.8030    1.6670  205.9710 C.3    65  LEU65       0.0001
     37  N         68.9040    1.1020  210.5720 N.3    90  ASP90      -0.1225
     38  CA        69.9950    1.9680  210.1410 C.3    90  ASP90       0.1805
     39  C         69.6530    2.6370  208.8190 C.2    90  ASP90       0.2597
     40  O         69.9260    3.8060  208.6140 O.2    90  ASP90      -0.2718
     41  CB        71.2500    1.1280  209.9520 C.3    90  ASP90       0.1424
     42  CG        72.5330    1.9030  209.7720 C.2    90  ASP90       0.3668
     43  OD1       72.5130    3.1460  209.6390 O.co2  90  ASP90      -0.2456
     44  OD2       73.6180    1.2640  209.7540 O.co2  90  ASP90      -0.2456
     45  N         69.0390    1.8880  207.9220 N.am   91  VAL91      -0.1980
     46  CA        68.9860    2.2830  206.5410 C.3    91  VAL91       0.1595
     47  C         68.3780    3.6530  206.3540 C.2    91  VAL91       0.2287
     48  O         68.5420    4.3050  205.3370 O.2    91  VAL91      -0.2864
     49  CB        68.2380    1.2040  205.7090 C.3    91  VAL91       0.0276
     50  CG1       66.9640    0.7170  206.3880 C.3    91  VAL91       0.0022
     51  CG2       67.9620    1.7030  204.3000 C.3    91  VAL91       0.0022
     52  N         68.7430    6.7900  207.6650 N.3    93  ARG93      -0.1245
     53  CA        69.3690    8.0830  207.5060 C.3    93  ARG93       0.1563
     54  C         68.5680    8.8680  208.4930 C.2    93  ARG93       0.2260
     55  O         67.3930    8.5680  208.7070 O.2    93  ARG93      -0.2867
     56  CB        69.1190    8.6120  206.0900 C.3    93  ARG93       0.0307
     57  CG        70.3820    8.8830  205.3050 C.3    93  ARG93       0.0489
     58  CD        70.0920    9.4500  203.9250 C.3    93  ARG93       0.2205
     59  NE        71.1080    9.0610  202.9470 N.pl3  93  ARG93      -0.0865
     60  CZ        71.3290    9.6730  201.7860 C.cat  93  ARG93       0.5346
     61  NH1       70.6310   10.7410  201.4190 N.pl3  93  ARG93       0.1354
     62  NH2       72.2770    9.2160  200.9880 N.pl3  93  ARG93       0.1354
     63  N         68.1760   10.0940  198.2840 N.3   132  GLU132     -0.1245
     64  CA        67.7830    8.8780  198.9680 C.3   132  GLU132      0.1567
     65  C         66.4300    8.2900  198.4940 C.2   132  GLU132      0.2260
     66  O         66.1310    7.1130  198.7950 O.2   132  GLU132     -0.2867
     67  CB        67.8890    9.0860  200.4950 C.3   132  GLU132      0.0388
     68  CG        66.6600    8.7580  201.3310 C.3   132  GLU132      0.1160
     69  CD        66.0870    9.9960  201.9490 C.2   132  GLU132      0.3649
     70  OE1       64.8410   10.1430  201.9630 O.co2 132  GLU132     -0.2457
     71  OE2       66.9150   10.8010  202.4440 O.co2 132  GLU132     -0.2457
     72  N         68.0200    6.5150  195.3960 N.3   135  ILE135     -0.1231
     73  CA        68.8620    5.4290  195.7580 C.3   135  ILE135      0.1692
     74  C         67.9890    4.2580  195.9890 C.2   135  ILE135      0.2592
     75  O         68.2680    3.1770  195.5440 O.2   135  ILE135     -0.2718
     76  CB        69.6180    5.7210  197.0270 C.3   135  ILE135      0.0266
     77  CG1       70.8010    6.6010  196.6560 C.3   135  ILE135      0.0019
     78  CG2       70.1470    4.4410  197.6440 C.3   135  ILE135      0.0020
     79  CD1       71.4490    7.2270  197.8570 C.3   135  ILE135      0.0001
     80  N         66.9160    4.4970  196.7000 N.am  136  GLY136     -0.1957
     81  CA        66.1390    3.4310  197.2760 C.3   136  GLY136      0.1869
     82  C         65.2570    2.7230  196.2800 C.2   136  GLY136      0.2309
     83  O         64.7740    1.6210  196.4960 O.2   136  GLY136     -0.2863
     84  N         67.7860    0.5210  194.0010 N.3   139  LYS139     -0.1245
     85  CA        68.1020   -0.7220  194.7370 C.3   139  LYS139      0.1561
     86  C         66.9890   -1.7800  194.6620 C.2   139  LYS139      0.2260
     87  O         67.2590   -2.9700  194.4670 O.2   139  LYS139     -0.2867
     88  CB        68.3940   -0.3750  196.1930 C.3   139  LYS139      0.0271
     89  CG        69.7440    0.2820  196.4160 C.3   139  LYS139      0.0035
     90  CD        70.8640   -0.6610  196.0220 C.3   139  LYS139      0.0206
     91  CE        72.2250   -0.0690  196.3130 C.3   139  LYS139      0.1093
     92  NZ        72.5040    1.0840  195.4250 N.3   139  LYS139     -0.1314
@<TRIPOS>BOND
     1    84    85    1
     2    87    86    2
     3    86    85    1
     4    85    88    1
     5    72    73    1
     6    92    91    1
     7    75    74    2
     8    73    74    1
     9    73    76    1
    10    74    80   am
    11    90    91    1
    12    90    89    1
    13    88    89    1
    14    82    83    2
    15    82    81    1
    16    77    76    1
    17    77    79    1
    18    80    81    1
    19    76    78    1
    20    63    64    1
    21    65    66    2
    22    65    64    1
    23    64    67    1
    24    67    68    1
    25    62    60    1
    26    68    69    1
    27    21    19   ar
    28    21    20   ar
    29    61    60    1
    30    60    59    2
    31    19    17   ar
    32    69    70   ar
    33    69    71   ar
    34    20    18   ar
    35    59    58    1
    36    17    18   ar
    37    17    16    1
    38    10     8   ar
    39    10    11   ar
    40    58    57    1
    41    28    27    1
    42    28    22    1
    43     8     6   ar
    44    11     9   ar
    45    35    34    1
    46    27    26    1
    47    16    13    1
    48    51    49    1
    49    13    12    1
    50    13    14    1
    51    26    23    1
    52    34    33    1
    53    34    36    1
    54    22    14   am
    55    22    23    1
    56     6     7   ar
    57     6     5    1
    58     9     7   ar
    59    57    56    1
    60    48    47    2
    61    14    15    2
    62    49    50    1
    63    49    46    1
    64    33    30    1
    65     5     2    1
    66    23    24    1
    67    56    53    1
    68     2     3    1
    69     2     1    1
    70    29    24   am
    71    29    30    1
    72    47    46    1
    73    46    45    1
    74     3     4    2
    75    24    25    2
    76    30    31    1
    77    53    52    1
    78    53    54    1
    79    32    31    2
    80    45    39   am
    81    54    55    2
    82    40    39    2
    83    39    38    1
    84    43    42   ar
    85    44    42   ar
    86    42    41    1
    87    41    38    1
    88    38    37    1
