@<TRIPOS>MOLECULE
tmp/4n3eF00.pdb
 160 147 0 0 0
SMALL
GASTEIGER

@<TRIPOS>ATOM
      1  N         46.1400   14.6860  120.4760 N.3     8  LYS8       -0.1245
      2  CA        45.4770   15.1770  121.6750 C.3     8  LYS8        0.1561
      3  C         44.1820   14.4920  122.0150 C.2     8  LYS8        0.2260
      4  O         43.6070   13.7520  121.2260 O.2     8  LYS8       -0.2867
      5  CB        45.2760   16.7110  121.6390 C.3     8  LYS8        0.0271
      6  CG        46.1630   17.5480  122.5860 C.3     8  LYS8        0.0035
      7  CD        46.0080   17.2540  124.0770 C.3     8  LYS8        0.0206
      8  CE        47.1710   16.4460  124.6430 C.3     8  LYS8        0.1093
      9  NZ        48.4410   17.2250  124.6280 N.3     8  LYS8       -0.1314
     10  N         40.5110   14.9900  124.1230 N.3    10  GLU10      -0.1245
     11  CA        39.5630   16.0120  124.5890 C.3    10  GLU10       0.1567
     12  C         38.2220   15.3970  125.0100 C.2    10  GLU10       0.2260
     13  O         37.4430   14.8710  124.1900 O.2    10  GLU10      -0.2867
     14  CB        39.3840   17.1290  123.5410 C.3    10  GLU10       0.0388
     15  CG        38.8330   18.4620  124.0780 C.3    10  GLU10       0.1160
     16  CD        39.7680   19.2580  125.0160 C.2    10  GLU10       0.3649
     17  OE1       40.9020   19.6060  124.6110 O.co2  10  GLU10      -0.2457
     18  OE2       39.3650   19.5830  126.1660 O.co2  10  GLU10      -0.2457
     19  N         34.4370   15.7710  126.5820 N.3    12  SER12      -0.1217
     20  CA        33.3560   16.7750  126.5030 C.3    12  SER12       0.1889
     21  C         32.1530   16.5940  127.4800 C.2    12  SER12       0.2288
     22  O         31.9230   15.5020  128.0170 O.2    12  SER12      -0.2866
     23  CB        32.8700   16.9070  125.0570 C.3    12  SER12       0.2089
     24  OG        32.0350   18.0550  124.9260 O.3    12  SER12      -0.2183
     25  N         28.5130   15.6050  118.5560 N.3    19  LEU19      -0.1245
     26  CA        29.7960   16.2520  118.3400 C.3    19  LEU19       0.1561
     27  C         30.5010   15.5710  117.2080 C.2    19  LEU19       0.2260
     28  O         31.3690   16.1780  116.5840 O.2    19  LEU19      -0.2867
     29  CB        30.6680   16.1470  119.5740 C.3    19  LEU19       0.0270
     30  CG        30.7840   17.3120  120.5600 C.3    19  LEU19       0.0019
     31  CD1       32.0830   17.1650  121.3240 C.3    19  LEU19       0.0001
     32  CD2       30.8200   18.6780  119.9090 C.3    19  LEU19       0.0001
     33  N         31.1170   18.3770  114.1990 N.3    23  LEU23      -0.1231
     34  CA        32.5300   18.6730  114.0180 C.3    23  LEU23       0.1693
     35  C         33.2120   17.7350  113.0360 C.2    23  LEU23       0.2591
     36  O         34.4000   17.8660  112.7740 O.2    23  LEU23      -0.2718
     37  CB        33.2830   18.6610  115.3700 C.3    23  LEU23       0.0284
     38  CG        32.8850   19.5810  116.5380 C.3    23  LEU23       0.0019
     39  CD1       33.6910   19.3200  117.8060 C.3    23  LEU23       0.0001
     40  CD2       32.9900   21.0650  116.2010 C.3    23  LEU23       0.0001
     41  N         32.4900   16.7700  112.4900 N.am   24  VAL24      -0.1980
     42  CA        33.0220   15.9770  111.3870 C.3    24  VAL24       0.1595
     43  C         32.0440   16.0250  110.2500 C.2    24  VAL24       0.2287
     44  O         32.3900   16.5300  109.2140 O.2    24  VAL24      -0.2864
     45  CB        33.3440   14.5150  111.7540 C.3    24  VAL24       0.0276
     46  CG1       33.9800   13.7980  110.5800 C.3    24  VAL24       0.0022
     47  CG2       34.3170   14.4600  112.9190 C.3    24  VAL24       0.0022
     48  N         30.7030   19.4780  109.3440 N.3    27  ARG27      -0.1245
     49  CA        31.7090   20.4990  109.6490 C.3    27  ARG27       0.1563
     50  C         31.6830   21.6150  108.5800 C.2    27  ARG27       0.2260
     51  O         31.7710   22.8140  108.9170 O.2    27  ARG27      -0.2867
     52  CB        33.0940   19.8480  109.7410 C.3    27  ARG27       0.0307
     53  CG        34.0820   20.6380  110.5800 C.3    27  ARG27       0.0489
     54  CD        35.4240   19.9410  110.5990 C.3    27  ARG27       0.2205
     55  NE        36.5250   20.7850  111.0210 N.pl3  27  ARG27      -0.0865
     56  CZ        36.8050   21.0890  112.2860 C.cat  27  ARG27       0.5346
     57  NH1       37.8390   21.8640  112.5730 N.pl3  27  ARG27       0.1354
     58  NH2       36.0850   20.5940  113.2870 N.pl3  27  ARG27       0.1354
     59  N         40.2620   11.8750  107.4400 N.3    84  TYR84      -0.1241
     60  CA        40.1840   12.7680  106.2860 C.3    84  TYR84       0.1605
     61  C         41.4590   13.5450  106.0690 C.2    84  TYR84       0.2264
     62  O         42.3000   13.6370  106.9740 O.2    84  TYR84      -0.2867
     63  CB        39.0150   13.7310  106.3980 C.3    84  TYR84       0.0534
     64  CG        38.9810   14.7100  107.5480 C.ar   84  TYR84      -0.0201
     65  CD1       38.5610   14.3140  108.8070 C.ar   84  TYR84      -0.0009
     66  CD2       39.2320   16.0630  107.3380 C.ar   84  TYR84      -0.0009
     67  CE1       38.4600   15.2270  109.8590 C.ar   84  TYR84       0.0417
     68  CE2       39.1670   16.9730  108.3840 C.ar   84  TYR84       0.0417
     69  CZ        38.7740   16.5570  109.6440 C.ar   84  TYR84       0.1957
     70  OH        38.6880   17.4510  110.7020 O.3    84  TYR84      -0.2866
     71  N         43.8610   14.3220  109.1090 N.3   101  TYR101     -0.1241
     72  CA        43.2000   14.2670  110.4460 C.3   101  TYR101      0.1605
     73  C         42.4380   12.9560  110.7380 C.2   101  TYR101      0.2264
     74  O         41.6740   12.4380  109.9110 O.2   101  TYR101     -0.2867
     75  CB        42.1500   15.3710  110.6330 C.3   101  TYR101      0.0534
     76  CG        42.5860   16.7820  110.3700 C.ar  101  TYR101     -0.0201
     77  CD1       42.7090   17.2200  109.0660 C.ar  101  TYR101     -0.0009
     78  CD2       42.7950   17.6970  111.4090 C.ar  101  TYR101     -0.0009
     79  CE1       43.0540   18.5180  108.7730 C.ar  101  TYR101      0.0417
     80  CE2       43.1810   19.0140  111.1280 C.ar  101  TYR101      0.0417
     81  CZ        43.3070   19.4240  109.7890 C.ar  101  TYR101      0.1957
     82  OH        43.6990   20.6940  109.3480 O.3   101  TYR101     -0.2866
     83  N         39.8470   11.1110  113.6750 N.3   103  VAL103     -0.1245
     84  CA        38.9710   11.4080  114.8150 C.3   103  VAL103      0.1561
     85  C         38.2570   10.1920  115.3810 C.2   103  VAL103      0.2260
     86  O         37.7130    9.4220  114.6090 O.2   103  VAL103     -0.2867
     87  CB        37.8680   12.3820  114.3630 C.3   103  VAL103      0.0252
     88  CG1       36.8640   12.6540  115.4870 C.3   103  VAL103      0.0019
     89  CG2       38.5080   13.6680  113.8670 C.3   103  VAL103      0.0019
     90  N         35.5050    9.2930  118.7740 N.3   105  LEU105     -0.1245
     91  CA        34.7460    9.6850  119.9780 C.3   105  LEU105      0.1561
     92  C         33.9240    8.5330  120.5460 C.2   105  LEU105      0.2260
     93  O         33.4610    7.6450  119.8160 O.2   105  LEU105     -0.2867
     94  CB        33.8120   10.8670  119.6500 C.3   105  LEU105      0.0270
     95  CG        34.2910   11.8260  118.5570 C.3   105  LEU105      0.0019
     96  CD1       33.1550   12.7360  118.1410 C.3   105  LEU105      0.0001
     97  CD2       35.4700   12.6620  119.0070 C.3   105  LEU105      0.0001
     98  N         31.2090   12.8950  126.4830 N.3   112  SER112     -0.1217
     99  CA        31.9810   12.1260  125.5030 C.3   112  SER112      0.1889
    100  C         33.4880   12.2180  125.7860 C.2   112  SER112      0.2288
    101  O         33.8850   12.7210  126.8460 O.2   112  SER112     -0.2866
    102  CB        31.6550   12.6260  124.1030 C.3   112  SER112      0.2089
    103  OG        31.8450   14.0380  124.0040 O.3   112  SER112     -0.2183
    104  N         37.2360   12.5070  123.0690 N.3   114  GLY114     -0.1225
    105  CA        37.8130   12.3080  121.7480 C.3   114  GLY114      0.1811
    106  C         39.3330   12.2360  121.7030 C.2   114  GLY114      0.2280
    107  O         40.0270   13.0040  122.3630 O.2   114  GLY114     -0.2866
    108  N         41.9620   12.8640  118.8170 N.3   116  ILE116     -0.1245
    109  CA        42.1630   13.3780  117.4430 C.3   116  ILE116      0.1561
    110  C         43.6780   13.3580  117.1730 C.2   116  ILE116      0.2260
    111  O         44.5000   13.6410  118.0840 O.2   116  ILE116     -0.2867
    112  CB        41.5000   14.7850  117.2060 C.3   116  ILE116      0.0252
    113  CG1       39.9640   14.6810  117.1780 C.3   116  ILE116      0.0019
    114  CG2       41.9470   15.4390  115.9030 C.3   116  ILE116      0.0019
    115  CD1       39.2820   14.8090  118.5270 C.3   116  ILE116      0.0001
    116  N         46.5620   14.5770  114.1580 N.3   118  VAL118     -0.1245
    117  CA        46.7440   15.4710  113.0470 C.3   118  VAL118      0.1561
    118  C         48.1530   15.3210  112.5160 C.2   118  VAL118      0.2260
    119  O         49.1260   15.4380  113.2680 O.2   118  VAL118     -0.2867
    120  CB        46.4830   16.9380  113.4490 C.3   118  VAL118      0.0252
    121  CG1       46.2330   17.7730  112.1930 C.3   118  VAL118      0.0019
    122  CG2       45.2890   17.0380  114.3860 C.3   118  VAL118      0.0019
    123  N         45.5550   24.4640  114.5940 N.3   137  GLU137     -0.1245
    124  CA        45.0210   23.8020  115.7640 C.3   137  GLU137      0.1567
    125  C         44.3800   24.7760  116.7200 C.2   137  GLU137      0.2260
    126  O         43.4050   24.4240  117.3770 O.2   137  GLU137     -0.2867
    127  CB        46.1320   23.0300  116.4670 C.3   137  GLU137      0.0388
    128  CG        46.7630   21.9610  115.5960 C.3   137  GLU137      0.1160
    129  CD        45.7840   20.9190  115.0830 C.2   137  GLU137      0.3649
    130  OE1       44.9210   21.2330  114.2080 O.co2 137  GLU137     -0.2457
    131  OE2       45.9180   19.7680  115.5630 O.co2 137  GLU137     -0.2457
    132  N         40.9780   25.2430  114.9900 N.3   140  ALA140     -0.1231
    133  CA        40.1410   24.0560  115.1950 C.3   140  ALA140      0.1694
    134  C         39.5230   23.9210  116.5840 C.2   140  ALA140      0.2592
    135  O         38.4130   23.4220  116.7210 O.2   140  ALA140     -0.2718
    136  CB        41.0070   22.8340  114.9150 C.3   140  ALA140      0.0304
    137  N         40.2640   24.3560  117.6020 N.am  141  TYR141     -0.1976
    138  CA        39.8600   24.2740  119.0020 C.3   141  TYR141      0.1639
    139  C         39.0040   25.4650  119.4820 C.2   141  TYR141      0.2290
    140  O         38.1230   25.2830  120.3120 O.2   141  TYR141     -0.2864
    141  CB        41.1130   24.1280  119.8460 C.3   141  TYR141      0.0560
    142  CG        40.8510   23.9620  121.2900 C.ar  141  TYR141     -0.0198
    143  CD1       40.5300   22.7190  121.8220 C.ar  141  TYR141     -0.0009
    144  CD2       40.9810   25.0500  122.1550 C.ar  141  TYR141     -0.0009
    145  CE1       40.2630   22.5790  123.1670 C.ar  141  TYR141      0.0417
    146  CE2       40.7210   24.9150  123.5060 C.ar  141  TYR141      0.0417
    147  CZ        40.3670   23.6860  124.0100 C.ar  141  TYR141      0.1957
    148  OH        40.1530   23.6210  125.3920 O.3   141  TYR141     -0.2866
    149  N         35.7400   24.4670  118.0620 N.3   144  TYR144     -0.1241
    150  CA        35.1040   23.3420  118.7590 C.3   144  TYR144      0.1605
    151  C         34.5050   23.8890  120.0490 C.2   144  TYR144      0.2264
    152  O         33.4790   23.4310  120.5420 O.2   144  TYR144     -0.2867
    153  CB        36.0710   22.1590  119.0230 C.3   144  TYR144      0.0534
    154  CG        35.9370   21.5100  120.4100 C.ar  144  TYR144     -0.0201
    155  CD1       34.7900   20.8240  120.7800 C.ar  144  TYR144     -0.0009
    156  CD2       36.9760   21.5840  121.3390 C.ar  144  TYR144     -0.0009
    157  CE1       34.6430   20.3020  122.0250 C.ar  144  TYR144      0.0417
    158  CE2       36.8570   21.0210  122.5810 C.ar  144  TYR144      0.0417
    159  CZ        35.6930   20.3690  122.9200 C.ar  144  TYR144      0.1957
    160  OH        35.5720   19.7820  124.1740 O.3   144  TYR144     -0.2866
@<TRIPOS>BOND
     1    61    60    1
     2    61    62    2
     3    60    63    1
     4    60    59    1
     5    63    64    1
     6    66    64   ar
     7    66    68   ar
     8    64    65   ar
     9    68    69   ar
    10    50    51    2
    11    50    49    1
    12    79    77   ar
    13    79    81   ar
    14    65    67   ar
    15    77    76   ar
    16    71    72    1
    17    44    43    2
    18    48    49    1
    19    82    81    1
    20    69    67   ar
    21    69    70    1
    22    49    52    1
    23    52    53    1
    24    81    80   ar
    25    74    73    2
    26    43    42    1
    27    76    75    1
    28    76    78   ar
    29    72    75    1
    30    72    73    1
    31    53    54    1
    32    46    45    1
    33    54    55    1
    34    55    56    2
    35    80    78   ar
    36    42    45    1
    37    42    41    1
    38    45    47    1
    39   121   120    1
    40    56    57    1
    41    56    58    1
    42    41    35   am
    43   118   117    1
    44   118   119    2
    45    36    35    2
    46    35    34    1
    47   117   120    1
    48   117   116    1
    49   120   122    1
    50    83    84    1
    51    89    87    1
    52    34    33    1
    53    34    37    1
    54   130   129   ar
    55    87    84    1
    56    87    88    1
    57   123   124    1
    58    86    85    2
    59    84    85    1
    60   136   133    1
    61   132   133    1
    62   129   131   ar
    63   129   128    1
    64   133   134    1
    65    37    38    1
    66   128   127    1
    67   124   127    1
    68   124   125    1
    69   114   112    1
    70    40    38    1
    71    38    39    1
    72    28    27    2
    73   134   135    2
    74   134   137   am
    75   125   126    2
    76   110   109    1
    77   110   111    2
    78   113   112    1
    79   113   115    1
    80   112   109    1
    81    27    26    1
    82   109   108    1
    83   137   138    1
    84   149   150    1
    85    96    95    1
    86    26    25    1
    87    26    29    1
    88    95    97    1
    89    95    94    1
    90   150   153    1
    91   150   151    1
    92    90    91    1
    93   138   139    1
    94   138   141    1
    95   153   154    1
    96   139   140    2
    97    29    30    1
    98    94    91    1
    99    93    92    2
   100   141   142    1
   101    32    30    1
   102    91    92    1
   103   151   152    2
   104   154   155   ar
   105   154   156   ar
   106     1     2    1
   107    30    31    1
   108   155   157   ar
   109     4     3    2
   110   142   143   ar
   111   142   144   ar
   112   156   158   ar
   113     5     2    1
   114     5     6    1
   115     2     3    1
   116   106   105    1
   117   106   107    2
   118   105   104    1
   119   143   145   ar
   120   157   159   ar
   121   144   146   ar
   122   158   159   ar
   123     6     7    1
   124   159   160    1
   125   145   147   ar
   126   146   147   ar
   127    14    15    1
   128    14    11    1
   129   103   102    1
   130   147   148    1
   131     7     8    1
   132    15    16    1
   133   102    99    1
   134    10    11    1
   135    13    12    2
   136    11    12    1
   137    17    16   ar
   138     9     8    1
   139    24    23    1
   140    16    18   ar
   141    23    20    1
   142    99   100    1
   143    99    98    1
   144   100   101    2
   145    20    19    1
   146    20    21    1
   147    21    22    2
