@<TRIPOS>MOLECULE
tmp/4n3eI01.pdb
 185 174 0 0 0
SMALL
GASTEIGER

@<TRIPOS>ATOM
      1  N         60.0780  -11.7200  200.3530 N.3    27  ARG27      -0.1245
      2  CA        61.1350  -10.8190  199.9180 C.3    27  ARG27       0.1563
      3  C         62.3190  -10.8090  200.8770 C.2    27  ARG27       0.2260
      4  O         63.4700  -10.7860  200.4410 O.2    27  ARG27      -0.2867
      5  CB        60.5880   -9.3990  199.7490 C.3    27  ARG27       0.0307
      6  CG        61.6590   -8.3450  199.5170 C.3    27  ARG27       0.0489
      7  CD        61.0780   -6.9430  199.5940 C.3    27  ARG27       0.2205
      8  NE        61.9090   -5.9670  198.8940 N.pl3  27  ARG27      -0.0865
      9  CZ        61.7270   -5.6030  197.6290 C.cat  27  ARG27       0.5346
     10  NH1       62.5320   -4.7080  197.0730 N.pl3  27  ARG27       0.1354
     11  NH2       60.7410   -6.1340  196.9190 N.pl3  27  ARG27       0.1354
     12  N         65.7000  -11.6610  199.0790 N.3    31  LEU31      -0.1245
     13  CA        66.8150  -10.6770  199.1450 C.3    31  LEU31       0.1561
     14  C         68.1320  -11.3330  199.4520 C.2    31  LEU31       0.2260
     15  O         69.1470  -10.9580  198.8680 O.2    31  LEU31      -0.2867
     16  CB        66.4690   -9.5440  200.0790 C.3    31  LEU31       0.0270
     17  CG        65.6740   -8.2870  199.6490 C.3    31  LEU31       0.0019
     18  CD1       65.2910   -7.4420  200.8630 C.3    31  LEU31       0.0001
     19  CD2       66.4700   -7.3740  198.7210 C.3    31  LEU31       0.0001
     20  N         71.3150  -11.5370  196.4500 N.3    35  GLN35      -0.1245
     21  CA        72.4290  -10.6900  196.7740 C.3    35  GLN35       0.1566
     22  C         73.0360  -11.1770  198.0580 C.2    35  GLN35       0.2260
     23  O         72.9690  -10.4860  199.0920 O.2    35  GLN35      -0.2867
     24  CB        71.8810   -9.2620  196.9470 C.3    35  GLN35       0.0367
     25  CG        70.9280   -8.7830  195.8400 C.3    35  GLN35       0.0905
     26  CD        70.7540   -7.3240  195.8210 C.2    35  GLN35       0.2608
     27  OE1       71.0490   -6.6340  196.7810 O.2    35  GLN35      -0.2717
     28  NE2       70.3350   -6.8210  194.7040 N.am   35  GLN35      -0.0878
     29  N         75.2850   -8.9590  199.8820 N.3    38  VAL38      -0.1231
     30  CA        74.7760   -7.7770  200.5700 C.3    38  VAL38       0.1692
     31  C         73.9410   -7.9950  201.8540 C.2    38  VAL38       0.2592
     32  O         73.8200   -7.0690  202.6860 O.2    38  VAL38      -0.2718
     33  CB        73.9710   -6.8650  199.5970 C.3    38  VAL38       0.0266
     34  CG1       73.0890   -5.9150  200.3630 C.3    38  VAL38       0.0020
     35  CG2       74.8540   -6.0400  198.7030 C.3    38  VAL38       0.0020
     36  N         73.3520   -9.1710  202.0150 N.am   39  PHE39      -0.1976
     37  CA        72.4100   -9.4810  203.0840 C.3    39  PHE39       0.1639
     38  C         72.7470  -10.8280  203.6440 C.2    39  PHE39       0.2290
     39  O         73.2580  -11.5910  202.8900 O.2    39  PHE39      -0.2864
     40  CB        70.9930   -9.6140  202.6180 C.3    39  PHE39       0.0560
     41  CG        70.3990   -8.3320  202.1550 C.ar   39  PHE39      -0.0200
     42  CD1       69.7120   -7.5020  203.0280 C.ar   39  PHE39      -0.0042
     43  CD2       70.4070   -7.9990  200.7890 C.ar   39  PHE39      -0.0042
     44  CE1       69.1070   -6.2970  202.5560 C.ar   39  PHE39      -0.0003
     45  CE2       69.8380   -6.8040  200.3220 C.ar   39  PHE39      -0.0003
     46  CZ        69.1850   -5.9460  201.2280 C.ar   39  PHE39      -0.0000
     47  N         71.9710   -7.1310  207.1800 N.3    59  PHE59      -0.1241
     48  CA        73.0630   -7.1120  206.2480 C.3    59  PHE59       0.1605
     49  C         74.2230   -8.0110  206.6330 C.2    59  PHE59       0.2264
     50  O         74.1230   -8.7130  207.6100 O.2    59  PHE59      -0.2867
     51  CB        73.5260   -5.7320  205.9450 C.3    59  PHE59       0.0534
     52  CG        72.4860   -4.8900  205.2620 C.ar   59  PHE59      -0.0203
     53  CD1       71.3290   -4.5610  205.9040 C.ar   59  PHE59      -0.0042
     54  CD2       72.6880   -4.3910  203.9780 C.ar   59  PHE59      -0.0042
     55  CE1       70.3810   -3.7910  205.2770 C.ar   59  PHE59      -0.0003
     56  CE2       71.7740   -3.5600  203.3700 C.ar   59  PHE59      -0.0003
     57  CZ        70.6120   -3.2620  204.0210 C.ar   59  PHE59      -0.0000
     58  N         79.3400   -4.5580  205.2160 N.3    63  HIS63      -0.1241
     59  CA        78.4090   -3.5500  204.6490 C.3    63  HIS63       0.1621
     60  C         78.1510   -2.4410  205.6630 C.2    63  HIS63       0.2264
     61  O         77.9490   -2.7270  206.8650 O.2    63  HIS63      -0.2867
     62  CB        77.0570   -4.1600  204.1820 C.3    63  HIS63       0.0745
     63  CG        76.3180   -3.3320  203.1570 C.ar   63  HIS63       0.0817
     64  ND1       75.1950   -2.5930  203.4560 N.ar   63  HIS63      -0.2268
     65  CD2       76.5540   -3.1220  201.8380 C.ar   63  HIS63       0.1154
     66  CE1       74.7790   -1.9550  202.3750 C.ar   63  HIS63       0.1986
     67  NE2       75.5890   -2.2590  201.3790 N.ar   63  HIS63      -0.2212
     68  N         75.4720   -0.9410  206.3030 N.3    65  LEU65      -0.1245
     69  CA        74.1610   -0.9100  206.9100 C.3    65  LEU65       0.1561
     70  C         74.0230   -2.1130  207.7360 C.2    65  LEU65       0.2260
     71  O         74.8720   -3.0030  207.7050 O.2    65  LEU65      -0.2867
     72  CB        73.0280   -0.8400  205.9020 C.3    65  LEU65       0.0270
     73  CG        72.9670    0.4600  205.0770 C.3    65  LEU65       0.0019
     74  CD1       71.8450    0.4870  204.0720 C.3    65  LEU65       0.0001
     75  CD2       72.8030    1.6670  205.9710 C.3    65  LEU65       0.0001
     76  N         67.1790   -3.7710  208.7410 N.3    68  MET68      -0.1245
     77  CA        65.9670   -3.0170  208.4600 C.3    68  MET68       0.1570
     78  C         64.7900   -3.7760  209.0210 C.2    68  MET68       0.2261
     79  O         64.8460   -5.0090  209.0770 O.2    68  MET68      -0.2867
     80  CB        65.7200   -3.0540  206.9650 C.3    68  MET68       0.0387
     81  CG        66.7660   -2.4510  206.0780 C.3    68  MET68       0.0595
     82  SD        66.1230   -2.4610  204.4040 S.3    68  MET68      -0.1393
     83  CE        66.6360   -4.0270  203.7790 C.3    68  MET68       0.0692
     84  N         60.3760   -4.2730  208.6050 N.3    70  HIS70      -0.1241
     85  CA        59.1770   -3.9050  207.8320 C.3    70  HIS70       0.1621
     86  C         57.9240   -4.4100  208.5560 C.2    70  HIS70       0.2264
     87  O         57.9180   -5.4950  209.1170 O.2    70  HIS70      -0.2867
     88  CB        59.2020   -4.4140  206.3590 C.3    70  HIS70       0.0745
     89  CG        60.2210   -3.7490  205.4710 C.ar   70  HIS70       0.0817
     90  ND1       61.5110   -4.1940  205.3680 N.ar   70  HIS70      -0.2268
     91  CD2       60.1280   -2.6980  204.6240 C.ar   70  HIS70       0.1154
     92  CE1       62.1870   -3.4210  204.5480 C.ar   70  HIS70       0.1986
     93  NE2       61.3600   -2.5270  204.0470 N.ar   70  HIS70      -0.2212
     94  N         58.7260    0.4740  206.1240 N.3    86  LEU86      -0.1245
     95  CA        60.0740    0.4230  206.6430 C.3    86  LEU86       0.1561
     96  C         60.1340    1.3880  207.8310 C.2    86  LEU86       0.2260
     97  O         60.2690    2.6050  207.6640 O.2    86  LEU86      -0.2867
     98  CB        61.0570    0.8510  205.5530 C.3    86  LEU86       0.0270
     99  CG        62.5210    0.9830  205.9950 C.3    86  LEU86       0.0019
    100  CD1       62.9330   -0.3990  206.3330 C.3    86  LEU86       0.0001
    101  CD2       63.5040    1.5140  204.9650 C.3    86  LEU86       0.0001
    102  N         69.0390    1.8880  207.9220 N.3    91  VAL91      -0.1245
    103  CA        68.9860    2.2830  206.5410 C.3    91  VAL91       0.1561
    104  C         68.3780    3.6530  206.3540 C.2    91  VAL91       0.2260
    105  O         68.5420    4.3050  205.3370 O.2    91  VAL91      -0.2867
    106  CB        68.2380    1.2040  205.7090 C.3    91  VAL91       0.0252
    107  CG1       66.9640    0.7170  206.3880 C.3    91  VAL91       0.0019
    108  CG2       67.9620    1.7030  204.3000 C.3    91  VAL91       0.0019
    109  N         59.3760    4.7480  205.4620 N.3    99  VAL99      -0.1245
    110  CA        59.0710    4.5610  204.0340 C.3    99  VAL99       0.1561
    111  C         57.9590    3.5570  203.8810 C.2    99  VAL99       0.2260
    112  O         58.0330    2.5470  204.4980 O.2    99  VAL99      -0.2867
    113  CB        60.2670    4.1220  203.2300 C.3    99  VAL99       0.0252
    114  CG1       59.8860    4.0330  201.7820 C.3    99  VAL99       0.0019
    115  CG2       61.3930    5.0860  203.3850 C.3    99  VAL99       0.0019
    116  N         55.4510    1.4760  201.3030 N.3   101  TYR101     -0.1241
    117  CA        55.3680    0.9000  200.0000 C.3   101  TYR101      0.1605
    118  C         54.0570    0.2760  199.8310 C.2   101  TYR101      0.2264
    119  O         53.6340   -0.4340  200.7230 O.2   101  TYR101     -0.2867
    120  CB        56.3150   -0.2660  199.8800 C.3   101  TYR101      0.0534
    121  CG        57.7190    0.1290  200.0500 C.ar  101  TYR101     -0.0201
    122  CD1       58.2970    0.1190  201.2840 C.ar  101  TYR101     -0.0009
    123  CD2       58.4750    0.4520  198.9560 C.ar  101  TYR101     -0.0009
    124  CE1       59.5980    0.5120  201.4460 C.ar  101  TYR101      0.0417
    125  CE2       59.7900    0.8170  199.0890 C.ar  101  TYR101      0.0417
    126  CZ        60.3560    0.8660  200.3240 C.ar  101  TYR101      0.1957
    127  OH        61.7210    1.2460  200.3230 O.3   101  TYR101     -0.2866
    128  N         57.8640    8.6040  201.1950 N.3   120  TYR120     -0.1241
    129  CA        58.9500    8.8950  202.1800 C.3   120  TYR120      0.1605
    130  C         58.5080    9.9540  203.1730 C.2   120  TYR120      0.2264
    131  O         58.2860   11.1200  202.7770 O.2   120  TYR120     -0.2867
    132  CB        60.2020    9.4720  201.5040 C.3   120  TYR120      0.0534
    133  CG        61.0190    8.4480  200.7600 C.ar  120  TYR120     -0.0201
    134  CD1       60.5450    7.8720  199.6240 C.ar  120  TYR120     -0.0009
    135  CD2       62.2550    8.0860  201.1970 C.ar  120  TYR120     -0.0009
    136  CE1       61.2550    6.9050  198.9710 C.ar  120  TYR120      0.0417
    137  CE2       62.9770    7.1480  200.5400 C.ar  120  TYR120      0.0417
    138  CZ        62.4710    6.5650  199.4270 C.ar  120  TYR120      0.1957
    139  OH        63.1810    5.6040  198.7630 O.3   120  TYR120     -0.2866
    140  N         68.1760   10.0940  198.2840 N.3   132  GLU132     -0.1245
    141  CA        67.7830    8.8780  198.9680 C.3   132  GLU132      0.1567
    142  C         66.4300    8.2900  198.4940 C.2   132  GLU132      0.2260
    143  O         66.1310    7.1130  198.7950 O.2   132  GLU132     -0.2867
    144  CB        67.8890    9.0860  200.4950 C.3   132  GLU132      0.0388
    145  CG        66.6600    8.7580  201.3310 C.3   132  GLU132      0.1160
    146  CD        66.0870    9.9960  201.9490 C.2   132  GLU132      0.3649
    147  OE1       64.8410   10.1430  201.9630 O.co2 132  GLU132     -0.2457
    148  OE2       66.9150   10.8010  202.4440 O.co2 132  GLU132     -0.2457
    149  N         68.0200    6.5150  195.3960 N.3   135  ILE135     -0.1231
    150  CA        68.8620    5.4290  195.7580 C.3   135  ILE135      0.1692
    151  C         67.9890    4.2580  195.9890 C.2   135  ILE135      0.2592
    152  O         68.2680    3.1770  195.5440 O.2   135  ILE135     -0.2718
    153  CB        69.6180    5.7210  197.0270 C.3   135  ILE135      0.0266
    154  CG1       70.8010    6.6010  196.6560 C.3   135  ILE135      0.0019
    155  CG2       70.1470    4.4410  197.6440 C.3   135  ILE135      0.0020
    156  CD1       71.4490    7.2270  197.8570 C.3   135  ILE135      0.0001
    157  N         66.9160    4.4970  196.7000 N.am  136  GLY136     -0.1957
    158  CA        66.1390    3.4310  197.2760 C.3   136  GLY136      0.1869
    159  C         65.2570    2.7230  196.2800 C.2   136  GLY136      0.2309
    160  O         64.7740    1.6210  196.4960 O.2   136  GLY136     -0.2863
    161  N         67.7860    0.5210  194.0010 N.3   139  LYS139     -0.1231
    162  CA        68.1020   -0.7220  194.7370 C.3   139  LYS139      0.1693
    163  C         66.9890   -1.7800  194.6620 C.2   139  LYS139      0.2591
    164  O         67.2590   -2.9700  194.4670 O.2   139  LYS139     -0.2718
    165  CB        68.3940   -0.3750  196.1930 C.3   139  LYS139      0.0285
    166  CG        69.7440    0.2820  196.4160 C.3   139  LYS139      0.0035
    167  CD        70.8640   -0.6610  196.0220 C.3   139  LYS139      0.0206
    168  CE        72.2250   -0.0690  196.3130 C.3   139  LYS139      0.1093
    169  NZ        72.5040    1.0840  195.4250 N.3   139  LYS139     -0.1314
    170  N         65.7360   -1.3620  194.8620 N.am  140  ALA140     -0.1980
    171  CA        64.5210   -2.1510  194.6890 C.3   140  ALA140      0.1597
    172  C         64.2840   -2.5380  193.2450 C.2   140  ALA140      0.2287
    173  O         63.7550   -3.5970  193.0300 O.2   140  ALA140     -0.2864
    174  CB        63.3230   -1.3210  195.1520 C.3   140  ALA140      0.0319
    175  N         67.2470   -5.2820  192.1400 N.3   143  PHE143     -0.1241
    176  CA        66.7320   -6.4810  192.7930 C.3   143  PHE143      0.1605
    177  C         65.6510   -7.1720  191.9750 C.2   143  PHE143      0.2264
    178  O         65.8400   -8.3140  191.6110 O.2   143  PHE143     -0.2867
    179  CB        66.2600   -6.0990  194.1790 C.3   143  PHE143      0.0534
    180  CG        65.5380   -7.1700  194.9120 C.ar  143  PHE143     -0.0203
    181  CD1       66.1620   -8.3790  195.2230 C.ar  143  PHE143     -0.0042
    182  CD2       64.2510   -6.9620  195.3440 C.ar  143  PHE143     -0.0042
    183  CE1       65.5250   -9.3650  195.9160 C.ar  143  PHE143     -0.0003
    184  CE2       63.5590   -7.9950  195.9990 C.ar  143  PHE143     -0.0003
    185  CZ        64.2290   -9.1830  196.3150 C.ar  143  PHE143     -0.0000
@<TRIPOS>BOND
     1   178   177    2
     2   177   176    1
     3   175   176    1
     4   176   179    1
     5   173   172    2
     6   172   171    1
     7   161   162    1
     8   179   180    1
     9   164   163    2
    10   163   162    1
    11   163   170   am
    12   171   170    1
    13   171   174    1
    14    28    26   am
    15   162   165    1
    16   180   181   ar
    17   180   182   ar
    18   181   183   ar
    19   182   184   ar
    20   149   150    1
    21   169   168    1
    22   152   151    2
    23   150   151    1
    24   150   153    1
    25    26    25    1
    26    26    27    2
    27    25    24    1
    28   183   185   ar
    29   151   157   am
    30   184   185   ar
    31   167   168    1
    32   167   166    1
    33   165   166    1
    34   159   160    2
    35   159   158    1
    36    20    21    1
    37   154   153    1
    38   154   156    1
    39   157   158    1
    40    21    24    1
    41    21    22    1
    42    11     9    1
    43   153   155    1
    44    10     9    1
    45     9     8    2
    46    22    23    2
    47   140   141    1
    48   142   143    2
    49   142   141    1
    50    35    33    1
    51    19    17    1
    52   139   138    1
    53    15    14    2
    54     8     7    1
    55   123   125   ar
    56   123   121   ar
    57   141   144    1
    58   136   138   ar
    59   136   134   ar
    60    12    13    1
    61   125   126   ar
    62    13    14    1
    63    13    16    1
    64   138   137   ar
    65     6     7    1
    66     6     5    1
    67    33    34    1
    68    33    30    1
    69   134   133   ar
    70    17    16    1
    71    17    18    1
    72     5     2    1
    73   118   117    1
    74   118   119    2
    75   120   117    1
    76   120   121    1
    77    29    30    1
    78     2     1    1
    79     2     3    1
    80   117   116    1
    81   121   122   ar
    82    45    43   ar
    83    45    46   ar
    84   127   126    1
    85   126   124   ar
    86     4     3    2
    87   144   145    1
    88   137   135   ar
    89    30    31    1
    90   133   135   ar
    91   133   132    1
    92    43    41   ar
    93   128   129    1
    94    46    44   ar
    95   122   124   ar
    96   145   146    1
    97    67    65   ar
    98    67    66   ar
    99   132   129    1
   100   114   113    1
   101    65    63   ar
   102    31    36   am
   103    31    32    2
   104   146   147   ar
   105   146   148   ar
   106    36    37    1
   107    41    40    1
   108    41    42   ar
   109   129   130    1
   110    66    64   ar
   111    44    42   ar
   112    40    37    1
   113   131   130    2
   114    39    38    2
   115    37    38    1
   116    63    64   ar
   117    63    62    1
   118   113   115    1
   119   113   110    1
   120    56    54   ar
   121    56    57   ar
   122    83    82    1
   123   111   110    1
   124   111   112    2
   125    54    52   ar
   126    57    55   ar
   127   110   109    1
   128    93    92   ar
   129    93    91   ar
   130    74    73    1
   131    62    59    1
   132   108   106    1
   133    82    81    1
   134    92    90   ar
   135    91    89   ar
   136    59    58    1
   137    59    60    1
   138   101    99    1
   139    73    72    1
   140    73    75    1
   141    52    53   ar
   142    52    51    1
   143    55    53   ar
   144   105   104    2
   145    90    89   ar
   146    89    88    1
   147    98    99    1
   148    98    95    1
   149    60    61    2
   150   106   107    1
   151   106   103    1
   152    72    69    1
   153    51    48    1
   154    99   100    1
   155    81    80    1
   156    94    95    1
   157    48    49    1
   158    48    47    1
   159    68    69    1
   160   104   103    1
   161    88    85    1
   162   103   102    1
   163    49    50    2
   164    95    96    1
   165    69    70    1
   166    80    77    1
   167    97    96    2
   168    71    70    2
   169    85    86    1
   170    85    84    1
   171    77    76    1
   172    77    78    1
   173    86    87    2
   174    78    79    2
