@<TRIPOS>MOLECULE
tmp/4n3pB00.pdb
 94 88 0 0 0
SMALL
GASTEIGER

@<TRIPOS>ATOM
      1  N         18.0870  -32.9820   -5.3010 N.3    21  ILE21      -0.1245
      2  CA        18.1290  -33.9160   -4.1820 C.3    21  ILE21       0.1561
      3  C         17.8510  -33.1620   -2.8760 C.2    21  ILE21       0.2260
      4  O         17.2240  -33.6860   -1.9590 O.2    21  ILE21      -0.2867
      5  CB        19.4660  -34.6730   -4.0760 C.3    21  ILE21       0.0252
      6  CG1       19.7260  -35.4940   -5.3380 C.3    21  ILE21       0.0019
      7  CG2       19.4550  -35.5790   -2.8610 C.3    21  ILE21       0.0019
      8  CD1       21.0200  -36.3390   -5.2790 C.3    21  ILE21       0.0001
      9  N         16.3400  -38.9210   -9.5400 N.3   187  HIS187     -0.1241
     10  CA        16.4700  -38.4540   -8.1660 C.3   187  HIS187      0.1621
     11  C         15.2370  -38.7300   -7.2940 C.2   187  HIS187      0.2264
     12  O         15.3770  -39.1990   -6.1560 O.2   187  HIS187     -0.2867
     13  CB        16.8860  -36.9820   -8.1450 C.3   187  HIS187      0.0745
     14  CG        18.2650  -36.7460   -8.6770 C.ar  187  HIS187      0.0817
     15  ND1       18.6030  -35.6270   -9.4110 N.ar  187  HIS187     -0.2268
     16  CD2       19.3920  -37.4970   -8.5910 C.ar  187  HIS187      0.1154
     17  CE1       19.8810  -35.6980   -9.7480 C.ar  187  HIS187      0.1986
     18  NE2       20.3810  -36.8220   -9.2660 N.ar  187  HIS187     -0.2212
     19  N         15.1750  -42.4310   -6.6480 N.3   190  ASP190     -0.1239
     20  CA        16.1860  -42.8080   -5.6540 C.3   190  ASP190      0.1674
     21  C         15.7100  -42.4150   -4.2530 C.2   190  ASP190      0.2266
     22  O         15.6970  -43.2280   -3.3320 O.2   190  ASP190     -0.2867
     23  CB        17.5390  -42.1500   -5.9410 C.3   190  ASP190      0.1410
     24  CG        18.1920  -42.6560   -7.2280 C.2   190  ASP190      0.3668
     25  OD1       17.7990  -43.7340   -7.7260 O.co2 190  ASP190     -0.2456
     26  OD2       19.1130  -41.9710   -7.7360 O.co2 190  ASP190     -0.2456
     27  N         15.1630  -44.7460   -0.9090 N.3   193  GLN193     -0.1245
     28  CA        15.9090  -44.3990    0.2970 C.3   193  GLN193      0.1566
     29  C         15.0210  -43.9920    1.4990 C.2   193  GLN193      0.2260
     30  O         15.4150  -44.1420    2.6650 O.2   193  GLN193     -0.2867
     31  CB        16.9510  -43.3240   -0.0370 C.3   193  GLN193      0.0367
     32  CG        17.1390  -42.2840    1.0310 C.3   193  GLN193      0.0905
     33  CD        18.4870  -41.6140    0.9650 C.2   193  GLN193      0.2608
     34  OE1       19.0530  -41.4230   -0.1130 O.2   193  GLN193     -0.2717
     35  NE2       19.0170  -41.2590    2.1250 N.am  193  GLN193     -0.0878
     36  N         18.3630  -40.1480    7.6710 N.3   217  LYS217     -0.1231
     37  CA        19.5560  -39.3480    7.5870 C.3   217  LYS217      0.1693
     38  C         19.7940  -39.1770    6.0900 C.2   217  LYS217      0.2592
     39  O         19.8310  -40.1600    5.3510 O.2   217  LYS217     -0.2718
     40  CB        20.7380  -40.0620    8.2450 C.3   217  LYS217      0.0285
     41  CG        22.0270  -39.2310    8.2190 C.3   217  LYS217      0.0035
     42  CD        23.2230  -39.9580    8.8370 C.3   217  LYS217      0.0206
     43  CE        24.4770  -39.0730    8.7170 C.3   217  LYS217      0.1093
     44  NZ        25.7780  -39.8000    8.8820 N.3   217  LYS217     -0.1314
     45  N         19.9100  -37.9320    5.6390 N.am  218  VAL218     -0.1966
     46  CA        20.2720  -37.6580    4.2530 C.3   218  VAL218      0.1727
     47  C         21.5400  -36.8280    4.1590 C.2   218  VAL218      0.2616
     48  O         21.6120  -35.7030    4.6630 O.2   218  VAL218     -0.2715
     49  CB        19.1570  -36.9480    3.4670 C.3   218  VAL218      0.0290
     50  CG1       19.6540  -36.5690    2.0740 C.3   218  VAL218      0.0023
     51  CG2       17.9500  -37.8230    3.3750 C.3   218  VAL218      0.0023
     52  N         22.5470  -37.4140    3.5240 N.am  219  VAL219     -0.1977
     53  CA        23.7770  -36.7170    3.1860 C.3   219  VAL219      0.1596
     54  C         23.7350  -36.4030    1.7040 C.2   219  VAL219      0.2287
     55  O         24.0460  -37.2570    0.8780 O.2   219  VAL219     -0.2864
     56  CB        24.9950  -37.5810    3.4880 C.3   219  VAL219      0.0276
     57  CG1       26.2640  -36.8160    3.1580 C.3   219  VAL219      0.0022
     58  CG2       24.9670  -38.0090    4.9490 C.3   219  VAL219      0.0022
     59  N         24.4440  -35.5240   -1.8850 N.3   221  PRO221     -0.2116
     60  CA        25.6130  -35.6230   -2.7620 C.3   221  PRO221      0.1372
     61  C         25.8350  -34.3790   -3.6180 C.2   221  PRO221      0.2244
     62  O         24.8820  -33.6900   -3.9820 O.2   221  PRO221     -0.2868
     63  CB        25.3050  -36.8440   -3.6410 C.3   221  PRO221      0.0268
     64  CG        23.8660  -37.0790   -3.5210 C.3   221  PRO221      0.0207
     65  CD        23.3960  -36.5000   -2.2330 C.3   221  PRO221      0.0892
     66  N         29.1030  -44.6160   -1.2160 N.3   272  ASP272     -0.1239
     67  CA        27.9440  -44.7070   -0.3430 C.3   272  ASP272      0.1674
     68  C         26.8360  -45.2650   -1.2100 C.2   272  ASP272      0.2266
     69  O         26.2680  -44.5400   -2.0260 O.2   272  ASP272     -0.2867
     70  CB        27.5660  -43.3200    0.1830 C.3   272  ASP272      0.1410
     71  CG        26.3540  -43.3380    1.1120 C.2   272  ASP272      0.3668
     72  OD1       25.5870  -44.3240    1.1120 O.co2 272  ASP272     -0.2456
     73  OD2       26.1530  -42.3350    1.8360 O.co2 272  ASP272     -0.2456
     74  N         23.7860  -46.1810   -0.6100 N.3   274  VAL274     -0.1231
     75  CA        22.4230  -45.6980   -0.3980 C.3   274  VAL274      0.1692
     76  C         22.2100  -44.2880   -0.9550 C.2   274  VAL274      0.2592
     77  O         21.1400  -43.9620   -1.4780 O.2   274  VAL274     -0.2718
     78  CB        22.0570  -45.7080    1.1000 C.3   274  VAL274      0.0266
     79  CG1       20.5500  -45.5190    1.2840 C.3   274  VAL274      0.0020
     80  CG2       22.5350  -47.0000    1.7540 C.3   274  VAL274      0.0020
     81  N         23.2340  -43.4540   -0.8240 N.am  275  ALA275     -0.1966
     82  CA        23.1850  -42.0950   -1.3490 C.3   275  ALA275      0.1728
     83  C         23.4550  -42.0890   -2.8420 C.2   275  ALA275      0.2616
     84  O         23.0250  -41.1820   -3.5500 O.2   275  ALA275     -0.2715
     85  CB        24.2120  -41.2190   -0.6340 C.3   275  ALA275      0.0334
     86  N         24.1690  -43.1150   -3.3010 N.am  276  LYS276     -0.1977
     87  CA        24.6860  -43.1800   -4.6640 C.3   276  LYS276      0.1596
     88  C         25.6280  -42.0020   -4.9000 C.2   276  LYS276      0.2287
     89  O         25.4270  -41.1570   -5.7760 O.2   276  LYS276     -0.2864
     90  CB        23.5550  -43.2790   -5.6940 C.3   276  LYS276      0.0298
     91  CG        22.7760  -44.5970   -5.6040 C.3   276  LYS276      0.0038
     92  CD        21.3050  -44.3550   -5.8410 C.3   276  LYS276      0.0206
     93  CE        20.8960  -44.8170   -7.2120 C.3   276  LYS276      0.1093
     94  NZ        20.8360  -46.2970   -7.2570 N.3   276  LYS276     -0.1314
@<TRIPOS>BOND
     1    17    15   ar
     2    17    18   ar
     3     9    10    1
     4    15    14   ar
     5    18    16   ar
     6    14    16   ar
     7    14    13    1
     8    10    13    1
     9    10    11    1
    10    26    24   ar
    11    25    24   ar
    12    11    12    2
    13    94    93    1
    14    24    23    1
    15    93    92    1
    16    19    20    1
    17    23    20    1
    18    92    91    1
    19    89    88    2
    20    90    91    1
    21    90    87    1
    22    20    21    1
    23     6     8    1
    24     6     5    1
    25     1     2    1
    26    88    87    1
    27    87    86    1
    28    21    22    2
    29     2     5    1
    30     2     3    1
    31     5     7    1
    32    62    61    2
    33    63    64    1
    34    63    60    1
    35    61    60    1
    36    84    83    2
    37    64    65    1
    38    86    83   am
    39     3     4    2
    40    83    82    1
    41    60    59    1
    42    65    59    1
    43    69    68    2
    44    77    76    2
    45    82    81    1
    46    82    85    1
    47    66    67    1
    48    68    67    1
    49    76    81   am
    50    76    75    1
    51    27    28    1
    52    74    75    1
    53    75    78    1
    54    67    70    1
    55    34    33    2
    56    31    28    1
    57    31    32    1
    58    70    71    1
    59    28    29    1
    60    55    54    2
    61    33    32    1
    62    33    35   am
    63    78    79    1
    64    78    80    1
    65    72    71   ar
    66    71    73   ar
    67    29    30    2
    68    54    53    1
    69    50    49    1
    70    57    56    1
    71    53    56    1
    72    53    52    1
    73    51    49    1
    74    49    46    1
    75    56    58    1
    76    52    47   am
    77    47    46    1
    78    47    48    2
    79    46    45    1
    80    39    38    2
    81    45    38   am
    82    38    37    1
    83    37    36    1
    84    37    40    1
    85    41    40    1
    86    41    42    1
    87    43    42    1
    88    43    44    1
