@<TRIPOS>MOLECULE
tmp/4n3rB00.pdb
 199 199 0 0 0
SMALL
GASTEIGER

@<TRIPOS>ATOM
      1  N         17.4620   37.1640   -1.4430 N.3    80  PHE80      -0.1227
      2  CA        18.3400   37.5150   -2.5500 C.3    80  PHE80       0.1736
      3  C         19.5750   38.2790   -2.0610 C.2    80  PHE80       0.2595
      4  O         19.5140   39.0090   -1.0730 O.2    80  PHE80      -0.2718
      5  CB        17.5930   38.4080   -3.5620 C.3    80  PHE80       0.0547
      6  CG        16.5350   37.6890   -4.3670 C.ar   80  PHE80      -0.0202
      7  CD1       16.8890   36.7550   -5.3370 C.ar   80  PHE80      -0.0042
      8  CD2       15.1850   37.9450   -4.1460 C.ar   80  PHE80      -0.0042
      9  CE1       15.9110   36.0790   -6.0760 C.ar   80  PHE80      -0.0003
     10  CE2       14.1980   37.2770   -4.8760 C.ar   80  PHE80      -0.0003
     11  CZ        14.5640   36.3400   -5.8450 C.ar   80  PHE80      -0.0000
     12  N         20.6880   38.1030   -2.7620 N.am   81  HIS81      -0.1961
     13  CA        21.9350   38.8060   -2.4570 C.3    81  HIS81       0.1787
     14  C         22.6760   39.0890   -3.7570 C.2    81  HIS81       0.2621
     15  O         22.8230   38.1990   -4.5990 O.2    81  HIS81      -0.2715
     16  CB        22.8540   37.9830   -1.5570 C.3    81  HIS81       0.0785
     17  CG        24.2190   38.5850   -1.3860 C.ar   81  HIS81       0.0821
     18  ND1       24.4820   39.6010   -0.4890 N.ar   81  HIS81      -0.2267
     19  CD2       25.3860   38.3400   -2.0280 C.ar   81  HIS81       0.1154
     20  CE1       25.7500   39.9550   -0.5890 C.ar   81  HIS81       0.1986
     21  NE2       26.3210   39.2070   -1.5150 N.ar   81  HIS81      -0.2212
     22  N         23.1380   40.3270   -3.9070 N.am   82  GLY82      -0.1940
     23  CA        23.8870   40.7230   -5.0880 C.3    82  GLY82       0.2014
     24  C         25.1070   41.5220   -4.6700 C.2    82  GLY82       0.2639
     25  O         25.0570   42.2460   -3.6800 O.2    82  GLY82      -0.2714
     26  N         26.2070   41.3850   -5.4020 N.am   83  SER83      -0.1949
     27  CA        27.4280   42.1130   -5.0720 C.3    83  SER83       0.1924
     28  C         28.5890   41.5870   -5.9070 C.2    83  SER83       0.2314
     29  O         28.5110   40.5020   -6.4740 O.2    83  SER83      -0.2863
     30  CB        27.7690   41.9530   -3.5870 C.3    83  SER83       0.2116
     31  OG        28.3870   40.7050   -3.3410 O.3    83  SER83      -0.2180
     32  N         31.0920   40.1560   -5.1580 N.3    85  PHE85      -0.1241
     33  CA        31.7760   39.0070   -4.5920 C.3    85  PHE85       0.1605
     34  C         31.1340   37.6340   -4.7830 C.2    85  PHE85       0.2264
     35  O         31.5320   36.6800   -4.1210 O.2    85  PHE85      -0.2867
     36  CB        32.0160   39.2810   -3.1060 C.3    85  PHE85       0.0534
     37  CG        32.5050   40.6760   -2.8320 C.ar   85  PHE85      -0.0203
     38  CD1       33.7350   41.1020   -3.3200 C.ar   85  PHE85      -0.0042
     39  CD2       31.7200   41.5740   -2.1210 C.ar   85  PHE85      -0.0042
     40  CE1       34.1800   42.4100   -3.1070 C.ar   85  PHE85      -0.0003
     41  CE2       32.1550   42.8820   -1.9020 C.ar   85  PHE85      -0.0003
     42  CZ        33.3890   43.2980   -2.3980 C.ar   85  PHE85      -0.0000
     43  N         33.4140   34.6270   -5.4280 N.3    88  ALA88      -0.1231
     44  CA        34.1700   34.2490   -4.2410 C.3    88  ALA88       0.1694
     45  C         33.2670   33.4470   -3.3070 C.2    88  ALA88       0.2591
     46  O         33.6620   32.4080   -2.7650 O.2    88  ALA88      -0.2718
     47  CB        34.6860   35.4930   -3.5400 C.3    88  ALA88       0.0304
     48  N         32.0450   33.9380   -3.1360 N.am   89  ILE89      -0.1980
     49  CA        31.0670   33.2980   -2.2720 C.3    89  ILE89       0.1595
     50  C         30.6790   31.8710   -2.6940 C.2    89  ILE89       0.2287
     51  O         30.5570   30.9860   -1.8470 O.2    89  ILE89      -0.2864
     52  CB        29.7920   34.1600   -2.1880 C.3    89  ILE89       0.0276
     53  CG1       30.1310   35.5140   -1.5680 C.3    89  ILE89       0.0022
     54  CG2       28.7250   33.4400   -1.3860 C.3    89  ILE89       0.0022
     55  CD1       29.0220   36.5190   -1.6850 C.3    89  ILE89       0.0001
     56  N         34.0380   29.6240   -1.7620 N.3    92  LYS92      -0.1231
     57  CA        34.4900   29.5620   -0.3730 C.3    92  LYS92       0.1693
     58  C         33.4050   29.8610    0.6570 C.2    92  LYS92       0.2593
     59  O         33.6480   29.7340    1.8550 O.2    92  LYS92      -0.2718
     60  CB        35.6340   30.5550   -0.1720 C.3    92  LYS92       0.0285
     61  CG        36.7580   30.4380   -1.1950 C.3    92  LYS92       0.0035
     62  CD        37.6180   31.6980   -1.1920 C.3    92  LYS92       0.0206
     63  CE        38.6310   31.6930   -2.3420 C.3    92  LYS92       0.1093
     64  NZ        39.4750   32.9350   -2.3600 N.3    92  LYS92      -0.1314
     65  N         32.2180   30.2590    0.1970 N.am   93  GLY93      -0.1942
     66  CA        31.1290   30.5920    1.1050 C.3    93  GLY93       0.2014
     67  C         31.1530   32.0660    1.5040 C.2    93  GLY93       0.2639
     68  O         32.1060   32.7770    1.1840 O.2    93  GLY93      -0.2714
     69  N         30.1030   32.5460    2.1700 N.am   94  PHE94      -0.1959
     70  CA        30.0750   33.9400    2.6280 C.3    94  PHE94       0.1771
     71  C         31.1560   34.0380    3.7180 C.2    94  PHE94       0.2619
     72  O         31.2550   33.1500    4.5590 O.2    94  PHE94      -0.2715
     73  CB        28.7070   34.2910    3.2390 C.3    94  PHE94       0.0574
     74  CG        27.5780   34.3760    2.2380 C.ar   94  PHE94      -0.0200
     75  CD1       27.3470   35.5410    1.5170 C.ar   94  PHE94      -0.0042
     76  CD2       26.7250   33.2930    2.0430 C.ar   94  PHE94      -0.0042
     77  CE1       26.2750   35.6260    0.6180 C.ar   94  PHE94      -0.0003
     78  CE2       25.6580   33.3670    1.1510 C.ar   94  PHE94      -0.0003
     79  CZ        25.4290   34.5320    0.4380 C.ar   94  PHE94      -0.0000
     80  N         31.9560   35.1020    3.7020 N.am   95  ASP95      -0.1971
     81  CA        33.0350   35.2990    4.6870 C.3    95  ASP95       0.1709
     82  C         32.9280   36.7030    5.2780 C.2    95  ASP95       0.2293
     83  O         33.2740   37.6730    4.6060 O.2    95  ASP95      -0.2864
     84  CB        34.3990   35.1400    3.9970 C.3    95  ASP95       0.1436
     85  CG        35.5720   35.1680    4.9690 C.2    95  ASP95       0.3671
     86  OD1       35.3900   35.5540    6.1470 O.co2  95  ASP95      -0.2456
     87  OD2       36.6850   34.8050    4.5350 O.co2  95  ASP95      -0.2456
     88  N         35.3590   39.9310    5.2330 N.3    98  HIS98      -0.1226
     89  CA        35.4180   40.8830    4.1210 C.3    98  HIS98       0.1752
     90  C         34.3210   41.9300    4.2290 C.2    98  HIS98       0.2596
     91  O         34.2750   42.8580    3.4340 O.2    98  HIS98      -0.2718
     92  CB        35.2700   40.1670    2.7660 C.3    98  HIS98       0.0759
     93  CG        36.4980   39.4360    2.3280 C.ar   98  HIS98       0.0818
     94  ND1       36.5530   38.0640    2.2460 N.ar   98  HIS98      -0.2268
     95  CD2       37.7230   39.8860    1.9660 C.ar   98  HIS98       0.1154
     96  CE1       37.7600   37.6970    1.8560 C.ar   98  HIS98       0.1986
     97  NE2       38.4880   38.7840    1.6800 N.ar   98  HIS98      -0.2212
     98  N         33.4360   41.7780    5.2070 N.am   99  ALA99      -0.1966
     99  CA        32.3600   42.7400    5.3740 C.3    99  ALA99       0.1728
    100  C         32.9380   44.1120    5.7490 C.2    99  ALA99       0.2616
    101  O         34.0400   44.1850    6.2980 O.2    99  ALA99      -0.2715
    102  CB        31.3980   42.2640    6.4170 C.3    99  ALA99       0.0334
    103  N         32.1860   45.1810    5.4530 N.am  100  TYR100     -0.1974
    104  CA        32.6190   46.5710    5.7000 C.3   100  TYR100      0.1639
    105  C         32.0880   47.1600    7.0240 C.2   100  TYR100      0.2290
    106  O         30.8810   47.3580    7.1590 O.2   100  TYR100     -0.2864
    107  CB        32.1860   47.4290    4.5260 C.3   100  TYR100      0.0560
    108  CG        32.8590   47.0850    3.1860 C.ar  100  TYR100     -0.0198
    109  CD1       34.2330   46.9030    3.0870 C.ar  100  TYR100     -0.0009
    110  CD2       32.0510   46.9490    2.0750 C.ar  100  TYR100     -0.0009
    111  CE1       34.7960   46.5780    1.8600 C.ar  100  TYR100      0.0417
    112  CE2       32.5920   46.6260    0.8470 C.ar  100  TYR100      0.0417
    113  CZ        33.9580   46.4400    0.7280 C.ar  100  TYR100      0.1957
    114  OH        34.4800   46.1910   -0.5300 O.3   100  TYR100     -0.2866
    115  N         28.2780   43.3150    8.3900 N.3   108  GLY108     -0.1210
    116  CA        27.5860   42.0670    8.1660 C.3   108  GLY108      0.1956
    117  C         27.3750   41.8490    6.6840 C.2   108  GLY108      0.2612
    118  O         27.8720   42.6050    5.8550 O.2   108  GLY108     -0.2717
    119  N         26.6360   40.7980    6.3670 N.am  109  ILE109     -0.1965
    120  CA        26.3210   40.4610    4.9950 C.3   109  ILE109      0.1727
    121  C         24.8410   40.7620    4.8170 C.2   109  ILE109      0.2616
    122  O         24.0050   40.2720    5.5740 O.2   109  ILE109     -0.2715
    123  CB        26.5990   38.9780    4.7390 C.3   109  ILE109      0.0290
    124  CG1       28.0360   38.6560    5.1400 C.3   109  ILE109      0.0022
    125  CG2       26.3450   38.6450    3.2940 C.3   109  ILE109      0.0023
    126  CD1       28.3080   37.1970    5.3060 C.3   109  ILE109      0.0001
    127  N         24.5270   41.5660    3.8060 N.am  110  TYR110     -0.1960
    128  CA        23.1530   41.9990    3.5480 C.3   110  TYR110      0.1771
    129  C         22.4030   41.2260    2.4660 C.2   110  TYR110      0.2620
    130  O         22.9640   40.8710    1.4290 O.2   110  TYR110     -0.2715
    131  CB        23.1450   43.4770    3.1600 C.3   110  TYR110      0.0574
    132  CG        23.7610   44.4140    4.1710 C.ar  110  TYR110     -0.0198
    133  CD1       25.0240   44.1650    4.7090 C.ar  110  TYR110     -0.0009
    134  CD2       23.0850   45.5640    4.5800 C.ar  110  TYR110     -0.0009
    135  CE1       25.5930   45.0330    5.6330 C.ar  110  TYR110      0.0417
    136  CE2       23.6460   46.4370    5.4990 C.ar  110  TYR110      0.0417
    137  CZ        24.9020   46.1630    6.0250 C.ar  110  TYR110      0.1957
    138  OH        25.4640   47.0100    6.9600 O.3   110  TYR110     -0.2866
    139  N         21.1170   41.0080    2.7230 N.am  111  PHE111     -0.1960
    140  CA        20.2170   40.2990    1.8180 C.3   111  PHE111      0.1771
    141  C         18.9210   41.1100    1.6980 C.2   111  PHE111      0.2619
    142  O         18.6480   41.9670    2.5300 O.2   111  PHE111     -0.2715
    143  CB        19.8830   38.9240    2.3920 C.3   111  PHE111      0.0574
    144  CG        21.0720   38.0370    2.5650 C.ar  111  PHE111     -0.0200
    145  CD1       21.3590   37.0540    1.6270 C.ar  111  PHE111     -0.0042
    146  CD2       21.9060   38.1800    3.6730 C.ar  111  PHE111     -0.0042
    147  CE1       22.4590   36.2250    1.7850 C.ar  111  PHE111     -0.0003
    148  CE2       23.0120   37.3530    3.8390 C.ar  111  PHE111     -0.0003
    149  CZ        23.2890   36.3720    2.8930 C.ar  111  PHE111     -0.0000
    150  N         18.1220   40.8380    0.6740 N.am  112  ALA112     -0.1977
    151  CA        16.8630   41.5550    0.4890 C.3   112  ALA112      0.1597
    152  C         15.8390   40.6150   -0.0920 C.2   112  ALA112      0.2287
    153  O         16.1910   39.6840   -0.8180 O.2   112  ALA112     -0.2864
    154  CB        17.0560   42.7410   -0.4430 C.3   112  ALA112      0.0319
    155  N         16.1720   45.1370   -5.5020 N.3   117  LYS117     -0.1231
    156  CA        17.0400   45.8460   -4.5600 C.3   117  LYS117      0.1693
    157  C         18.4740   45.3210   -4.6240 C.2   117  LYS117      0.2592
    158  O         19.4310   46.0980   -4.6370 O.2   117  LYS117     -0.2718
    159  CB        16.5280   45.7060   -3.1300 C.3   117  LYS117      0.0285
    160  CG        17.5720   46.0790   -2.0800 C.3   117  LYS117      0.0035
    161  CD        18.0810   47.5050   -2.2490 C.3   117  LYS117      0.0206
    162  CE        17.1300   48.5070   -1.6320 C.3   117  LYS117      0.1093
    163  NZ        15.7860   48.4210   -2.2740 N.3   117  LYS117     -0.1314
    164  N         18.6140   43.9990   -4.6480 N.am  118  SER118     -0.1952
    165  CA        19.9260   43.3720   -4.7260 C.3   118  SER118      0.1924
    166  C         20.5900   43.7450   -6.0400 C.2   118  SER118      0.2314
    167  O         21.8130   43.8850   -6.1170 O.2   118  SER118     -0.2863
    168  CB        19.7970   41.8520   -4.6550 C.3   118  SER118      0.2116
    169  OG        19.2550   41.4250   -3.4250 O.3   118  SER118     -0.2180
    170  N         20.8050   46.4070   -7.4410 N.3   120  GLN120     -0.1231
    171  CA        21.5540   47.6600   -7.3170 C.3   120  GLN120      0.1698
    172  C         22.9870   47.4380   -6.8240 C.2   120  GLN120      0.2592
    173  O         23.8910   48.2110   -7.1450 O.2   120  GLN120     -0.2718
    174  CB        20.8540   48.6160   -6.3450 C.3   120  GLN120      0.0381
    175  CG        19.4410   49.0120   -6.7710 C.3   120  GLN120      0.0905
    176  CD        18.7550   49.9620   -5.7790 C.2   120  GLN120      0.2608
    177  OE1       17.7790   50.6310   -6.1280 O.2   120  GLN120     -0.2717
    178  NE2       19.2590   50.0180   -4.5440 N.am  120  GLN120     -0.0878
    179  N         23.2140   46.3770   -6.0560 N.am  121  TYR121     -0.1976
    180  CA        24.5450   46.1420   -5.5080 C.3   121  TYR121      0.1639
    181  C         25.4460   45.2380   -6.3390 C.2   121  TYR121      0.2290
    182  O         26.6160   45.0700   -6.0250 O.2   121  TYR121     -0.2864
    183  CB        24.4060   45.5830   -4.0940 C.3   121  TYR121      0.0560
    184  CG        25.5570   45.9370   -3.1880 C.ar  121  TYR121     -0.0198
    185  CD1       26.6850   45.1200   -3.0880 C.ar  121  TYR121     -0.0009
    186  CD2       25.5030   47.0840   -2.4030 C.ar  121  TYR121     -0.0009
    187  CE1       27.7240   45.4370   -2.2170 C.ar  121  TYR121      0.0417
    188  CE2       26.5280   47.4110   -1.5360 C.ar  121  TYR121      0.0417
    189  CZ        27.6360   46.5890   -1.4420 C.ar  121  TYR121      0.1957
    190  OH        28.6460   46.9280   -0.5760 O.3   121  TYR121     -0.2866
    191  N         15.9960   45.3800    5.2890 N.3   182  GLU182     -0.1245
    192  CA        17.2970   44.8540    4.8920 C.3   182  GLU182      0.1567
    193  C         17.6270   43.7500    5.9040 C.2   182  GLU182      0.2260
    194  O         17.5540   43.9730    7.1130 O.2   182  GLU182     -0.2867
    195  CB        18.3310   45.9610    4.9700 C.3   182  GLU182      0.0388
    196  CG        18.3080   46.9130    3.8270 C.3   182  GLU182      0.1160
    197  CD        19.5680   47.7350    3.7730 C.2   182  GLU182      0.3649
    198  OE1       20.5290   47.4670    4.5420 O.co2 182  GLU182     -0.2457
    199  OE2       19.5850   48.6680    2.9490 O.co2 182  GLU182     -0.2457
@<TRIPOS>BOND
     1   170   171    1
     2   171   172    1
     3   171   174    1
     4   173   172    2
     5   172   179   am
     6   175   174    1
     7   175   176    1
     8    29    28    2
     9   181   182    2
    10   181   180    1
    11   177   176    2
    12   167   166    2
    13     9    11   ar
    14     9     7   ar
    15   179   180    1
    16   166   165    1
    17    28    27    1
    18    11    10   ar
    19   176   178   am
    20   180   183    1
    21   155   156    1
    22    43    44    1
    23    26    27    1
    24    26    24   am
    25     7     6   ar
    26    32    33    1
    27    23    24    1
    28    23    22    1
    29    27    30    1
    30    10     8   ar
    31    34    33    1
    32    34    35    2
    33   165   168    1
    34   165   164    1
    35    24    25    2
    36   168   169    1
    37   164   157   am
    38   158   157    2
    39   157   156    1
    40    15    14    2
    41    33    36    1
    42   156   159    1
    43     6     8   ar
    44     6     5    1
    45    44    47    1
    46    44    45    1
    47   183   184    1
    48    22    14   am
    49    14    13    1
    50    30    31    1
    51     5     2    1
    52    38    40   ar
    53    38    37   ar
    54    45    48   am
    55    45    46    2
    56   184   185   ar
    57   184   186   ar
    58    48    49    1
    59   159   160    1
    60    40    42   ar
    61    36    37    1
    62   185   187   ar
    63    37    39   ar
    64    12    13    1
    65    12     3   am
    66    50    49    1
    67    50    51    2
    68     2     3    1
    69     2     1    1
    70    13    16    1
    71   186   188   ar
    72    42    41   ar
    73    64    63    1
    74    63    62    1
    75   163   162    1
    76    49    52    1
    77   161   160    1
    78   161   162    1
    79   187   189   ar
    80    52    53    1
    81    52    54    1
    82    39    41   ar
    83     3     4    2
    84    19    21   ar
    85    19    17   ar
    86    56    57    1
    87    55    53    1
    88    16    17    1
    89   188   189   ar
    90    21    20   ar
    91   189   190    1
    92    17    18   ar
    93    61    62    1
    94    61    60    1
    95   153   152    2
    96    20    18   ar
    97   114   113    1
    98   154   151    1
    99    57    60    1
   100    57    58    1
   101   152   151    1
   102    65    58   am
   103    65    66    1
   104    79    77   ar
   105    79    78   ar
   106   151   150    1
   107    77    75   ar
   108    58    59    2
   109   150   141   am
   110   113   112   ar
   111   113   111   ar
   112   112   110   ar
   113    66    67    1
   114    78    76   ar
   115    68    67    2
   116   130   129    2
   117    67    69   am
   118    75    74   ar
   119   145   147   ar
   120   145   144   ar
   121    97    96   ar
   122    97    95   ar
   123   141   140    1
   124   141   142    2
   125   147   149   ar
   126   140   143    1
   127   140   139    1
   128    96    94   ar
   129   111   109   ar
   130    95    93   ar
   131    76    74   ar
   132   110   108   ar
   133    69    70    1
   134    74    73    1
   135    94    93   ar
   136    93    92    1
   137   143   144    1
   138   129   139   am
   139   129   128    1
   140   144   146   ar
   141    70    73    1
   142    70    71    1
   143    92    89    1
   144   149   148   ar
   145   199   197   ar
   146   109   108   ar
   147   131   128    1
   148   131   132    1
   149   108   107    1
   150   125   123    1
   151    91    90    2
   152   128   127    1
   153   146   148   ar
   154    80    71   am
   155    80    81    1
   156    71    72    2
   157   197   196    1
   158   197   198   ar
   159   127   121   am
   160   196   195    1
   161    84    81    1
   162    84    85    1
   163    89    90    1
   164    89    88    1
   165   132   134   ar
   166   132   133   ar
   167    90    98   am
   168   107   104    1
   169    87    85   ar
   170   134   136   ar
   171    83    82    2
   172    81    82    1
   173   133   135   ar
   174   123   120    1
   175   123   124    1
   176   121   120    1
   177   121   122    2
   178   192   195    1
   179   192   191    1
   180   192   193    1
   181    85    86   ar
   182   120   119    1
   183   124   126    1
   184    98    99    1
   185    99   100    1
   186    99   102    1
   187   103   104    1
   188   103   100   am
   189   136   137   ar
   190   135   137   ar
   191   104   105    1
   192   100   101    2
   193   118   117    2
   194   193   194    2
   195   137   138    1
   196   119   117   am
   197   117   116    1
   198   105   106    2
   199   116   115    1
