@<TRIPOS>MOLECULE
tmp/4n3vB02.pdb
 105 100 0 0 0
SMALL
GASTEIGER

@<TRIPOS>ATOM
      1  N         30.9670   64.9560  115.6460 N.3    31  TYR31      -0.1241
      2  CA        31.0400   63.9040  116.6400 C.3    31  TYR31       0.1605
      3  C         31.2230   64.4710  118.0630 C.2    31  TYR31       0.2264
      4  O         30.4170   64.2000  118.9370 O.2    31  TYR31      -0.2867
      5  CB        32.1210   62.8690  116.2630 C.3    31  TYR31       0.0534
      6  CG        32.3260   61.8350  117.3250 C.ar   31  TYR31      -0.0201
      7  CD1       31.5860   60.6730  117.3260 C.ar   31  TYR31      -0.0009
      8  CD2       33.2570   62.0190  118.3510 C.ar   31  TYR31      -0.0009
      9  CE1       31.7590   59.7190  118.3060 C.ar   31  TYR31       0.0417
     10  CE2       33.4230   61.0700  119.3380 C.ar   31  TYR31       0.0417
     11  CZ        32.6730   59.9240  119.3020 C.ar   31  TYR31       0.1957
     12  OH        32.8220   58.9620  120.2640 O.3    31  TYR31      -0.2866
     13  N         28.4780   57.9120  112.4860 N.3    47  LEU47      -0.1245
     14  CA        29.0390   56.5500  112.6120 C.3    47  LEU47       0.1561
     15  C         28.7640   55.7140  111.3840 C.2    47  LEU47       0.2260
     16  O         27.6760   55.7650  110.8660 O.2    47  LEU47      -0.2867
     17  CB        28.5010   55.8720  113.8690 C.3    47  LEU47       0.0270
     18  CG        28.7130   56.6720  115.1600 C.3    47  LEU47       0.0019
     19  CD1       28.0170   55.9870  116.3220 C.3    47  LEU47       0.0001
     20  CD2       30.1870   56.8720  115.4620 C.3    47  LEU47       0.0001
     21  N         30.5170   50.0610  111.1800 N.3    51  ILE51      -0.1245
     22  CA        31.4320   50.4710  112.2480 C.3    51  ILE51       0.1561
     23  C         32.0710   49.2320  112.8320 C.2    51  ILE51       0.2260
     24  O         31.3660   48.2690  113.0840 O.2    51  ILE51      -0.2867
     25  CB        30.7390   51.3420  113.3530 C.3    51  ILE51       0.0252
     26  CG1       31.7610   51.7880  114.4130 C.3    51  ILE51       0.0019
     27  CG2       29.5580   50.6000  114.0050 C.3    51  ILE51       0.0019
     28  CD1       31.5410   53.1700  114.9880 C.3    51  ILE51       0.0001
     29  N         31.2830   44.3680  124.3160 N.3    60  LEU60      -0.1245
     30  CA        30.0330   44.3300  123.5820 C.3    60  LEU60       0.1561
     31  C         30.3060   44.2510  122.0810 C.2    60  LEU60       0.2260
     32  O         31.2530   44.8310  121.5920 O.2    60  LEU60      -0.2867
     33  CB        29.2450   45.6200  123.8830 C.3    60  LEU60       0.0270
     34  CG        28.8470   45.8380  125.3500 C.3    60  LEU60       0.0019
     35  CD1       28.3150   47.2420  125.5210 C.3    60  LEU60       0.0001
     36  CD2       27.8110   44.8240  125.8000 C.3    60  LEU60       0.0001
     37  N         28.7350   45.5150  118.7300 N.3    62  PHE62      -0.1241
     38  CA        27.7410   46.4570  118.2360 C.3    62  PHE62       0.1605
     39  C         27.2750   46.0450  116.8320 C.2    62  PHE62       0.2264
     40  O         28.0900   45.6590  116.0010 O.2    62  PHE62      -0.2867
     41  CB        28.3300   47.8500  118.2410 C.3    62  PHE62       0.0534
     42  CG        28.6360   48.3670  119.6190 C.ar   62  PHE62      -0.0203
     43  CD1       27.6130   48.7460  120.4910 C.ar   62  PHE62      -0.0042
     44  CD2       29.9380   48.4830  120.0470 C.ar   62  PHE62      -0.0042
     45  CE1       27.9020   49.2360  121.7590 C.ar   62  PHE62      -0.0003
     46  CE2       30.2390   48.9610  121.3110 C.ar   62  PHE62      -0.0003
     47  CZ        29.2300   49.3550  122.1690 C.ar   62  PHE62      -0.0000
     48  N         25.6920   51.6120  119.2020 N.3    68  VAL68      -0.1245
     49  CA        26.8400   52.3690  119.6880 C.3    68  VAL68       0.1561
     50  C         26.3940   53.6040  120.4800 C.2    68  VAL68       0.2260
     51  O         26.9160   53.8730  121.5850 O.2    68  VAL68      -0.2867
     52  CB        27.7980   52.7980  118.5550 C.3    68  VAL68       0.0252
     53  CG1       28.8840   53.7160  119.0980 C.3    68  VAL68       0.0019
     54  CG2       28.3780   51.5880  117.8460 C.3    68  VAL68       0.0019
     55  N         24.9780   52.7830  123.9470 N.3    71  TYR71      -0.1227
     56  CA        26.0880   52.6390  124.8870 C.3    71  TYR71       0.1736
     57  C         26.6480   54.0290  125.3100 C.2    71  TYR71       0.2595
     58  O         26.8630   54.2860  126.4990 O.2    71  TYR71      -0.2718
     59  CB        27.2190   51.7750  124.3140 C.3    71  TYR71       0.0548
     60  CG        28.3920   51.8040  125.2380 C.ar   71  TYR71      -0.0200
     61  CD1       28.4450   50.9870  126.3460 C.ar   71  TYR71      -0.0009
     62  CD2       29.3810   52.7600  125.0760 C.ar   71  TYR71      -0.0009
     63  CE1       29.4740   51.0580  127.2380 C.ar   71  TYR71       0.0417
     64  CE2       30.4280   52.8480  125.9770 C.ar   71  TYR71       0.0417
     65  CZ        30.4640   52.0000  127.0440 C.ar   71  TYR71       0.1957
     66  OH        31.4750   52.0810  127.9740 O.3    71  TYR71      -0.2866
     67  N         26.9230   54.9060  124.3420 N.am   72  LEU72      -0.1980
     68  CA        27.4610   56.2290  124.6870 C.3    72  LEU72       0.1596
     69  C         26.5240   57.0240  125.6210 C.2    72  LEU72       0.2287
     70  O         26.9950   57.6720  126.5770 O.2    72  LEU72      -0.2864
     71  CB        27.7970   57.0420  123.4340 C.3    72  LEU72       0.0297
     72  CG        28.9490   56.4670  122.6330 C.3    72  LEU72       0.0022
     73  CD1       29.0610   57.1540  121.2820 C.3    72  LEU72       0.0001
     74  CD2       30.2780   56.5530  123.3830 C.3    72  LEU72       0.0001
     75  N         44.1680   59.8360  119.7090 N.3   127  TYR127     -0.1241
     76  CA        43.2600   58.9330  119.0170 C.3   127  TYR127      0.1605
     77  C         43.7860   58.6270  117.6420 C.2   127  TYR127      0.2264
     78  O         44.4170   59.4930  117.0020 O.2   127  TYR127     -0.2867
     79  CB        41.8340   59.5070  118.9660 C.3   127  TYR127      0.0534
     80  CG        41.0870   59.2630  120.2550 C.ar  127  TYR127     -0.0201
     81  CD1       41.4220   59.9570  121.4180 C.ar  127  TYR127     -0.0009
     82  CD2       40.0790   58.2890  120.3370 C.ar  127  TYR127     -0.0009
     83  CE1       40.7550   59.7200  122.6040 C.ar  127  TYR127      0.0417
     84  CE2       39.4020   58.0450  121.5340 C.ar  127  TYR127      0.0417
     85  CZ        39.7520   58.7590  122.6680 C.ar  127  TYR127      0.1957
     86  OH        39.1180   58.5390  123.8730 O.3   127  TYR127     -0.2866
     87  N         37.5970   53.7530  115.9760 N.3   143  THR143     -0.1218
     88  CA        38.1810   54.8610  116.7720 C.3   143  THR143      0.1862
     89  C         38.8040   54.2560  118.0240 C.2   143  THR143      0.2287
     90  O         38.1510   53.4990  118.7400 O.2   143  THR143     -0.2866
     91  CB        37.1560   56.0100  117.0350 C.3   143  THR143      0.1770
     92  OG1       37.7340   57.0040  117.9060 O.3   143  THR143     -0.2211
     93  CG2       35.8300   55.5130  117.6190 C.3   143  THR143      0.0375
     94  N         42.5270   54.6920  120.9040 N.3   145  TYR145     -0.1241
     95  CA        43.3230   55.7160  121.5870 C.3   145  TYR145      0.1605
     96  C         44.3770   55.1410  122.4990 C.2   145  TYR145      0.2264
     97  O         44.2690   54.0010  122.9750 O.2   145  TYR145     -0.2867
     98  CB        42.4210   56.6310  122.4040 C.3   145  TYR145      0.0534
     99  CG        41.6760   55.9140  123.5250 C.ar  145  TYR145     -0.0201
    100  CD1       40.5450   55.1300  123.2540 C.ar  145  TYR145     -0.0009
    101  CD2       42.0860   56.0260  124.8450 C.ar  145  TYR145     -0.0009
    102  CE1       39.8570   54.4750  124.2700 C.ar  145  TYR145      0.0417
    103  CE2       41.3960   55.3880  125.8680 C.ar  145  TYR145      0.0417
    104  CZ        40.2860   54.6120  125.5820 C.ar  145  TYR145      0.1957
    105  OH        39.6050   53.9640  126.5960 O.3   145  TYR145     -0.2866
@<TRIPOS>BOND
     1    16    15    2
     2    21    22    1
     3    15    14    1
     4    22    23    1
     5    22    25    1
     6    13    14    1
     7    14    17    1
     8    23    24    2
     9    25    27    1
    10    25    26    1
    11    17    18    1
    12    26    28    1
    13    18    20    1
    14    18    19    1
    15     1     2    1
    16    87    88    1
    17    40    39    2
    18     5     2    1
    19     5     6    1
    20     2     3    1
    21    88    91    1
    22    88    89    1
    23    39    38    1
    24    78    77    2
    25    91    93    1
    26    91    92    1
    27     6     7   ar
    28     6     8   ar
    29     7     9   ar
    30    77    76    1
    31    54    52    1
    32    89    90    2
    33     3     4    2
    34    38    41    1
    35    38    37    1
    36    41    42    1
    37     9    11   ar
    38     8    10   ar
    39    52    53    1
    40    52    49    1
    41    79    76    1
    42    79    80    1
    43    76    75    1
    44    48    49    1
    45    11    10   ar
    46    11    12    1
    47    42    44   ar
    48    42    43   ar
    49    49    50    1
    50    44    46   ar
    51    80    82   ar
    52    80    81   ar
    53    82    84   ar
    54    50    51    2
    55    43    45   ar
    56    94    95    1
    57    73    72    1
    58    46    47   ar
    59    81    83   ar
    60    84    85   ar
    61    95    98    1
    62    95    96    1
    63    32    31    2
    64    45    47   ar
    65    31    30    1
    66    98    99    1
    67    96    97    2
    68    83    85   ar
    69    72    74    1
    70    72    71    1
    71    85    86    1
    72   100    99   ar
    73   100   102   ar
    74    71    68    1
    75    99   101   ar
    76    30    33    1
    77    30    29    1
    78    33    34    1
    79    55    56    1
    80   102   104   ar
    81    59    56    1
    82    59    60    1
    83    67    68    1
    84    67    57   am
    85    68    69    1
    86   101   103   ar
    87    56    57    1
    88    62    60   ar
    89    62    64   ar
    90    60    61   ar
    91    57    58    2
    92    34    35    1
    93    34    36    1
    94   104   103   ar
    95   104   105    1
    96    69    70    2
    97    64    65   ar
    98    61    63   ar
    99    65    63   ar
   100    65    66    1
