@<TRIPOS>MOLECULE
tmp/4n3wA00.pdb
 139 137 0 0 0
SMALL
GASTEIGER

@<TRIPOS>ATOM
      1  N         33.1170    7.6960   15.3680 N.3    29  PRO29      -0.2102
      2  CA        31.9540    8.5960   15.5100 C.3    29  PRO29       0.1504
      3  C         30.6940    7.9260   16.1280 C.2    29  PRO29       0.2575
      4  O         29.7560    8.6380   16.4230 O.2    29  PRO29      -0.2718
      5  CB        31.6350    9.0220   14.0440 C.3    29  PRO29       0.0282
      6  CG        32.8920    8.7040   13.2880 C.3    29  PRO29       0.0208
      7  CD        33.5470    7.5230   13.9670 C.3    29  PRO29       0.0893
      8  N         30.6950    6.5840   16.1950 N.am   30  PHE30      -0.1977
      9  CA        29.5820    5.7960   16.6760 C.3    30  PHE30       0.1639
     10  C         29.7020    5.3100   18.1490 C.2    30  PHE30       0.2290
     11  O         28.7790    4.7090   18.6890 O.2    30  PHE30      -0.2864
     12  CB        29.3480    4.6280   15.7690 C.3    30  PHE30       0.0560
     13  CG        28.9870    5.0820   14.3650 C.ar   30  PHE30      -0.0200
     14  CD1       29.9820    5.3210   13.4420 C.ar   30  PHE30      -0.0042
     15  CD2       27.6880    5.2910   14.0150 C.ar   30  PHE30      -0.0042
     16  CE1       29.6800    5.7840   12.1530 C.ar   30  PHE30      -0.0003
     17  CE2       27.3590    5.7330   12.7430 C.ar   30  PHE30      -0.0003
     18  CZ        28.3590    6.0100   11.8240 C.ar   30  PHE30      -0.0000
     19  N         25.7360   11.1760   19.7810 N.3    34  VAL34      -0.1245
     20  CA        25.9900   12.4180   19.0900 C.3    34  VAL34       0.1561
     21  C         25.6250   13.6030   19.9830 C.2    34  VAL34       0.2260
     22  O         24.4960   13.6930   20.4550 O.2    34  VAL34      -0.2867
     23  CB        25.1320   12.4900   17.8040 C.3    34  VAL34       0.0252
     24  CG1       25.1600   13.8540   17.1640 C.3    34  VAL34       0.0019
     25  CG2       25.5700   11.3980   16.8660 C.3    34  VAL34       0.0019
     26  N         28.9710   19.9890   20.7430 N.3    38  LEU38      -0.1231
     27  CA        30.3590   19.6060   20.4730 C.3    38  LEU38       0.1693
     28  C         30.6310   19.5160   18.9760 C.2    38  LEU38       0.2592
     29  O         31.6230   20.0350   18.5000 O.2    38  LEU38      -0.2718
     30  CB        30.6650   18.2690   21.1410 C.3    38  LEU38       0.0284
     31  CG        32.0830   17.7520   21.3800 C.3    38  LEU38       0.0019
     32  CD1       32.6860   17.1110   20.1500 C.3    38  LEU38       0.0001
     33  CD2       32.9970   18.8530   21.9140 C.3    38  LEU38       0.0001
     34  N         29.7250   18.8850   18.2300 N.am   39  LEU39      -0.1966
     35  CA        29.9550   18.5770   16.8160 C.3    39  LEU39       0.1728
     36  C         29.5720   19.7210   15.8720 C.2    39  LEU39       0.2617
     37  O         29.7300   19.6140   14.6710 O.2    39  LEU39      -0.2715
     38  CB        29.1850   17.2850   16.4510 C.3    39  LEU39       0.0311
     39  CG        29.9150   15.9340   16.4060 C.3    39  LEU39       0.0022
     40  CD1       31.2410   15.8660   17.1300 C.3    39  LEU39       0.0001
     41  CD2       29.0060   14.7650   16.8320 C.3    39  LEU39       0.0001
     42  N         29.0380   20.8000   16.4140 N.am   40  GLY40      -0.1940
     43  CA        28.6230   21.9480   15.6100 C.3    40  GLY40       0.2014
     44  C         27.4490   21.7190   14.6750 C.2    40  GLY40       0.2639
     45  O         27.3960   22.3120   13.5810 O.2    40  GLY40      -0.2714
     46  N         26.4930   20.8840   15.1000 N.am   41  ILE41      -0.1963
     47  CA        25.3800   20.4910   14.2170 C.3    41  ILE41       0.1712
     48  C         24.0480   20.7640   14.9040 C.2    41  ILE41       0.2458
     49  O         23.3290   19.8260   15.3350 O.2    41  ILE41      -0.2730
     50  CB        25.5440   19.0130   13.7530 C.3    41  ILE41       0.0289
     51  CG1       25.8560   18.0820   14.9400 C.3    41  ILE41       0.0022
     52  CG2       26.6500   18.9570   12.7290 C.3    41  ILE41       0.0023
     53  CD1       25.9070   16.6150   14.6230 C.3    41  ILE41       0.0001
     54  N         23.6730   22.0580   14.9960 N.am   42  PRO42      -0.2716
     55  CA        22.5110   22.4140   15.8280 C.3    42  PRO42       0.1536
     56  C         21.1840   21.9400   15.2640 C.2    42  PRO42       0.2599
     57  O         20.1880   21.9760   15.9720 O.2    42  PRO42      -0.2715
     58  CB        22.5570   23.9560   15.8590 C.3    42  PRO42       0.0310
     59  CG        23.3000   24.3370   14.6290 C.3    42  PRO42       0.0237
     60  CD        24.3600   23.2670   14.5030 C.3    42  PRO42       0.0939
     61  N         21.1450   21.5500   13.9940 N.am   43  ASP43      -0.1958
     62  CA        19.9120   21.0010   13.4110 C.3    43  ASP43       0.1840
     63  C         19.8130   19.4480   13.5550 C.2    43  ASP43       0.2622
     64  O         18.8750   18.8460   13.0250 O.2    43  ASP43      -0.2715
     65  CB        19.8320   21.3770   11.8970 C.3    43  ASP43       0.1450
     66  CG        20.9920   20.8120   11.0950 C.2    43  ASP43       0.3671
     67  OD1       21.9070   20.2070   11.7210 O.co2  43  ASP43      -0.2456
     68  OD2       20.9790   20.9110    9.8290 O.co2  43  ASP43      -0.2456
     69  N         20.7230   18.7940   14.2930 N.am   44  TYR44      -0.1974
     70  CA        20.7090   17.3350   14.3870 C.3    44  TYR44       0.1639
     71  C         19.3880   16.6980   14.8210 C.2    44  TYR44       0.2290
     72  O         18.8510   15.7870   14.1210 O.2    44  TYR44      -0.2864
     73  CB        21.8860   16.8210   15.2230 C.3    44  TYR44       0.0560
     74  CG        22.0180   15.3340   15.2270 C.ar   44  TYR44      -0.0198
     75  CD1       22.6280   14.6520   14.1400 C.ar   44  TYR44      -0.0009
     76  CD2       21.6110   14.5890   16.2930 C.ar   44  TYR44      -0.0009
     77  CE1       22.6970   13.2740   14.1270 C.ar   44  TYR44       0.0417
     78  CE2       21.6890   13.2280   16.2850 C.ar   44  TYR44       0.0417
     79  CZ        22.1990   12.5590   15.1940 C.ar   44  TYR44       0.1957
     80  OH        22.3240   11.1910   15.2150 O.3    44  TYR44      -0.2866
     81  N         16.5140   16.5470   12.5240 N.3    47  ILE47      -0.1245
     82  CA        16.5730   15.5320   11.4890 C.3    47  ILE47       0.1561
     83  C         16.4420   14.1420   12.1130 C.2    47  ILE47       0.2260
     84  O         15.6730   13.3300   11.6500 O.2    47  ILE47      -0.2867
     85  CB        17.9020   15.6280   10.7160 C.3    47  ILE47       0.0252
     86  CG1       18.0750   17.0110   10.0570 C.3    47  ILE47       0.0019
     87  CG2       17.9950   14.5120    9.6630 C.3    47  ILE47       0.0019
     88  CD1       16.9220   17.4510    9.1930 C.3    47  ILE47       0.0001
     89  N         22.6370    7.9490   10.7510 N.3    83  ALA83      -0.1245
     90  CA        23.8470    8.4860   10.2070 C.3    83  ALA83       0.1562
     91  C         23.8290    8.6510    8.6600 C.2    83  ALA83       0.2260
     92  O         24.3050    9.6550    8.1570 O.2    83  ALA83      -0.2867
     93  CB        25.0200    7.6510   10.6230 C.3    83  ALA83       0.0290
     94  N         21.1040    9.1530    7.0730 N.3    85  LEU85      -0.1231
     95  CA        20.1800   10.2750    6.8530 C.3    85  LEU85       0.1693
     96  C         20.8390   11.6500    7.0840 C.2    85  LEU85       0.2592
     97  O         20.7520   12.5760    6.2740 O.2    85  LEU85      -0.2718
     98  CB        18.9260   10.0880    7.7160 C.3    85  LEU85       0.0284
     99  CG        17.9440   11.2280    7.6830 C.3    85  LEU85       0.0019
    100  CD1       17.3660   11.3940    6.2530 C.3    85  LEU85       0.0001
    101  CD2       16.9110   10.9780    8.7680 C.3    85  LEU85       0.0001
    102  N         21.4540   11.8310    8.2460 N.am   86  TYR86      -0.1962
    103  CA        22.0070   13.1210    8.6160 C.3    86  TYR86       0.1771
    104  C         23.1990   13.5590    7.7510 C.2    86  TYR86       0.2620
    105  O         23.2340   14.6750    7.2900 O.2    86  TYR86      -0.2715
    106  CB        22.3700   13.2090   10.1230 C.3    86  TYR86       0.0574
    107  CG        22.7810   14.6230   10.4230 C.ar   86  TYR86      -0.0198
    108  CD1       21.8160   15.5860   10.5910 C.ar   86  TYR86      -0.0009
    109  CD2       24.0800   14.9940   10.4730 C.ar   86  TYR86      -0.0009
    110  CE1       22.1550   16.8850   10.8400 C.ar   86  TYR86       0.0417
    111  CE2       24.4430   16.2980   10.6920 C.ar   86  TYR86       0.0417
    112  CZ        23.4640   17.2440   10.8360 C.ar   86  TYR86       0.1957
    113  OH        23.7770   18.5740   11.0290 O.3    86  TYR86      -0.2866
    114  N         24.1850   12.6830    7.6030 N.am   87  ASN87      -0.1958
    115  CA        25.4210   13.0100    6.9840 C.3    87  ASN87       0.1819
    116  C         25.2770   12.8860    5.4580 C.2    87  ASN87       0.2621
    117  O         24.4950   12.0460    4.9530 O.2    87  ASN87      -0.2715
    118  CB        26.4880   12.1120    7.5190 C.3    87  ASN87       0.1195
    119  CG        26.6180   12.2480    9.0440 C.2    87  ASN87       0.2630
    120  OD1       27.1960   13.2180    9.5420 O.2    87  ASN87      -0.2716
    121  ND2       26.0230   11.3310    9.7540 N.am   87  ASN87      -0.0877
    122  N         25.9960   13.7090    4.7600 N.am   88  ARG88      -0.1977
    123  CA        25.9750   13.5950    3.2650 C.3    88  ARG88       0.1597
    124  C         26.6790   12.3170    2.7810 C.2    88  ARG88       0.2287
    125  O         27.6430   11.8200    3.3910 O.2    88  ARG88      -0.2864
    126  CB        26.6510   14.8130    2.6210 C.3    88  ARG88       0.0334
    127  CG        26.2290   16.2260    3.0170 C.3    88  ARG88       0.0492
    128  CD        24.7480   16.4660    2.9310 C.3    88  ARG88       0.2205
    129  NE        24.3590   17.8390    2.5120 N.pl3  88  ARG88      -0.0865
    130  CZ        24.7010   18.9960    3.1020 C.cat  88  ARG88       0.5346
    131  NH1       25.5300   19.0570    4.1360 N.pl3  88  ARG88       0.1354
    132  NH2       24.2310   20.1380    2.6140 N.pl3  88  ARG88       0.1354
    133  N         31.8930   10.3390    7.7550 N.3    93  VAL93      -0.1245
    134  CA        31.0140    9.6340    8.7090 C.3    93  VAL93       0.1561
    135  C         30.0010    8.7350    7.9540 C.2    93  VAL93       0.2260
    136  O         29.7470    7.6020    8.3020 O.2    93  VAL93      -0.2867
    137  CB        30.2910   10.6080    9.6390 C.3    93  VAL93       0.0252
    138  CG1       29.3340    9.8690   10.5850 C.3    93  VAL93       0.0019
    139  CG2       31.2950   11.3950   10.5050 C.3    93  VAL93       0.0019
@<TRIPOS>BOND
     1   129   128    1
     2   129   130    2
     3   132   130    1
     4   126   127    1
     5   126   123    1
     6   124   123    1
     7   124   125    2
     8   128   127    1
     9   130   131    1
    10   123   122    1
    11   122   116   am
    12   117   116    2
    13   116   115    1
    14   100    99    1
    15    97    96    2
    16    95    94    1
    17    95    96    1
    18    95    98    1
    19   115   118    1
    20   115   114    1
    21    96   102   am
    22   105   104    2
    23   118   119    1
    24   114   104   am
    25    99    98    1
    26    99   101    1
    27   104   103    1
    28   133   134    1
    29   135   136    2
    30   135   134    1
    31    92    91    2
    32   102   103    1
    33   103   106    1
    34    91    90    1
    35   134   137    1
    36   119   120    2
    37   119   121   am
    38    88    86    1
    39   137   139    1
    40   137   138    1
    41    87    85    1
    42    68    66   ar
    43    86    85    1
    44   106   107    1
    45    90    93    1
    46    90    89    1
    47   107   109   ar
    48   107   108   ar
    49   109   111   ar
    50   108   110   ar
    51   111   112   ar
    52    85    82    1
    53   112   110   ar
    54   112   113    1
    55    66    67   ar
    56    66    65    1
    57    82    83    1
    58    82    81    1
    59    84    83    2
    60    18    16   ar
    61    18    17   ar
    62    65    62    1
    63    16    14   ar
    64    52    50    1
    65    17    15   ar
    66    64    63    2
    67     6     7    1
    68     6     5    1
    69    62    63    1
    70    62    61    1
    71    14    13   ar
    72    63    69   am
    73    45    44    2
    74    50    47    1
    75    50    51    1
    76     7     1    1
    77    61    56   am
    78    15    13   ar
    79     5     2    1
    80    72    71    2
    81    77    75   ar
    82    77    79   ar
    83    75    74   ar
    84    47    48    1
    85    47    46    1
    86    69    70    1
    87    13    12    1
    88    70    71    1
    89    70    73    1
    90    60    59    1
    91    60    54    1
    92    53    51    1
    93    59    58    1
    94    37    36    2
    95    44    46   am
    96    44    43    1
    97    48    54   am
    98    48    49    2
    99    54    55    1
   100    79    80    1
   101    79    78   ar
   102    73    74    1
   103    74    76   ar
   104    56    55    1
   105    56    57    2
   106     1     2    1
   107     2     3    1
   108    43    42    1
   109    12     9    1
   110    55    58    1
   111    36    42   am
   112    36    35    1
   113     3     8   am
   114     3     4    2
   115     8     9    1
   116    78    76   ar
   117    39    38    1
   118    39    41    1
   119    39    40    1
   120    38    35    1
   121     9    10    1
   122    35    34    1
   123    25    23    1
   124    24    23    1
   125    23    20    1
   126    10    11    2
   127    34    28   am
   128    29    28    2
   129    28    27    1
   130    20    19    1
   131    20    21    1
   132    21    22    2
   133    32    31    1
   134    27    26    1
   135    27    30    1
   136    30    31    1
   137    31    33    1
