@<TRIPOS>MOLECULE
tmp/4n48B02.pdb
 167 156 0 0 0
SMALL
GASTEIGER

@<TRIPOS>ATOM
      1  N         17.4540   28.1550   38.2870 N.3    63  LYS63      -0.1231
      2  CA        16.0760   27.7380   38.0710 C.3    63  LYS63       0.1693
      3  C         15.2140   28.2190   39.2240 C.2    63  LYS63       0.2592
      4  O         14.1290   28.7600   39.0150 O.2    63  LYS63      -0.2718
      5  CB        15.9670   26.2170   37.9600 C.3    63  LYS63       0.0285
      6  CG        16.4770   25.6340   36.6540 C.3    63  LYS63       0.0035
      7  CD        16.0320   24.1860   36.4930 C.3    63  LYS63       0.0206
      8  CE        16.6200   23.5610   35.2350 C.3    63  LYS63       0.1093
      9  NZ        16.0080   22.2400   34.9220 N.3    63  LYS63      -0.1314
     10  N         15.7110   28.0250   40.4450 N.am   64  SER64      -0.1952
     11  CA        14.9440   28.3180   41.6610 C.3    64  SER64       0.1924
     12  C         14.6510   29.7990   41.8940 C.2    64  SER64       0.2314
     13  O         13.7880   30.1380   42.6980 O.2    64  SER64      -0.2863
     14  CB        15.6100   27.6980   42.8890 C.3    64  SER64       0.2116
     15  OG        15.3610   26.3040   42.9370 O.3    64  SER64      -0.2180
     16  N         13.0320   31.5920   39.9660 N.3    66  PHE66      -0.1227
     17  CA        11.6570   31.7880   39.5250 C.3    66  PHE66       0.1736
     18  C         10.6320   31.0920   40.4170 C.2    66  PHE66       0.2595
     19  O          9.4560   31.0070   40.0620 O.2    66  PHE66      -0.2718
     20  CB        11.4990   31.3100   38.0820 C.3    66  PHE66       0.0547
     21  CG        12.5780   31.8060   37.1660 C.ar   66  PHE66      -0.0202
     22  CD1       12.5400   33.0950   36.6670 C.ar   66  PHE66      -0.0042
     23  CD2       13.6360   30.9850   36.8140 C.ar   66  PHE66      -0.0042
     24  CE1       13.5320   33.5560   35.8280 C.ar   66  PHE66      -0.0003
     25  CE2       14.6360   31.4400   35.9790 C.ar   66  PHE66      -0.0003
     26  CZ        14.5850   32.7270   35.4840 C.ar   66  PHE66      -0.0000
     27  N         11.0790   30.5930   41.5680 N.am   67  ASP67      -0.1974
     28  CA        10.1760   29.9620   42.5320 C.3    67  ASP67       0.1709
     29  C          9.2100   30.9710   43.1440 C.2    67  ASP67       0.2293
     30  O          8.1230   30.6100   43.5970 O.2    67  ASP67      -0.2864
     31  CB        10.9630   29.2660   43.6470 C.3    67  ASP67       0.1436
     32  CG        11.5060   27.9170   43.2210 C.2    67  ASP67       0.3671
     33  OD1       10.8960   27.2840   42.3360 O.co2  67  ASP67      -0.2456
     34  OD2       12.5390   27.4850   43.7740 O.co2  67  ASP67      -0.2456
     35  N          4.6690   33.2250   37.0830 N.3    71  GLY71      -0.1225
     36  CA         4.8550   32.3220   35.9570 C.3    71  GLY71       0.1811
     37  C          4.6400   32.9450   34.5890 C.2    71  GLY71       0.2280
     38  O          5.4150   32.7040   33.6580 O.2    71  GLY71      -0.2866
     39  N          7.2040   35.5850   33.9420 N.3    74  MET74      -0.1230
     40  CA         8.4770   34.9600   33.6090 C.3    74  MET74       0.1702
     41  C          8.5300   34.5610   32.1410 C.2    74  MET74       0.2592
     42  O          9.5370   34.7750   31.4690 O.2    74  MET74      -0.2718
     43  CB         8.7220   33.7350   34.4890 C.3    74  MET74       0.0401
     44  CG        10.1060   33.1440   34.3230 C.3    74  MET74       0.0596
     45  SD        10.1360   31.5780   33.4390 S.3    74  MET74      -0.1393
     46  CE        10.1740   30.4270   34.8090 C.3    74  MET74       0.0692
     47  N          7.4360   33.9870   31.6480 N.am   75  ARG75      -0.1980
     48  CA         7.3610   33.5440   30.2590 C.3    75  ARG75       0.1597
     49  C          7.3250   34.7060   29.2680 C.2    75  ARG75       0.2287
     50  O          7.5480   34.5140   28.0730 O.2    75  ARG75      -0.2864
     51  CB         6.1620   32.6130   30.0460 C.3    75  ARG75       0.0334
     52  CG         6.3000   31.2660   30.7440 C.3    75  ARG75       0.0492
     53  CD         5.2010   30.2870   30.3370 C.3    75  ARG75       0.2205
     54  NE         3.8690   30.7460   30.7280 N.pl3  75  ARG75      -0.0865
     55  CZ         3.3180   30.5200   31.9170 C.cat  75  ARG75       0.5346
     56  NH1        2.1010   30.9760   32.1830 N.pl3  75  ARG75       0.1354
     57  NH2        3.9830   29.8380   32.8400 N.pl3  75  ARG75       0.1354
     58  N         11.0090   35.4900   28.9230 N.3    78  ARG78      -0.1245
     59  CA        11.5270   34.3710   28.1470 C.3    78  ARG78       0.1563
     60  C         11.3150   34.6180   26.6570 C.2    78  ARG78       0.2260
     61  O         12.2160   34.3940   25.8480 O.2    78  ARG78      -0.2867
     62  CB        10.8120   33.0880   28.5700 C.3    78  ARG78       0.0307
     63  CG        11.2520   31.8390   27.8370 C.3    78  ARG78       0.0489
     64  CD        10.3820   30.6540   28.2280 C.3    78  ARG78       0.2205
     65  NE         9.0560   30.7280   27.6210 N.pl3  78  ARG78      -0.0865
     66  CZ         8.1600   29.7470   27.6580 C.cat  78  ARG78       0.5346
     67  NH1        6.9820   29.9020   27.0710 N.pl3  78  ARG78       0.1354
     68  NH2        8.4400   28.6080   28.2770 N.pl3  78  ARG78       0.1354
     69  N          5.9650   19.1590   35.5240 N.3   227  VAL227     -0.1245
     70  CA         6.6680   18.9570   36.7840 C.3   227  VAL227      0.1561
     71  C          6.5750   20.2250   37.6300 C.2   227  VAL227      0.2260
     72  O          7.4860   20.5530   38.3890 O.2   227  VAL227     -0.2867
     73  CB         8.1420   18.5360   36.5710 C.3   227  VAL227      0.0252
     74  CG1        8.2020   17.1870   35.8660 C.3   227  VAL227      0.0019
     75  CG2        8.9070   19.5910   35.7870 C.3   227  VAL227      0.0019
     76  N         10.1900   21.4530   39.6880 N.3   231  GLU231     -0.1231
     77  CA        10.8570   21.4770   38.3900 C.3   231  GLU231      0.1699
     78  C         12.2830   20.9240   38.4540 C.2   231  GLU231      0.2592
     79  O         12.7420   20.2550   37.5260 O.2   231  GLU231     -0.2718
     80  CB        10.8660   22.9010   37.8180 C.3   231  GLU231      0.0402
     81  CG         9.4850   23.4580   37.4490 C.3   231  GLU231      0.1161
     82  CD         8.7120   23.9990   38.6430 C.2   231  GLU231      0.3649
     83  OE1        9.2910   24.0890   39.7460 O.co2 231  GLU231     -0.2457
     84  OE2        7.5230   24.3410   38.4790 O.co2 231  GLU231     -0.2457
     85  N         12.9740   21.1910   39.5580 N.am  232  ASN232     -0.1974
     86  CA        14.3700   20.7960   39.6960 C.3   232  ASN232      0.1688
     87  C         14.5780   19.2880   39.6800 C.2   232  ASN232      0.2292
     88  O         15.6790   18.8170   39.4010 O.2   232  ASN232     -0.2864
     89  CB        14.9880   21.4180   40.9500 C.3   232  ASN232      0.1181
     90  CG        15.2540   22.9060   40.7920 C.2   232  ASN232      0.2629
     91  OD1       14.7930   23.5300   39.8410 O.2   232  ASN232     -0.2716
     92  ND2       16.0030   23.4790   41.7250 N.am  232  ASN232     -0.0877
     93  N         13.0160   17.1850   37.6490 N.3   234  GLN234     -0.1245
     94  CA        12.4150   16.7610   36.3870 C.3   234  GLN234      0.1566
     95  C         13.0080   15.4730   35.7990 C.2   234  GLN234      0.2260
     96  O         12.2720   14.6030   35.3310 O.2   234  GLN234     -0.2867
     97  CB        12.5320   17.8960   35.3740 C.3   234  GLN234      0.0367
     98  CG        12.0320   17.5580   33.9870 C.3   234  GLN234      0.0905
     99  CD        12.2850   18.6810   33.0140 C.2   234  GLN234      0.2608
    100  OE1       13.4150   19.1480   32.8690 O.2   234  GLN234     -0.2717
    101  NE2       11.2330   19.1310   32.3480 N.am  234  GLN234     -0.0878
    102  N         16.0580   15.1240   29.3630 N.3   264  PHE264     -0.1241
    103  CA        16.1880   16.3580   30.1120 C.3   264  PHE264      0.1605
    104  C         17.5950   16.4030   30.6710 C.2   264  PHE264      0.2264
    105  O         18.5450   16.0440   29.9660 O.2   264  PHE264     -0.2867
    106  CB        15.1160   16.4410   31.1960 C.3   264  PHE264      0.0534
    107  CG        13.7100   16.4630   30.6490 C.ar  264  PHE264     -0.0203
    108  CD1       13.2000   17.6110   30.0560 C.ar  264  PHE264     -0.0042
    109  CD2       12.9040   15.3340   30.7140 C.ar  264  PHE264     -0.0042
    110  CE1       11.9090   17.6370   29.5490 C.ar  264  PHE264     -0.0003
    111  CE2       11.6100   15.3520   30.2080 C.ar  264  PHE264     -0.0003
    112  CZ        11.1130   16.5060   29.6240 C.ar  264  PHE264     -0.0000
    113  N         14.2580   25.7160   23.7160 N.3   294  ARG294     -0.1245
    114  CA        14.4400   26.9640   24.4610 C.3   294  ARG294      0.1563
    115  C         15.6710   26.9390   25.3650 C.2   294  ARG294      0.2260
    116  O         15.8310   26.0320   26.1700 O.2   294  ARG294     -0.2867
    117  CB        13.1760   27.3210   25.2490 C.3   294  ARG294      0.0307
    118  CG        11.9910   27.7270   24.3730 C.3   294  ARG294      0.0489
    119  CD        10.9060   28.4150   25.1900 C.3   294  ARG294      0.2205
    120  NE         9.8650   29.0000   24.3450 N.pl3 294  ARG294     -0.0865
    121  CZ         8.6930   28.4230   24.0950 C.cat 294  ARG294      0.5346
    122  NH1        8.4060   27.2420   24.6280 N.pl3 294  ARG294      0.1354
    123  NH2        7.8060   29.0260   23.3150 N.pl3 294  ARG294      0.1354
    124  N         16.9080   28.1600   28.0110 N.3   296  ALA296     -0.1231
    125  CA        16.9610   28.1930   29.4670 C.3   296  ALA296      0.1694
    126  C         16.4820   26.8900   30.1120 C.2   296  ALA296      0.2592
    127  O         16.5710   26.7300   31.3340 O.2   296  ALA296     -0.2718
    128  CB        16.1830   29.3870   30.0040 C.3   296  ALA296      0.0304
    129  N         15.9910   25.9580   29.2960 N.am  297  ASN297     -0.1960
    130  CA        15.5030   24.6770   29.8120 C.3   297  ASN297      0.1819
    131  C         16.5300   23.5380   29.7490 C.2   297  ASN297      0.2622
    132  O         17.6120   23.6910   29.1830 O.2   297  ASN297     -0.2715
    133  CB        14.1800   24.2660   29.1430 C.3   297  ASN297      0.1195
    134  CG        14.3230   23.9790   27.6490 C.2   297  ASN297      0.2630
    135  OD1       15.2910   23.3670   27.2040 O.2   297  ASN297     -0.2716
    136  ND2       13.3510   24.4330   26.8690 N.am  297  ASN297     -0.0877
    137  N         16.1720   22.3970   30.3290 N.am  298  SER298     -0.1936
    138  CA        17.0750   21.2590   30.4100 C.3   298  SER298      0.2055
    139  C         16.8330   20.2970   29.2590 C.2   298  SER298      0.2642
    140  O         17.3420   19.1740   29.2520 O.2   298  SER298     -0.2714
    141  CB        16.8950   20.5330   31.7450 C.3   298  SER298      0.2130
    142  OG        17.2300   21.3730   32.8370 O.3   298  SER298     -0.2179
    143  N         16.0510   20.7440   28.2840 N.am  299  GLU299     -0.1976
    144  CA        15.7420   19.9210   27.1210 C.3   299  GLU299      0.1602
    145  C         16.9480   19.7760   26.1900 C.2   299  GLU299      0.2287
    146  O         17.5990   20.7580   25.8270 O.2   299  GLU299     -0.2864
    147  CB        14.5380   20.5020   26.3590 C.3   299  GLU299      0.0415
    148  CG        14.0550   19.6940   25.1530 C.3   299  GLU299      0.1163
    149  CD        12.7850   20.2760   24.5360 C.2   299  GLU299      0.3649
    150  OE1       12.8110   21.4490   24.0950 O.co2 299  GLU299     -0.2457
    151  OE2       11.7550   19.5660   24.5010 O.co2 299  GLU299     -0.2457
    152  N         19.2320   31.3940   31.7280 N.3   369  LEU369     -0.1245
    153  CA        18.4180   31.5250   32.9310 C.3   369  LEU369      0.1561
    154  C         18.6320   32.8950   33.5600 C.2   369  LEU369      0.2260
    155  O         17.6750   33.5970   33.8980 O.2   369  LEU369     -0.2867
    156  CB        18.7550   30.4210   33.9300 C.3   369  LEU369      0.0270
    157  CG        18.0070   29.1120   33.6840 C.3   369  LEU369      0.0019
    158  CD1       18.5590   27.9890   34.5560 C.3   369  LEU369      0.0001
    159  CD2       16.5150   29.3100   33.9260 C.3   369  LEU369      0.0001
    160  N         16.9000   35.5090   31.3270 N.3   372  ILE372     -0.1245
    161  CA        15.4660   35.6640   31.5730 C.3   372  ILE372      0.1561
    162  C         15.2260   36.5040   32.8210 C.2   372  ILE372      0.2260
    163  O         14.4210   37.4340   32.8040 O.2   372  ILE372     -0.2867
    164  CB        14.7510   34.3020   31.7460 C.3   372  ILE372      0.0252
    165  CG1       14.6960   33.5450   30.4190 C.3   372  ILE372      0.0019
    166  CG2       13.3410   34.4980   32.3010 C.3   372  ILE372      0.0019
    167  CD1       13.9170   32.2530   30.4940 C.3   372  ILE372      0.0001
@<TRIPOS>BOND
     1   123   121    1
     2   113   114    1
     3   150   149   ar
     4   121   120    2
     5   121   122    1
     6   120   119    1
     7   118   119    1
     8   118   117    1
     9   114   117    1
    10   114   115    1
    11   151   149   ar
    12   149   148    1
    13   148   147    1
    14   115   116    2
    15   146   145    2
    16    61    60    2
    17   145   144    1
    18   147   144    1
    19    60    59    1
    20   136   134   am
    21    67    66    1
    22   144   143    1
    23   135   134    2
    24    65    66    2
    25    65    64    1
    26   134   133    1
    27    66    68    1
    28    63    64    1
    29    63    62    1
    30   124   125    1
    31    50    49    2
    32    59    62    1
    33    59    58    1
    34   143   139   am
    35   133   130    1
    36   132   131    2
    37   140   139    2
    38   139   138    1
    39    49    48    1
    40   129   130    1
    41   129   126   am
    42   102   103    1
    43   125   128    1
    44   125   126    1
    45   110   112   ar
    46   110   108   ar
    47   112   111   ar
    48   131   130    1
    49   131   137   am
    50   105   104    2
    51    51    48    1
    52    51    52    1
    53   108   107   ar
    54   126   127    2
    55   103   104    1
    56   103   106    1
    57   111   109   ar
    58    48    47    1
    59   137   138    1
    60    53    54    1
    61    53    52    1
    62   138   141    1
    63   165   167    1
    64   165   164    1
    65   107   109   ar
    66   107   106    1
    67    54    55    2
    68   160   161    1
    69    42    41    2
    70   161   164    1
    71   161   162    1
    72    47    41   am
    73   152   153    1
    74   141   142    1
    75   164   166    1
    76    55    56    1
    77    55    57    1
    78    41    40    1
    79   101    99   am
    80   163   162    2
    81   100    99    2
    82   153   154    1
    83   153   156    1
    84    99    98    1
    85    45    44    1
    86    45    46    1
    87   154   155    2
    88    40    39    1
    89    40    43    1
    90    38    37    2
    91   157   159    1
    92   157   156    1
    93   157   158    1
    94    98    97    1
    95    44    43    1
    96    37    36    1
    97     9     8    1
    98     8     7    1
    99    96    95    2
   100    97    94    1
   101    26    24   ar
   102    26    25   ar
   103    69    70    1
   104    75    73    1
   105    95    94    1
   106    24    22   ar
   107    74    73    1
   108    36    35    1
   109    25    23   ar
   110    94    93    1
   111     7     6    1
   112    73    70    1
   113     6     5    1
   114    22    21   ar
   115    70    71    1
   116    23    21   ar
   117    21    20    1
   118    81    80    1
   119    81    82    1
   120    79    78    2
   121    71    72    2
   122    80    77    1
   123     5     2    1
   124     2     1    1
   125     2     3    1
   126    20    17    1
   127    77    78    1
   128    77    76    1
   129    78    85   am
   130    84    82   ar
   131    82    83   ar
   132     4     3    2
   133     3    10   am
   134    88    87    2
   135    17    16    1
   136    17    18    1
   137    85    86    1
   138    87    86    1
   139    86    89    1
   140    91    90    2
   141    19    18    2
   142    18    27   am
   143    10    11    1
   144    90    89    1
   145    90    92   am
   146    27    28    1
   147    11    12    1
   148    11    14    1
   149    12    13    2
   150    33    32   ar
   151    28    29    1
   152    28    31    1
   153    14    15    1
   154    29    30    2
   155    32    31    1
   156    32    34   ar
