@<TRIPOS>MOLECULE
tmp/4n48A00.pdb
 175 164 0 0 0
SMALL
GASTEIGER

@<TRIPOS>ATOM
      1  N         45.0130  -24.6280  -11.3380 N.3    75  ARG75      -0.1245
      2  CA        45.4450  -24.0810  -12.6200 C.3    75  ARG75       0.1563
      3  C         45.7620  -25.1860  -13.6180 C.2    75  ARG75       0.2260
      4  O         45.7410  -24.9670  -14.8310 O.2    75  ARG75      -0.2867
      5  CB        46.6300  -23.1290  -12.4460 C.3    75  ARG75       0.0307
      6  CG        46.2340  -21.7920  -11.8250 C.3    75  ARG75       0.0489
      7  CD        47.4170  -20.8430  -11.6680 C.3    75  ARG75       0.2205
      8  NE        48.4210  -21.3490  -10.7360 N.pl3  75  ARG75      -0.0865
      9  CZ        48.3550  -21.2090   -9.4150 C.cat  75  ARG75       0.5346
     10  NH1       49.3220  -21.6990   -8.6460 N.pl3  75  ARG75       0.1354
     11  NH2       47.3230  -20.5830   -8.8610 N.pl3  75  ARG75       0.1354
     12  N         42.3910  -25.5680  -14.9730 N.3    78  ARG78      -0.1245
     13  CA        42.0870  -24.3640  -15.7320 C.3    78  ARG78       0.1563
     14  C         42.6080  -24.5110  -17.1610 C.2    78  ARG78       0.2260
     15  O         41.9010  -24.1980  -18.1210 O.2    78  ARG78      -0.2867
     16  CB        42.7220  -23.1460  -15.0560 C.3    78  ARG78       0.0307
     17  CG        42.4800  -21.8300  -15.7690 C.3    78  ARG78       0.0489
     18  CD        43.1530  -20.6680  -15.0410 C.3    78  ARG78       0.2205
     19  NE        44.6040  -20.6640  -15.2070 N.pl3  78  ARG78      -0.0865
     20  CZ        45.4170  -19.7640  -14.6590 C.cat  78  ARG78       0.5346
     21  NH1       46.7270  -19.8350  -14.8610 N.pl3  78  ARG78       0.1354
     22  NH2       44.9210  -18.7930  -13.9050 N.pl3  78  ARG78       0.1354
     23  N         55.5080  -11.2550  -25.5480 N.3    93  LEU93      -0.1231
     24  CA        56.1930  -11.4830  -24.2740 C.3    93  LEU93       0.1693
     25  C         55.3030  -12.0760  -23.1800 C.2    93  LEU93       0.2592
     26  O         55.7980  -12.5280  -22.1480 O.2    93  LEU93      -0.2718
     27  CB        56.9090  -10.2150  -23.7850 C.3    93  LEU93       0.0284
     28  CG        56.1340   -8.9050  -23.6270 C.3    93  LEU93       0.0019
     29  CD1       55.2440   -8.9150  -22.3900 C.3    93  LEU93       0.0001
     30  CD2       57.0940   -7.7230  -23.5810 C.3    93  LEU93       0.0001
     31  N         53.9930  -12.0520  -23.4010 N.am   94  ASN94      -0.1960
     32  CA        53.0480  -12.6900  -22.4900 C.3    94  ASN94       0.1819
     33  C         51.6900  -12.8380  -23.1410 C.2    94  ASN94       0.2621
     34  O         51.4960  -12.3870  -24.2640 O.2    94  ASN94      -0.2715
     35  CB        52.9470  -11.9530  -21.1370 C.3    94  ASN94       0.1195
     36  CG        52.3590  -10.5420  -21.2480 C.2    94  ASN94       0.2630
     37  OD1       51.8950  -10.1130  -22.3040 O.2    94  ASN94      -0.2716
     38  ND2       52.3720   -9.8220  -20.1350 N.am   94  ASN94      -0.0877
     39  N         50.7510  -13.4570  -22.4340 N.am   95  ARG95      -0.1963
     40  CA        49.4080  -13.6530  -22.9650 C.3    95  ARG95       0.1729
     41  C         48.6170  -12.3410  -23.0450 C.2    95  ARG95       0.2616
     42  O         47.6690  -12.2220  -23.8240 O.2    95  ARG95      -0.2715
     43  CB        48.6460  -14.6950  -22.1330 C.3    95  ARG95       0.0348
     44  CG        48.2790  -14.2340  -20.7340 C.3    95  ARG95       0.0492
     45  CD        47.6170  -15.3410  -19.9240 C.3    95  ARG95       0.2205
     46  NE        46.5410  -16.0080  -20.6470 N.pl3  95  ARG95      -0.0865
     47  CZ        45.2710  -15.6200  -20.6180 C.cat  95  ARG95       0.5346
     48  NH1       44.9230  -14.5580  -19.9030 N.pl3  95  ARG95       0.1354
     49  NH2       44.3520  -16.2880  -21.3090 N.pl3  95  ARG95       0.1354
     50  N         49.0110  -11.3610  -22.2400 N.am   96  ALA96      -0.1977
     51  CA        48.2790  -10.1030  -22.1640 C.3    96  ALA96       0.1597
     52  C         48.3030   -9.3870  -23.5040 C.2    96  ALA96       0.2287
     53  O         47.3490   -8.7060  -23.8720 O.2    96  ALA96      -0.2864
     54  CB        48.8530   -9.2150  -21.0720 C.3    96  ALA96       0.0319
     55  N         45.5260  -10.1700  -25.8540 N.3    99  LYS99      -0.1245
     56  CA        44.2470   -9.5480  -25.5260 C.3    99  LYS99       0.1561
     57  C         44.0570   -8.3250  -26.4160 C.2    99  LYS99       0.2260
     58  O         43.0000   -8.1370  -27.0180 O.2    99  LYS99      -0.2867
     59  CB        44.1880   -9.1630  -24.0450 C.3    99  LYS99       0.0271
     60  CG        44.2430  -10.3580  -23.1000 C.3    99  LYS99       0.0035
     61  CD        44.2680   -9.9520  -21.6350 C.3    99  LYS99       0.0206
     62  CE        44.3580  -11.1820  -20.7290 C.3    99  LYS99       0.1093
     63  NZ        44.4340  -10.8420  -19.2800 N.3    99  LYS99      -0.1314
     64  N         53.0650   -3.2090  -16.8680 N.3   137  GLY137     -0.1210
     65  CA        54.2490   -4.0530  -16.8930 C.3   137  GLY137      0.1940
     66  C         53.8780   -5.5210  -16.9800 C.2   137  GLY137      0.2453
     67  O         52.9040   -5.9400  -16.3650 O.2   137  GLY137     -0.2732
     68  N         54.6600   -6.3230  -17.7210 N.am  138  PRO138     -0.2728
     69  CA        55.9170   -6.0100  -18.4140 C.3   138  PRO138      0.1401
     70  C         55.7760   -5.3520  -19.7910 C.2   138  PRO138      0.2269
     71  O         56.8020   -4.9850  -20.3680 O.2   138  PRO138     -0.2865
     72  CB        56.5540   -7.3840  -18.5830 C.3   138  PRO138      0.0296
     73  CG        55.3830   -8.2910  -18.7380 C.3   138  PRO138      0.0237
     74  CD        54.3380   -7.7580  -17.8040 C.3   138  PRO138      0.0939
     75  N         57.3570   -6.1950  -11.4100 N.3   164  ASN164     -0.1240
     76  CA        56.3820   -6.1070  -12.4920 C.3   164  ASN164      0.1653
     77  C         56.5740   -4.8870  -13.3800 C.2   164  ASN164      0.2266
     78  O         55.6880   -4.5320  -14.1510 O.2   164  ASN164     -0.2867
     79  CB        54.9550   -6.1310  -11.9390 C.3   164  ASN164      0.1155
     80  CG        54.5820   -7.4740  -11.3440 C.2   164  ASN164      0.2627
     81  OD1       55.0040   -8.5230  -11.8360 O.2   164  ASN164     -0.2716
     82  ND2       53.7860   -7.4500  -10.2810 N.am  164  ASN164     -0.0877
     83  N         45.4340   -1.6350  -17.8320 N.3   218  ASP218     -0.1239
     84  CA        45.2490   -3.0580  -17.5500 C.3   218  ASP218      0.1674
     85  C         45.6580   -3.4140  -16.1220 C.2   218  ASP218      0.2266
     86  O         46.2270   -4.4750  -15.8770 O.2   218  ASP218     -0.2867
     87  CB        46.0600   -3.8920  -18.5450 C.3   218  ASP218      0.1410
     88  CG        45.5830   -5.3370  -18.6320 C.2   218  ASP218      0.3668
     89  OD1       44.3600   -5.5730  -18.5300 O.co2 218  ASP218     -0.2456
     90  OD2       46.4350   -6.2370  -18.8120 O.co2 218  ASP218     -0.2456
     91  N         46.1900   -4.3710  -12.1750 N.3   220  GLY220     -0.1210
     92  CA        45.8050   -5.4060  -11.2320 C.3   220  GLY220      0.1956
     93  C         46.9520   -5.7340  -10.2950 C.2   220  GLY220      0.2612
     94  O         48.0810   -5.3070  -10.5190 O.2   220  GLY220     -0.2717
     95  N         46.6570   -6.4900   -9.2440 N.am  221  PHE221     -0.1962
     96  CA        47.6660   -6.9110   -8.2780 C.3   221  PHE221      0.1771
     97  C         47.1690   -8.1400   -7.5220 C.2   221  PHE221      0.2620
     98  O         45.9980   -8.5110   -7.6380 O.2   221  PHE221     -0.2715
     99  CB        47.9900   -5.7760   -7.3030 C.3   221  PHE221      0.0574
    100  CG        46.7810   -5.1640   -6.6580 C.ar  221  PHE221     -0.0200
    101  CD1       46.1090   -5.8210   -5.6340 C.ar  221  PHE221     -0.0042
    102  CD2       46.3180   -3.9270   -7.0670 C.ar  221  PHE221     -0.0042
    103  CE1       44.9950   -5.2600   -5.0350 C.ar  221  PHE221     -0.0003
    104  CE2       45.1980   -3.3590   -6.4780 C.ar  221  PHE221     -0.0003
    105  CZ        44.5380   -4.0280   -5.4570 C.ar  221  PHE221     -0.0000
    106  N         48.0520   -8.7580   -6.7410 N.am  222  SER222     -0.1936
    107  CA        47.7050   -9.9630   -5.9880 C.3   222  SER222      0.2055
    108  C         46.5820   -9.7500   -4.9730 C.2   222  SER222      0.2642
    109  O         46.6430   -8.8410   -4.1450 O.2   222  SER222     -0.2714
    110  CB        48.9330  -10.5260   -5.2800 C.3   222  SER222      0.2130
    111  OG        48.5830  -11.6650   -4.5120 O.3   222  SER222     -0.2179
    112  N         45.5620  -10.6050   -5.0490 N.am  223  VAL223     -0.1977
    113  CA        44.4220  -10.5690   -4.1350 C.3   223  VAL223      0.1596
    114  C         44.3090  -11.9370   -3.4460 C.2   223  VAL223      0.2287
    115  O         43.2350  -12.3560   -3.0170 O.2   223  VAL223     -0.2864
    116  CB        43.1080  -10.1890   -4.8850 C.3   223  VAL223      0.0276
    117  CG1       41.9780   -9.9010   -3.9200 C.3   223  VAL223      0.0022
    118  CG2       43.3290   -8.9610   -5.7450 C.3   223  VAL223      0.0022
    119  N         37.8960   -8.6500   -4.6170 N.3   230  GLN230     -0.1245
    120  CA        38.7960   -8.1020   -5.6340 C.3   230  GLN230      0.1566
    121  C         38.3790   -6.7290   -6.1670 C.2   230  GLN230      0.2260
    122  O         39.2100   -5.8360   -6.3230 O.2   230  GLN230     -0.2867
    123  CB        38.9210   -9.0820   -6.8060 C.3   230  GLN230      0.0367
    124  CG        39.8920   -8.6380   -7.8900 C.3   230  GLN230      0.0905
    125  CD        39.9380   -9.6060   -9.0550 C.2   230  GLN230      0.2608
    126  OE1       38.9000  -10.0390   -9.5550 O.2   230  GLN230     -0.2717
    127  NE2       41.1470   -9.9560   -9.4930 N.am  230  GLN230     -0.0878
    128  N         40.8670   -2.3540  -18.2050 N.3   258  LYS258     -0.1245
    129  CA        40.4560   -3.6030  -17.5660 C.3   258  LYS258      0.1561
    130  C         39.6910   -3.3050  -16.2820 C.2   258  LYS258      0.2260
    131  O         40.0950   -2.4480  -15.4950 O.2   258  LYS258     -0.2867
    132  CB        41.6700   -4.4810  -17.2440 C.3   258  LYS258      0.0271
    133  CG        41.3200   -5.9210  -16.8510 C.3   258  LYS258      0.0035
    134  CD        41.8200   -6.2980  -15.4480 C.3   258  LYS258      0.0206
    135  CE        43.3400   -6.3820  -15.3810 C.3   258  LYS258      0.1093
    136  NZ        43.9050   -7.3550  -16.3590 N.3   258  LYS258     -0.1314
    137  N         37.1820   -5.4140  -13.0360 N.3   260  PHE260     -0.1241
    138  CA        36.8430   -6.7110  -12.4850 C.3   260  PHE260      0.1605
    139  C         35.3290   -6.7970  -12.3570 C.2   260  PHE260      0.2264
    140  O         34.6180   -6.4970  -13.3160 O.2   260  PHE260     -0.2867
    141  CB        37.5710   -6.9410  -11.1650 C.3   260  PHE260      0.0534
    142  CG        39.0700   -6.9880  -11.3130 C.ar  260  PHE260     -0.0203
    143  CD1       39.6850   -8.0740  -11.9200 C.ar  260  PHE260     -0.0042
    144  CD2       39.8610   -5.9380  -10.8680 C.ar  260  PHE260     -0.0042
    145  CE1       41.0600   -8.1200  -12.0690 C.ar  260  PHE260     -0.0003
    146  CE2       41.2420   -5.9800  -11.0140 C.ar  260  PHE260     -0.0003
    147  CZ        41.8390   -7.0720  -11.6120 C.ar  260  PHE260     -0.0000
    148  N         40.5130  -15.2400  -19.5500 N.3   290  ARG290     -0.1245
    149  CA        40.0990  -16.5310  -19.0070 C.3   290  ARG290      0.1563
    150  C         38.6840  -16.4990  -18.4250 C.2   290  ARG290      0.2260
    151  O         38.3660  -15.6520  -17.5980 O.2   290  ARG290     -0.2867
    152  CB        41.1260  -17.0500  -17.9950 C.3   290  ARG290      0.0307
    153  CG        42.4160  -17.5590  -18.6440 C.3   290  ARG290      0.0489
    154  CD        43.3800  -18.1380  -17.6160 C.3   290  ARG290      0.2205
    155  NE        44.5240  -18.8140  -18.2310 N.pl3 290  ARG290     -0.0865
    156  CZ        45.7860  -18.3960  -18.1530 C.cat 290  ARG290      0.5346
    157  NH1       46.0930  -17.2920  -17.4820 N.pl3 290  ARG290      0.1354
    158  NH2       46.7450  -19.0880  -18.7460 N.pl3 290  ARG290      0.1354
    159  N         37.3620  -16.1130  -14.5110 N.3   293  ASN293     -0.1240
    160  CA        37.6910  -14.9410  -13.7090 C.3   293  ASN293      0.1653
    161  C         36.7340  -13.7630  -13.9170 C.2   293  ASN293      0.2266
    162  O         35.9170  -13.7710  -14.8330 O.2   293  ASN293     -0.2867
    163  CB        39.1600  -14.5230  -13.9030 C.3   293  ASN293      0.1155
    164  CG        39.4480  -13.9280  -15.2760 C.2   293  ASN293      0.2627
    165  OD1       38.5780  -13.3500  -15.9220 O.2   293  ASN293     -0.2716
    166  ND2       40.6930  -14.0580  -15.7170 N.am  293  ASN293     -0.0877
    167  N         37.4450  -10.8430  -14.9220 N.3   295  GLU295     -0.1245
    168  CA        38.0650   -9.8530  -15.8040 C.3   295  GLU295      0.1567
    169  C         37.1960   -9.4950  -17.0080 C.2   295  GLU295      0.2260
    170  O         36.6830  -10.3740  -17.6940 O.2   295  GLU295     -0.2867
    171  CB        39.4420  -10.3430  -16.2800 C.3   295  GLU295      0.0388
    172  CG        40.1600   -9.3920  -17.2250 C.3   295  GLU295      0.1160
    173  CD        41.5010   -9.9330  -17.7110 C.2   295  GLU295      0.3649
    174  OE1       41.5170  -10.9840  -18.3880 O.co2 295  GLU295     -0.2457
    175  OE2       42.5420   -9.3030  -17.4200 O.co2 295  GLU295     -0.2457
@<TRIPOS>BOND
     1    58    57    2
     2    57    56    1
     3    55    56    1
     4    23    24    1
     5    56    59    1
     6    24    27    1
     7    24    25    1
     8    34    33    2
     9    59    60    1
    10    53    52    2
    11    42    41    2
    12    27    28    1
    13    28    30    1
    14    28    29    1
    15    52    51    1
    16    31    25   am
    17    31    32    1
    18    25    26    2
    19    33    32    1
    20    33    39   am
    21    60    61    1
    22    41    40    1
    23    41    50   am
    24    40    39    1
    25    40    43    1
    26    32    35    1
    27    37    36    2
    28    50    51    1
    29    51    54    1
    30    43    44    1
    31    61    62    1
    32    49    47    1
    33    36    35    1
    34    36    38   am
    35    44    45    1
    36    62    63    1
    37    46    47    2
    38    46    45    1
    39    47    48    1
    40    71    70    2
    41    70    69    1
    42   148   149    1
    43   149   150    1
    44   149   152    1
    45    90    88   ar
    46   158   156    1
    47    73    72    1
    48    73    74    1
    49   153   152    1
    50   153   154    1
    51    88    87    1
    52    88    89   ar
    53    72    69    1
    54    87    84    1
    55   150   151    2
    56    69    68    1
    57   174   173   ar
    58   155   156    2
    59   155   154    1
    60   128   129    1
    61   156   157    1
    62    15    14    2
    63    83    84    1
    64    74    68    1
    65    68    66   am
    66   173   175   ar
    67   173   172    1
    68   170   169    2
    69   129   132    1
    70   129   130    1
    71    84    85    1
    72   132   133    1
    73   172   171    1
    74    14    13    1
    75   169   168    1
    76    66    65    1
    77    66    67    2
    78    65    64    1
    79   133   134    1
    80   136   135    1
    81   130   131    2
    82   171   168    1
    83    85    86    2
    84   165   164    2
    85   168   167    1
    86    17    16    1
    87    17    18    1
    88    13    16    1
    89    13    12    1
    90   166   164   am
    91   134   135    1
    92   164   163    1
    93    19    18    1
    94    19    20    2
    95    21    20    1
    96   162   161    2
    97     4     3    2
    98    20    22    1
    99   159   160    1
   100    78    77    2
   101   161   160    1
   102   163   160    1
   103     3     2    1
   104    77    76    1
   105   140   139    2
   106   137   138    1
   107     2     5    1
   108     2     1    1
   109    76    79    1
   110    76    75    1
   111   138   139    1
   112   138   141    1
   113     5     6    1
   114    91    92    1
   115   145   143   ar
   116   145   147   ar
   117    79    80    1
   118   143   142   ar
   119    81    80    2
   120     6     7    1
   121     7     8    1
   122   147   146   ar
   123    80    82   am
   124   142   141    1
   125   142   144   ar
   126    92    93    1
   127   146   144   ar
   128     8     9    2
   129    94    93    2
   130    93    95   am
   131   126   125    2
   132   127   125   am
   133     9    11    1
   134     9    10    1
   135    95    96    1
   136   125   124    1
   137    96    97    1
   138    96    99    1
   139   124   123    1
   140    98    97    2
   141    97   106   am
   142    99   100    1
   143   102   100   ar
   144   102   104   ar
   145   123   120    1
   146   106   107    1
   147   100   101   ar
   148   104   105   ar
   149   122   121    2
   150   121   120    1
   151   107   110    1
   152   107   108    1
   153   118   116    1
   154   101   103   ar
   155   120   119    1
   156   105   103   ar
   157   110   111    1
   158   112   108   am
   159   112   113    1
   160   108   109    2
   161   116   113    1
   162   116   117    1
   163   113   114    1
   164   114   115    2
