@<TRIPOS>MOLECULE
tmp/4n48B00.pdb
 184 172 0 0 0
SMALL
GASTEIGER

@<TRIPOS>ATOM
      1  N          3.5800   33.7360   34.4590 N.3    72  GLU72      -0.1245
      2  CA         3.3080   34.4390   33.2130 C.3    72  GLU72       0.1567
      3  C          4.3080   35.5620   33.0110 C.2    72  GLU72       0.2260
      4  O          4.7960   35.7880   31.9030 O.2    72  GLU72      -0.2867
      5  CB         1.8830   34.9960   33.1980 C.3    72  GLU72       0.0388
      6  CG         0.9070   34.1130   32.4520 C.3    72  GLU72       0.1160
      7  CD         1.3630   33.8290   31.0300 C.2    72  GLU72       0.3649
      8  OE1        1.8240   34.7760   30.3510 O.co2  72  GLU72      -0.2457
      9  OE2        1.2740   32.6570   30.5950 O.co2  72  GLU72      -0.2457
     10  N          7.4360   33.9870   31.6480 N.3    75  ARG75      -0.1245
     11  CA         7.3610   33.5440   30.2590 C.3    75  ARG75       0.1563
     12  C          7.3250   34.7060   29.2680 C.2    75  ARG75       0.2260
     13  O          7.5480   34.5140   28.0730 O.2    75  ARG75      -0.2867
     14  CB         6.1620   32.6130   30.0460 C.3    75  ARG75       0.0307
     15  CG         6.3000   31.2660   30.7440 C.3    75  ARG75       0.0489
     16  CD         5.2010   30.2870   30.3370 C.3    75  ARG75       0.2205
     17  NE         3.8690   30.7460   30.7280 N.pl3  75  ARG75      -0.0865
     18  CZ         3.3180   30.5200   31.9170 C.cat  75  ARG75       0.5346
     19  NH1        2.1010   30.9760   32.1830 N.pl3  75  ARG75       0.1354
     20  NH2        3.9830   29.8380   32.8400 N.pl3  75  ARG75       0.1354
     21  N         11.0090   35.4900   28.9230 N.3    78  ARG78      -0.1245
     22  CA        11.5270   34.3710   28.1470 C.3    78  ARG78       0.1563
     23  C         11.3150   34.6180   26.6570 C.2    78  ARG78       0.2260
     24  O         12.2160   34.3940   25.8480 O.2    78  ARG78      -0.2867
     25  CB        10.8120   33.0880   28.5700 C.3    78  ARG78       0.0307
     26  CG        11.2520   31.8390   27.8370 C.3    78  ARG78       0.0489
     27  CD        10.3820   30.6540   28.2280 C.3    78  ARG78       0.2205
     28  NE         9.0560   30.7280   27.6210 N.pl3  78  ARG78      -0.0865
     29  CZ         8.1600   29.7470   27.6580 C.cat  78  ARG78       0.5346
     30  NH1        6.9820   29.9020   27.0710 N.pl3  78  ARG78       0.1354
     31  NH2        8.4400   28.6080   28.2770 N.pl3  78  ARG78       0.1354
     32  N          1.3570   22.6580   13.6540 N.3    93  LEU93      -0.1231
     33  CA         0.4040   22.7450   14.7600 C.3    93  LEU93       0.1693
     34  C          1.0300   23.2270   16.0650 C.2    93  LEU93       0.2592
     35  O          0.3490   23.8050   16.9150 O.2    93  LEU93      -0.2718
     36  CB        -0.3650   21.4290   14.9530 C.3    93  LEU93       0.0284
     37  CG         0.3510   20.0950   15.1580 C.3    93  LEU93       0.0019
     38  CD1        0.8860   19.9480   16.5720 C.3    93  LEU93       0.0001
     39  CD2       -0.5920   18.9520   14.8260 C.3    93  LEU93       0.0001
     40  N          2.3250   22.9830   16.2260 N.am   94  ASN94      -0.1960
     41  CA         3.0460   23.5120   17.3760 C.3    94  ASN94       0.1819
     42  C          4.4980   23.8200   17.0350 C.2    94  ASN94       0.2621
     43  O          4.9120   23.6750   15.8860 O.2    94  ASN94      -0.2715
     44  CB         2.9310   22.5770   18.5910 C.3    94  ASN94       0.1195
     45  CG         3.4870   21.1820   18.3310 C.2    94  ASN94       0.2630
     46  OD1        4.2260   20.9550   17.3740 O.2    94  ASN94      -0.2716
     47  ND2        3.1270   20.2380   19.1920 N.am   94  ASN94      -0.0877
     48  N          5.2680   24.2470   18.0300 N.am   95  ARG95      -0.1963
     49  CA         6.6670   24.5780   17.8070 C.3    95  ARG95       0.1729
     50  C          7.5250   23.3200   17.7800 C.2    95  ARG95       0.2616
     51  O          8.6490   23.3320   17.2770 O.2    95  ARG95      -0.2715
     52  CB         7.1690   25.5450   18.8850 C.3    95  ARG95       0.0348
     53  CG         7.1100   25.0010   20.3030 C.3    95  ARG95       0.0492
     54  CD         7.4070   26.0870   21.3160 C.3    95  ARG95       0.2205
     55  NE         8.6760   26.7650   21.0630 N.pl3  95  ARG95      -0.0865
     56  CZ         9.8700   26.2600   21.3760 C.cat  95  ARG95       0.5346
     57  NH1        9.9620   25.0620   21.9420 N.pl3  95  ARG95       0.1354
     58  NH2       10.9750   26.9490   21.1180 N.pl3  95  ARG95       0.1354
     59  N          6.9860   22.2370   18.3290 N.am   96  ALA96      -0.1977
     60  CA         7.7020   20.9690   18.3770 C.3    96  ALA96       0.1597
     61  C          8.0070   20.4550   16.9750 C.2    96  ALA96       0.2287
     62  O          9.0620   19.8630   16.7450 O.2    96  ALA96      -0.2864
     63  CB         6.9140   19.9370   19.1690 C.3    96  ALA96       0.0319
     64  N         11.1560   21.6930   15.6120 N.3    99  LYS99      -0.1245
     65  CA        12.3420   21.0610   16.1830 C.3    99  LYS99       0.1561
     66  C         12.8360   19.9530   15.2480 C.2    99  LYS99       0.2260
     67  O         14.0400   19.8130   15.0190 O.2    99  LYS99      -0.2867
     68  CB        12.0500   20.4950   17.5770 C.3    99  LYS99       0.0271
     69  CG        11.7120   21.5390   18.6360 C.3    99  LYS99       0.0035
     70  CD        11.2720   20.8950   19.9520 C.3    99  LYS99       0.0206
     71  CE        10.9030   21.9490   20.9960 C.3    99  LYS99       0.1093
     72  NZ        10.4880   21.3860   22.3220 N.3    99  LYS99      -0.1314
     73  N          1.6400   13.3460   21.2410 N.3   137  GLY137     -0.1210
     74  CA         0.5030   14.2400   21.0690 C.3   137  GLY137      0.1940
     75  C          0.9310   15.6940   21.1910 C.2   137  GLY137      0.2453
     76  O          1.7360   16.0210   22.0620 O.2   137  GLY137     -0.2732
     77  N          0.3930   16.5850   20.3340 N.am  138  PRO138     -0.2728
     78  CA        -0.6460   16.4010   19.3060 C.3   138  PRO138      0.1401
     79  C         -0.1690   15.8160   17.9670 C.2   138  PRO138      0.2269
     80  O         -1.0160   15.4200   17.1590 O.2   138  PRO138     -0.2865
     81  CB        -1.1750   17.8260   19.0830 C.3   138  PRO138      0.0296
     82  CG        -0.5870   18.6580   20.1930 C.3   138  PRO138      0.0237
     83  CD         0.7070   18.0090   20.5210 C.3   138  PRO138      0.0939
     84  N         -4.0150   15.8810   25.5620 N.3   164  ASN164     -0.1240
     85  CA        -2.7890   15.9450   24.7690 C.3   164  ASN164      0.1653
     86  C         -2.6810   14.7840   23.7930 C.2   164  ASN164      0.2266
     87  O         -1.5810   14.3470   23.4590 O.2   164  ASN164     -0.2867
     88  CB        -1.5570   15.9820   25.6740 C.3   164  ASN164      0.1155
     89  CG        -1.4600   17.2650   26.4790 C.2   164  ASN164      0.2627
     90  OD1       -1.8470   18.3390   26.0110 O.2   164  ASN164     -0.2716
     91  ND2       -0.9390   17.1610   27.6970 N.am  164  ASN164     -0.0877
     92  N          9.3990   12.0470   22.0520 N.3   222  ASP222     -0.1239
     93  CA         9.5070   13.3970   22.6030 C.3   222  ASP222      0.1674
     94  C          8.7010   13.5500   23.9000 C.2   222  ASP222      0.2266
     95  O          8.0480   14.5750   24.1220 O.2   222  ASP222     -0.2867
     96  CB         9.0410   14.4110   21.5560 C.3   222  ASP222      0.1410
     97  CG         9.4620   15.8260   21.8780 C.2   222  ASP222      0.3668
     98  OD1       10.5980   16.0270   22.3580 O.co2 222  ASP222     -0.2456
     99  OD2        8.6490   16.7430   21.6490 O.co2 222  ASP222     -0.2456
    100  N          7.1810   14.0140   27.6660 N.3   224  GLY224     -0.1210
    101  CA         7.2670   14.9730   28.7560 C.3   224  GLY224      0.1956
    102  C          5.9190   15.1900   29.4300 C.2   224  GLY224      0.2612
    103  O          4.8740   14.8190   28.9030 O.2   224  GLY224     -0.2717
    104  N          5.9460   15.7840   30.6150 N.am  225  PHE225     -0.1962
    105  CA         4.7240   16.1170   31.3360 C.3   225  PHE225      0.1771
    106  C          5.0250   17.2040   32.3540 C.2   225  PHE225      0.2620
    107  O          6.1840   17.5560   32.5580 O.2   225  PHE225     -0.2715
    108  CB         4.1170   14.8840   32.0140 C.3   225  PHE225      0.0574
    109  CG         5.0820   14.1150   32.8730 C.ar  225  PHE225     -0.0200
    110  CD1        5.4200   14.5660   34.1420 C.ar  225  PHE225     -0.0042
    111  CD2        5.6360   12.9270   32.4190 C.ar  225  PHE225     -0.0042
    112  CE1        6.3010   13.8600   34.9350 C.ar  225  PHE225     -0.0003
    113  CE2        6.5220   12.2130   33.2080 C.ar  225  PHE225     -0.0003
    114  CZ         6.8540   12.6830   34.4720 C.ar  225  PHE225     -0.0000
    115  N          3.9860   17.7370   32.9890 N.am  226  SER226     -0.1936
    116  CA         4.1670   18.8370   33.9290 C.3   226  SER226      0.2055
    117  C          4.9300   18.4020   35.1750 C.2   226  SER226      0.2642
    118  O          4.5970   17.3960   35.7980 O.2   226  SER226     -0.2714
    119  CB         2.8180   19.4360   34.3290 C.3   226  SER226      0.2130
    120  OG         2.9930   20.5590   35.1770 O.3   226  SER226     -0.2179
    121  N          5.9650   19.1590   35.5240 N.am  227  VAL227     -0.1977
    122  CA         6.6680   18.9570   36.7840 C.3   227  VAL227      0.1596
    123  C          6.5750   20.2250   37.6300 C.2   227  VAL227      0.2287
    124  O          7.4860   20.5530   38.3890 O.2   227  VAL227     -0.2864
    125  CB         8.1420   18.5360   36.5710 C.3   227  VAL227      0.0276
    126  CG1        8.2020   17.1870   35.8660 C.3   227  VAL227      0.0022
    127  CG2        8.9070   19.5910   35.7870 C.3   227  VAL227      0.0022
    128  N         13.0160   17.1850   37.6490 N.3   234  GLN234     -0.1245
    129  CA        12.4150   16.7610   36.3870 C.3   234  GLN234      0.1566
    130  C         13.0080   15.4730   35.7990 C.2   234  GLN234      0.2260
    131  O         12.2720   14.6030   35.3310 O.2   234  GLN234     -0.2867
    132  CB        12.5320   17.8960   35.3740 C.3   234  GLN234      0.0367
    133  CG        12.0320   17.5580   33.9870 C.3   234  GLN234      0.0905
    134  CD        12.2850   18.6810   33.0140 C.2   234  GLN234      0.2608
    135  OE1       13.4150   19.1480   32.8690 O.2   234  GLN234     -0.2717
    136  NE2       11.2330   19.1310   32.3480 N.am  234  GLN234     -0.0878
    137  N         13.9420   12.8170   23.0820 N.3   262  LYS262     -0.1245
    138  CA        14.1140   13.9520   23.9880 C.3   262  LYS262      0.1561
    139  C         14.4810   13.4580   25.3710 C.2   262  LYS262      0.2260
    140  O         13.8510   12.5450   25.8990 O.2   262  LYS262     -0.2867
    141  CB        12.8310   14.7840   24.0920 C.3   262  LYS262      0.0271
    142  CG        13.0330   16.1700   24.7200 C.3   262  LYS262      0.0035
    143  CD        12.1790   16.3950   25.9710 C.3   262  LYS262      0.0206
    144  CE        10.6820   16.4170   25.6600 C.3   262  LYS262      0.1093
    145  NZ        10.2940   17.4840   24.6930 N.3   262  LYS262     -0.1314
    146  N         16.0580   15.1240   29.3630 N.3   264  PHE264     -0.1241
    147  CA        16.1880   16.3580   30.1120 C.3   264  PHE264      0.1605
    148  C         17.5950   16.4030   30.6710 C.2   264  PHE264      0.2264
    149  O         18.5450   16.0440   29.9660 O.2   264  PHE264     -0.2867
    150  CB        15.1160   16.4410   31.1960 C.3   264  PHE264      0.0534
    151  CG        13.7100   16.4630   30.6490 C.ar  264  PHE264     -0.0203
    152  CD1       13.2000   17.6110   30.0560 C.ar  264  PHE264     -0.0042
    153  CD2       12.9040   15.3340   30.7140 C.ar  264  PHE264     -0.0042
    154  CE1       11.9090   17.6370   29.5490 C.ar  264  PHE264     -0.0003
    155  CE2       11.6100   15.3520   30.2080 C.ar  264  PHE264     -0.0003
    156  CZ        11.1130   16.5060   29.6240 C.ar  264  PHE264     -0.0000
    157  N         14.2580   25.7160   23.7160 N.3   294  ARG294     -0.1245
    158  CA        14.4400   26.9640   24.4610 C.3   294  ARG294      0.1563
    159  C         15.6710   26.9390   25.3650 C.2   294  ARG294      0.2260
    160  O         15.8310   26.0320   26.1700 O.2   294  ARG294     -0.2867
    161  CB        13.1760   27.3210   25.2490 C.3   294  ARG294      0.0307
    162  CG        11.9910   27.7270   24.3730 C.3   294  ARG294      0.0489
    163  CD        10.9060   28.4150   25.1900 C.3   294  ARG294      0.2205
    164  NE         9.8650   29.0000   24.3450 N.pl3 294  ARG294     -0.0865
    165  CZ         8.6930   28.4230   24.0950 C.cat 294  ARG294      0.5346
    166  NH1        8.4060   27.2420   24.6280 N.pl3 294  ARG294      0.1354
    167  NH2        7.8060   29.0260   23.3150 N.pl3 294  ARG294      0.1354
    168  N         15.9910   25.9580   29.2960 N.3   297  ASN297     -0.1240
    169  CA        15.5030   24.6770   29.8120 C.3   297  ASN297      0.1653
    170  C         16.5300   23.5380   29.7490 C.2   297  ASN297      0.2266
    171  O         17.6120   23.6910   29.1830 O.2   297  ASN297     -0.2867
    172  CB        14.1800   24.2660   29.1430 C.3   297  ASN297      0.1155
    173  CG        14.3230   23.9790   27.6490 C.2   297  ASN297      0.2627
    174  OD1       15.2910   23.3670   27.2040 O.2   297  ASN297     -0.2716
    175  ND2       13.3510   24.4330   26.8690 N.am  297  ASN297     -0.0877
    176  N         16.0510   20.7440   28.2840 N.3   299  GLU299     -0.1245
    177  CA        15.7420   19.9210   27.1210 C.3   299  GLU299      0.1567
    178  C         16.9480   19.7760   26.1900 C.2   299  GLU299      0.2260
    179  O         17.5990   20.7580   25.8270 O.2   299  GLU299     -0.2867
    180  CB        14.5380   20.5020   26.3590 C.3   299  GLU299      0.0388
    181  CG        14.0550   19.6940   25.1530 C.3   299  GLU299      0.1160
    182  CD        12.7850   20.2760   24.5360 C.2   299  GLU299      0.3649
    183  OE1       12.8110   21.4490   24.0950 O.co2 299  GLU299     -0.2457
    184  OE2       11.7550   19.5660   24.5010 O.co2 299  GLU299     -0.2457
@<TRIPOS>BOND
     1    32    33    1
     2    33    36    1
     3    33    34    1
     4    39    37    1
     5    36    37    1
     6    67    66    2
     7    37    38    1
     8    66    65    1
     9    64    65    1
    10    43    42    2
    11    34    40   am
    12    34    35    2
    13    65    68    1
    14    40    41    1
    15    62    61    2
    16    61    60    1
    17    42    41    1
    18    42    48   am
    19    80    79    2
    20    51    50    2
    21    46    45    2
    22    41    44    1
    23    68    69    1
    24    50    49    1
    25    50    59   am
    26    49    48    1
    27    49    52    1
    28    79    78    1
    29    59    60    1
    30    45    44    1
    31    45    47   am
    32    60    63    1
    33    69    70    1
    34    52    53    1
    35    81    78    1
    36    81    82    1
    37    78    77    1
    38    70    71    1
    39    82    83    1
    40    53    54    1
    41    77    83    1
    42    77    75   am
    43    71    72    1
    44    55    54    1
    45    55    56    2
    46    74    75    1
    47    74    73    1
    48    58    56    1
    49    75    76    2
    50    56    57    1
    51    96    97    1
    52    96    93    1
    53    99    97   ar
    54    97    98   ar
    55    92    93    1
    56    93    94    1
    57   137   138    1
    58   167   165    1
    59    87    86    2
    60   157   158    1
    61    86    85    1
    62    94    95    2
    63   138   141    1
    64   138   139    1
    65   141   142    1
    66   183   182   ar
    67   165   164    2
    68   165   166    1
    69   164   163    1
    70   162   163    1
    71   162   161    1
    72   158   161    1
    73   158   159    1
    74   184   182   ar
    75   182   181    1
    76   145   144    1
    77   142   143    1
    78    85    84    1
    79    85    88    1
    80   181   180    1
    81   159   160    2
    82   139   140    2
    83   144   143    1
    84    88    89    1
    85   179   178    2
    86    24    23    2
    87    90    89    2
    88   178   177    1
    89   180   177    1
    90    89    91   am
    91    23    22    1
    92   175   173   am
    93    30    29    1
    94   177   176    1
    95   174   173    2
    96    28    29    2
    97    28    27    1
    98   173   172    1
    99    29    31    1
   100   100   101    1
   101    26    27    1
   102    26    25    1
   103    13    12    2
   104    22    25    1
   105    22    21    1
   106   101   102    1
   107   103   102    2
   108   172   169    1
   109   171   170    2
   110    12    11    1
   111   168   169    1
   112   146   147    1
   113   102   104   am
   114   154   156   ar
   115   154   152   ar
   116   156   155   ar
   117   170   169    1
   118   149   148    2
   119    14    11    1
   120    14    15    1
   121   152   151   ar
   122   147   148    1
   123   147   150    1
   124   155   153   ar
   125    11    10    1
   126    16    17    1
   127    16    15    1
   128     8     7   ar
   129     9     7   ar
   130   104   105    1
   131   151   153   ar
   132   151   150    1
   133    17    18    2
   134     7     6    1
   135   105   108    1
   136   105   106    1
   137     4     3    2
   138    18    19    1
   139    18    20    1
   140   108   109    1
   141   136   134   am
   142   106   107    2
   143   106   115   am
   144   111   109   ar
   145   111   113   ar
   146     6     5    1
   147   135   134    2
   148   109   110   ar
   149   115   116    1
   150     3     2    1
   151   134   133    1
   152     5     2    1
   153   113   114   ar
   154     2     1    1
   155   116   119    1
   156   116   117    1
   157   133   132    1
   158   110   112   ar
   159   119   120    1
   160   114   112   ar
   161   117   121   am
   162   117   118    2
   163   131   130    2
   164   132   129    1
   165   121   122    1
   166   127   125    1
   167   130   129    1
   168   126   125    1
   169   129   128    1
   170   125   122    1
   171   122   123    1
   172   123   124    2
