@<TRIPOS>MOLECULE
tmp/4n48B01.pdb
 156 150 0 0 0
SMALL
GASTEIGER

@<TRIPOS>ATOM
      1  N          2.3250   22.9830   16.2260 N.3    94  ASN94      -0.1240
      2  CA         3.0460   23.5120   17.3760 C.3    94  ASN94       0.1653
      3  C          4.4980   23.8200   17.0350 C.2    94  ASN94       0.2266
      4  O          4.9120   23.6750   15.8860 O.2    94  ASN94      -0.2867
      5  CB         2.9310   22.5770   18.5910 C.3    94  ASN94       0.1155
      6  CG         3.4870   21.1820   18.3310 C.2    94  ASN94       0.2627
      7  OD1        4.2260   20.9550   17.3740 O.2    94  ASN94      -0.2716
      8  ND2        3.1270   20.2380   19.1920 N.am   94  ASN94      -0.0877
      9  N          6.9860   22.2370   18.3290 N.3    96  ALA96      -0.1245
     10  CA         7.7020   20.9690   18.3770 C.3    96  ALA96       0.1562
     11  C          8.0070   20.4550   16.9750 C.2    96  ALA96       0.2260
     12  O          9.0620   19.8630   16.7450 O.2    96  ALA96      -0.2867
     13  CB         6.9140   19.9370   19.1690 C.3    96  ALA96       0.0290
     14  N          5.0550    9.0220   22.4100 N.3   135  CYS135     -0.1221
     15  CA         4.9490   10.1130   23.3710 C.3   135  CYS135      0.1808
     16  C          4.8790   11.4280   22.6190 C.2   135  CYS135      0.2601
     17  O          5.7510   12.2880   22.7730 O.2   135  CYS135     -0.2717
     18  CB         6.1430   10.1020   24.3240 C.3   135  CYS135      0.0970
     19  SG         6.2790    8.6150   25.3440 S.3   135  CYS135     -0.0800
     20  N          3.8260   11.5830   21.8170 N.am  136  ALA136     -0.1965
     21  CA         3.8800   12.4930   20.6760 C.3   136  ALA136      0.1728
     22  C          2.6770   13.4080   20.4120 C.2   136  ALA136      0.2617
     23  O          2.6940   14.1670   19.4440 O.2   136  ALA136     -0.2715
     24  CB         4.1950   11.6900   19.4270 C.3   136  ALA136      0.0334
     25  N          1.6400   13.3460   21.2410 N.am  137  GLY137     -0.1941
     26  CA         0.5030   14.2400   21.0690 C.3   137  GLY137      0.1998
     27  C          0.9310   15.6940   21.1910 C.2   137  GLY137      0.2481
     28  O          1.7360   16.0210   22.0620 O.2   137  GLY137     -0.2729
     29  N          0.3930   16.5850   20.3340 N.am  138  PRO138     -0.2715
     30  CA        -0.6460   16.4010   19.3060 C.3   138  PRO138      0.1536
     31  C         -0.1690   15.8160   17.9670 C.2   138  PRO138      0.2599
     32  O         -1.0160   15.4200   17.1590 O.2   138  PRO138     -0.2715
     33  CB        -1.1750   17.8260   19.0830 C.3   138  PRO138      0.0310
     34  CG        -0.5870   18.6580   20.1930 C.3   138  PRO138      0.0237
     35  CD         0.7070   18.0090   20.5210 C.3   138  PRO138      0.0939
     36  N          1.1420   15.7790   17.7240 N.am  139  GLY139     -0.1941
     37  CA         1.6760   15.0990   16.5510 C.3   139  GLY139      0.2014
     38  C          2.5610   15.9170   15.6240 C.2   139  GLY139      0.2639
     39  O          2.7430   15.5530   14.4590 O.2   139  GLY139     -0.2714
     40  N          3.1170   17.0120   16.1370 N.am  140  GLY140     -0.1939
     41  CA         3.9660   17.8960   15.3540 C.3   140  GLY140      0.2014
     42  C          5.1470   17.2280   14.6680 C.2   140  GLY140      0.2638
     43  O          5.4680   17.5660   13.5280 O.2   140  GLY140     -0.2714
     44  N          5.7930   16.2840   15.3520 N.am  141  PHE141     -0.1973
     45  CA         6.9210   15.5480   14.7720 C.3   141  PHE141      0.1639
     46  C          6.4960   14.7860   13.5260 C.2   141  PHE141      0.2290
     47  O          7.1910   14.7940   12.5130 O.2   141  PHE141     -0.2864
     48  CB         7.5320   14.5690   15.7790 C.3   141  PHE141      0.0560
     49  CG         8.4880   15.2050   16.7520 C.ar  141  PHE141     -0.0200
     50  CD1        8.5080   16.5760   16.9440 C.ar  141  PHE141     -0.0042
     51  CD2        9.3810   14.4270   17.4690 C.ar  141  PHE141     -0.0042
     52  CE1        9.3910   17.1550   17.8420 C.ar  141  PHE141     -0.0003
     53  CE2       10.2700   15.0060   18.3650 C.ar  141  PHE141     -0.0003
     54  CZ        10.2710   16.3720   18.5490 C.ar  141  PHE141     -0.0000
     55  N          1.9950    6.2490   19.1060 N.3   158  MET158     -0.1230
     56  CA         1.3790    6.0090   20.4070 C.3   158  MET158      0.1702
     57  C          1.6630    7.1700   21.3600 C.2   158  MET158      0.2593
     58  O          2.7890    7.6590   21.4440 O.2   158  MET158     -0.2718
     59  CB         1.8380    4.6790   21.0140 C.3   158  MET158      0.0401
     60  CG         1.2440    4.3940   22.3960 C.3   158  MET158      0.0596
     61  SD         1.6730    2.7730   23.0710 S.3   158  MET158     -0.1393
     62  CE         3.4560    2.8040   22.9030 C.3   158  MET158      0.0692
     63  N          0.6220    7.6140   22.0590 N.am  159  THR159     -0.1939
     64  CA         0.7330    8.6820   23.0450 C.3   159  THR159      0.2028
     65  C         -0.4040    8.5630   24.0630 C.2   159  THR159      0.2642
     66  O         -1.3850    7.8550   23.8300 O.2   159  THR159     -0.2714
     67  CB         0.6870   10.0710   22.3750 C.3   159  THR159      0.1808
     68  OG1        1.1380   11.0700   23.2960 O.3   159  THR159     -0.2208
     69  CG2       -0.7250   10.4040   21.9180 C.3   159  THR159      0.0379
     70  N         -0.2710    9.2540   25.1900 N.am  160  LEU160     -0.1977
     71  CA        -1.3200    9.2620   26.2090 C.3   160  LEU160      0.1596
     72  C         -2.6220    9.8990   25.7280 C.2   160  LEU160      0.2287
     73  O         -2.6300   11.0440   25.2750 O.2   160  LEU160     -0.2864
     74  CB        -0.8460    9.9950   27.4630 C.3   160  LEU160      0.0297
     75  CG        -0.0860    9.1820   28.5030 C.3   160  LEU160      0.0022
     76  CD1        0.1620   10.0360   29.7310 C.3   160  LEU160      0.0001
     77  CD2       -0.8510    7.9210   28.8580 C.3   160  LEU160      0.0001
     78  N         -4.0150   15.8810   25.5620 N.3   164  ASN164     -0.1240
     79  CA        -2.7890   15.9450   24.7690 C.3   164  ASN164      0.1653
     80  C         -2.6810   14.7840   23.7930 C.2   164  ASN164      0.2266
     81  O         -1.5810   14.3470   23.4590 O.2   164  ASN164     -0.2867
     82  CB        -1.5570   15.9820   25.6740 C.3   164  ASN164      0.1155
     83  CG        -1.4600   17.2650   26.4790 C.2   164  ASN164      0.2627
     84  OD1       -1.8470   18.3390   26.0110 O.2   164  ASN164     -0.2716
     85  ND2       -0.9390   17.1610   27.6970 N.am  164  ASN164     -0.0877
     86  N         -2.5730    4.2260   25.7580 N.3   192  GLY192     -0.1210
     87  CA        -1.3600    4.7370   25.1490 C.3   192  GLY192      0.1956
     88  C         -0.2240    4.9780   26.1270 C.2   192  GLY192      0.2612
     89  O          0.7860    5.5830   25.7690 O.2   192  GLY192     -0.2717
     90  N         -0.3820    4.5120   27.3630 N.am  193  ASP193     -0.1959
     91  CA         0.6850    4.6320   28.3500 C.3   193  ASP193      0.1840
     92  C          1.8430    3.7240   27.9460 C.2   193  ASP193      0.2622
     93  O          1.7270    2.4990   27.9670 O.2   193  ASP193     -0.2715
     94  CB         0.1790    4.2870   29.7550 C.3   193  ASP193      0.1450
     95  CG         1.1410    4.7220   30.8500 C.2   193  ASP193      0.3671
     96  OD1        2.3030    5.0560   30.5300 O.co2 193  ASP193     -0.2456
     97  OD2        0.7380    4.7260   32.0340 O.co2 193  ASP193     -0.2456
     98  N          2.9560    4.3440   27.5680 N.am  194  ILE194     -0.1963
     99  CA         4.1290    3.6330   27.0730 C.3   194  ILE194      0.1727
    100  C          4.8850    2.9400   28.2100 C.2   194  ILE194      0.2616
    101  O          5.7880    2.1410   27.9730 O.2   194  ILE194     -0.2715
    102  CB         5.0780    4.6080   26.3240 C.3   194  ILE194      0.0290
    103  CG1        6.0740    3.8500   25.4410 C.3   194  ILE194      0.0022
    104  CG2        5.7890    5.5310   27.3090 C.3   194  ILE194      0.0023
    105  CD1        6.9670    4.7550   24.6130 C.3   194  ILE194      0.0001
    106  N          4.5100    3.2420   29.4480 N.am  195  THR195     -0.1951
    107  CA         5.1850    2.6530   30.5960 C.3   195  THR195      0.1897
    108  C          4.5330    1.3510   31.0410 C.2   195  THR195      0.2313
    109  O          4.9430    0.7610   32.0410 O.2   195  THR195     -0.2863
    110  CB         5.2480    3.6240   31.7870 C.3   195  THR195      0.1794
    111  OG1        3.9200    3.9580   32.1990 O.3   195  THR195     -0.2208
    112  CG2        5.9900    4.8940   31.4010 C.3   195  THR195      0.0378
    113  N          9.3990   12.0470   22.0520 N.3   222  ASP222     -0.1225
    114  CA         9.5070   13.3970   22.6030 C.3   222  ASP222      0.1805
    115  C          8.7010   13.5500   23.9000 C.2   222  ASP222      0.2598
    116  O          8.0480   14.5750   24.1220 O.2   222  ASP222     -0.2718
    117  CB         9.0410   14.4110   21.5560 C.3   222  ASP222      0.1424
    118  CG         9.4620   15.8260   21.8780 C.2   222  ASP222      0.3668
    119  OD1       10.5980   16.0270   22.3580 O.co2 222  ASP222     -0.2456
    120  OD2        8.6490   16.7430   21.6490 O.co2 222  ASP222     -0.2456
    121  N          8.7660   12.5340   24.7590 N.am  223  GLY223     -0.1942
    122  CA         7.9620   12.4810   25.9720 C.3   223  GLY223      0.2014
    123  C          8.2510   13.4950   27.0680 C.2   223  GLY223      0.2639
    124  O          9.4040   13.7910   27.3770 O.2   223  GLY223     -0.2714
    125  N          7.1810   14.0140   27.6660 N.am  224  GLY224     -0.1939
    126  CA         7.2670   14.9730   28.7560 C.3   224  GLY224      0.2014
    127  C          5.9190   15.1900   29.4300 C.2   224  GLY224      0.2638
    128  O          4.8740   14.8190   28.9030 O.2   224  GLY224     -0.2714
    129  N          5.9460   15.7840   30.6150 N.am  225  PHE225     -0.1973
    130  CA         4.7240   16.1170   31.3360 C.3   225  PHE225      0.1639
    131  C          5.0250   17.2040   32.3540 C.2   225  PHE225      0.2290
    132  O          6.1840   17.5560   32.5580 O.2   225  PHE225     -0.2864
    133  CB         4.1170   14.8840   32.0140 C.3   225  PHE225      0.0560
    134  CG         5.0820   14.1150   32.8730 C.ar  225  PHE225     -0.0200
    135  CD1        5.4200   14.5660   34.1420 C.ar  225  PHE225     -0.0042
    136  CD2        5.6360   12.9270   32.4190 C.ar  225  PHE225     -0.0042
    137  CE1        6.3010   13.8600   34.9350 C.ar  225  PHE225     -0.0003
    138  CE2        6.5220   12.2130   33.2080 C.ar  225  PHE225     -0.0003
    139  CZ         6.8540   12.6830   34.4720 C.ar  225  PHE225     -0.0000
    140  N          9.8750    7.1480   31.9940 N.3   241  LEU241     -0.1245
    141  CA         9.4630    7.5610   30.6570 C.3   241  LEU241      0.1561
    142  C         10.6480    7.4800   29.7100 C.2   241  LEU241      0.2260
    143  O         10.5200    7.0400   28.5650 O.2   241  LEU241     -0.2867
    144  CB         8.9630    9.0030   30.6990 C.3   241  LEU241      0.0270
    145  CG         7.7460    9.4320   29.8730 C.3   241  LEU241      0.0019
    146  CD1        8.0030   10.7930   29.2300 C.3   241  LEU241      0.0001
    147  CD2        7.3520    8.4000   28.8370 C.3   241  LEU241      0.0001
    148  N         13.9420   12.8170   23.0820 N.3   262  LYS262     -0.1245
    149  CA        14.1140   13.9520   23.9880 C.3   262  LYS262      0.1561
    150  C         14.4810   13.4580   25.3710 C.2   262  LYS262      0.2260
    151  O         13.8510   12.5450   25.8990 O.2   262  LYS262     -0.2867
    152  CB        12.8310   14.7840   24.0920 C.3   262  LYS262      0.0271
    153  CG        13.0330   16.1700   24.7200 C.3   262  LYS262      0.0035
    154  CD        12.1790   16.3950   25.9710 C.3   262  LYS262      0.0206
    155  CE        10.6820   16.4170   25.6600 C.3   262  LYS262      0.1093
    156  NZ        10.2940   17.4840   24.6930 N.3   262  LYS262     -0.1314
@<TRIPOS>BOND
     1    47    46    2
     2    46    45    1
     3    43    42    2
     4    39    38    2
     5    42    44   am
     6    42    41    1
     7    45    44    1
     8    45    48    1
     9    41    40    1
    10    38    40   am
    11    38    37    1
    12    48    49    1
    13     4     3    2
    14     1     2    1
    15    37    36    1
    16    12    11    2
    17    49    50   ar
    18    49    51   ar
    19    50    52   ar
    20    11    10    1
    21     3     2    1
    22    32    31    2
    23     7     6    2
    24     2     5    1
    25    51    53   ar
    26    36    31   am
    27    52    54   ar
    28    31    30    1
    29     9    10    1
    30     6     5    1
    31     6     8   am
    32    53    54   ar
    33    10    13    1
    34    33    30    1
    35    33    34    1
    36    55    56    1
    37    30    29    1
    38    24    21    1
    39    23    22    2
    40    34    35    1
    41    29    35    1
    42    29    27   am
    43    56    59    1
    44    56    57    1
    45    22    21    1
    46    22    25   am
    47    21    20    1
    48    59    60    1
    49    26    27    1
    50    26    25    1
    51    27    28    2
    52    57    58    2
    53    57    63   am
    54   117   118    1
    55   117   114    1
    56   120   118   ar
    57    20    16   am
    58   118   119   ar
    59    69    67    1
    60   113   114    1
    61    63    64    1
    62    67    64    1
    63    67    68    1
    64    60    61    1
    65    14    15    1
    66   114   115    1
    67    16    17    2
    68    16    15    1
    69    62    61    1
    70    64    65    1
    71   148   149    1
    72    15    18    1
    73    81    80    2
    74    80    79    1
    75    66    65    2
    76   115   116    2
    77   115   121   am
    78   149   152    1
    79   149   150    1
    80    65    70   am
    81   152   153    1
    82    18    19    1
    83   105   103    1
    84   156   155    1
    85   153   154    1
    86   121   122    1
    87    79    78    1
    88    79    82    1
    89    87    86    1
    90    87    88    1
    91    70    71    1
    92    73    72    2
    93   150   151    2
    94   103   102    1
    95   155   154    1
    96    82    83    1
    97    72    71    1
    98    89    88    2
    99   122   123    1
   100    84    83    2
   101    88    90   am
   102    71    74    1
   103   102    99    1
   104   102   104    1
   105    83    85   am
   106   123   124    2
   107   123   125   am
   108    99    98    1
   109    99   100    1
   110    90    91    1
   111    74    75    1
   112    98    92   am
   113   125   126    1
   114    92    93    2
   115    92    91    1
   116   101   100    2
   117   100   106   am
   118    91    94    1
   119    75    77    1
   120    75    76    1
   121   143   142    2
   122   126   127    1
   123   147   145    1
   124   128   127    2
   125   146   145    1
   126   127   129   am
   127   106   107    1
   128   142   141    1
   129    94    95    1
   130   145   144    1
   131    96    95   ar
   132   107   108    1
   133   107   110    1
   134   129   130    1
   135   141   144    1
   136   141   140    1
   137    95    97   ar
   138   108   109    2
   139   130   133    1
   140   130   131    1
   141   112   110    1
   142   110   111    1
   143   133   134    1
   144   131   132    2
   145   136   134   ar
   146   136   138   ar
   147   134   135   ar
   148   138   139   ar
   149   135   137   ar
   150   139   137   ar
