@<TRIPOS>MOLECULE
tmp/4n4bA00.pdb
 91 89 0 0 0
SMALL
GASTEIGER

@<TRIPOS>ATOM
      1  N        -24.7610  -40.8770  -11.7080 N.3    37  ILE37      -0.1245
      2  CA       -24.2980  -42.3160  -11.5720 C.3    37  ILE37       0.1561
      3  C        -25.5940  -43.1450  -11.4100 C.2    37  ILE37       0.2260
      4  O        -26.2670  -43.0940  -10.4130 O.2    37  ILE37      -0.2867
      5  CB       -23.4300  -42.4970  -10.3750 C.3    37  ILE37       0.0252
      6  CG1      -22.1980  -41.5370  -10.4110 C.3    37  ILE37       0.0019
      7  CG2      -22.9750  -43.9700  -10.2760 C.3    37  ILE37       0.0019
      8  CD1      -21.3490  -41.5780   -9.1720 C.3    37  ILE37       0.0001
      9  N        -13.7870  -38.6950  -10.6700 N.3    91  TRP91      -0.1241
     10  CA       -13.0300  -39.9010  -10.2010 C.3    91  TRP91       0.1605
     11  C        -11.6700  -39.9050  -10.8420 C.2    91  TRP91       0.2264
     12  O        -11.5690  -39.7960  -12.0560 O.2    91  TRP91      -0.2867
     13  CB       -13.8340  -41.1330  -10.6490 C.3    91  TRP91       0.0550
     14  CG       -13.2170  -42.4770  -10.3130 C.ar   91  TRP91       0.0003
     15  CD1      -12.7390  -43.3390  -11.2700 C.ar   91  TRP91       0.0946
     16  CD2      -13.0780  -43.0620   -9.0580 C.ar   91  TRP91       0.0152
     17  NE1      -12.3510  -44.4600  -10.6300 N.ar   91  TRP91      -0.2442
     18  CE2      -12.5140  -44.3770   -9.2980 C.ar   91  TRP91       0.0810
     19  CE3      -13.4220  -42.7130   -7.7880 C.ar   91  TRP91       0.0012
     20  CZ2      -12.3730  -45.2880   -8.2680 C.ar   91  TRP91       0.0191
     21  CZ3      -13.2150  -43.6040   -6.7300 C.ar   91  TRP91       0.0001
     22  CH2      -12.6260  -44.8790   -7.0020 C.ar   91  TRP91       0.0015
     23  N         -9.0170  -42.1750  -11.7400 N.3    93  ALA93      -0.1245
     24  CA        -8.8990  -43.6560  -11.8180 C.3    93  ALA93       0.1562
     25  C         -7.5170  -44.1840  -11.3830 C.2    93  ALA93       0.2260
     26  O         -7.5440  -45.1520  -10.6050 O.2    93  ALA93      -0.2867
     27  CB        -9.3050  -44.0860  -13.2170 C.3    93  ALA93       0.0290
     28  N         -7.9040  -44.4260   -7.5340 N.3    96  LYS96      -0.1245
     29  CA        -9.1590  -44.8990   -7.0570 C.3    96  LYS96       0.1561
     30  C         -9.7010  -44.0660   -5.8820 C.2    96  LYS96       0.2260
     31  O        -10.0780  -44.4120   -4.8140 O.2    96  LYS96      -0.2867
     32  CB        -9.0600  -46.3740   -6.5880 C.3    96  LYS96       0.0271
     33  CG        -8.8220  -47.2570   -7.7990 C.3    96  LYS96       0.0035
     34  CD        -8.7060  -48.6620   -7.1950 C.3    96  LYS96       0.0206
     35  CE        -7.8710  -49.6400   -8.0220 C.3    96  LYS96       0.1093
     36  NZ        -8.3930  -49.7950   -9.4030 N.3    96  LYS96      -0.1314
     37  N        -12.0430  -40.1800   -5.4700 N.3    98  TRP98      -0.1241
     38  CA       -12.6490  -38.9710   -6.0250 C.3    98  TRP98       0.1605
     39  C        -11.7920  -37.7780   -5.5830 C.2    98  TRP98       0.2264
     40  O        -11.3390  -37.6990   -4.4550 O.2    98  TRP98      -0.2867
     41  CB       -14.0380  -38.8020   -5.3960 C.3    98  TRP98       0.0550
     42  CG       -15.0160  -39.9230   -5.7010 C.ar   98  TRP98       0.0003
     43  CD1      -15.2290  -41.0100   -4.9460 C.ar   98  TRP98       0.0946
     44  CD2      -15.8300  -40.0330   -6.8730 C.ar   98  TRP98       0.0152
     45  NE1      -16.1630  -41.8110   -5.5800 N.ar   98  TRP98      -0.2442
     46  CE2      -16.5560  -41.2710   -6.7680 C.ar   98  TRP98       0.0810
     47  CE3      -16.0270  -39.2550   -8.0060 C.ar   98  TRP98       0.0012
     48  CZ2      -17.4550  -41.6790   -7.7760 C.ar   98  TRP98       0.0191
     49  CZ3      -16.8750  -39.6860   -8.9480 C.ar   98  TRP98       0.0001
     50  CH2      -17.5590  -40.9070   -8.8470 C.ar   98  TRP98       0.0015
     51  N        -12.5300  -41.5220   -0.8030 N.3   113  PRO113     -0.2102
     52  CA       -12.8020  -42.7500   -1.5210 C.3   113  PRO113      0.1504
     53  C        -14.2750  -42.9660   -1.8170 C.2   113  PRO113      0.2575
     54  O        -14.5610  -43.8410   -2.7030 O.2   113  PRO113     -0.2718
     55  CB       -12.3380  -43.8010   -0.4890 C.3   113  PRO113      0.0282
     56  CG       -12.3320  -43.1600    0.8130 C.3   113  PRO113      0.0208
     57  CD       -12.0730  -41.6790    0.5680 C.3   113  PRO113      0.0893
     58  N        -15.2090  -42.2480   -1.1600 N.am  114  ASP114     -0.1974
     59  CA       -16.6430  -42.5110   -1.3910 C.3   114  ASP114      0.1708
     60  C        -17.3930  -41.1550   -1.4880 C.2   114  ASP114      0.2293
     61  O        -17.5470  -40.4440   -0.5070 O.2   114  ASP114     -0.2864
     62  CB       -17.1730  -43.2660   -0.1730 C.3   114  ASP114      0.1436
     63  CG       -18.7090  -43.6520   -0.2830 C.2   114  ASP114      0.3671
     64  OD1      -19.2730  -43.3710   -1.3270 O.co2 114  ASP114     -0.2456
     65  OD2      -19.1650  -44.3540    0.6620 O.co2 114  ASP114     -0.2456
     66  N        -22.1560  -41.6770  -17.5120 N.3   274  GLY274     -0.1210
     67  CA       -21.2010  -42.6270  -17.9580 C.3   274  GLY274      0.1956
     68  C        -19.9510  -42.6650  -17.1550 C.2   274  GLY274      0.2613
     69  O        -19.9400  -42.7630  -15.9570 O.2   274  GLY274     -0.2717
     70  N        -18.8600  -42.6590  -17.8830 N.am  275  THR275     -0.1938
     71  CA       -17.5890  -42.3410  -16.9340 C.3   275  THR275      0.2028
     72  C        -17.5220  -40.8400  -16.4150 C.2   275  THR275      0.2642
     73  O        -18.1370  -39.9200  -16.9380 O.2   275  THR275     -0.2714
     74  CB       -16.3700  -42.7200  -17.7840 C.3   275  THR275      0.1808
     75  OG1      -16.2820  -44.1500  -17.9090 O.3   275  THR275     -0.2208
     76  CG2      -15.1200  -42.2000  -17.1550 C.3   275  THR275      0.0379
     77  N        -17.2370  -40.8740  -15.1640 N.am  276  VAL276     -0.1963
     78  CA       -17.2050  -39.6510  -14.4200 C.3   276  VAL276      0.1727
     79  C        -15.7770  -39.4330  -13.9520 C.2   276  VAL276      0.2616
     80  O        -15.5620  -38.9530  -12.9580 O.2   276  VAL276     -0.2715
     81  CB       -18.2590  -39.6370  -13.3370 C.3   276  VAL276      0.0290
     82  CG1      -19.6570  -39.5270  -13.9320 C.3   276  VAL276      0.0023
     83  CG2      -18.1630  -40.8480  -12.4580 C.3   276  VAL276      0.0023
     84  N        -14.8430  -39.8620  -14.7740 N.am  277  ASP277     -0.1971
     85  CA       -13.4270  -39.8110  -14.4710 C.3   277  ASP277      0.1709
     86  C        -12.7030  -38.5570  -15.0010 C.2   277  ASP277      0.2293
     87  O        -13.2970  -37.6410  -15.4810 O.2   277  ASP277     -0.2864
     88  CB       -12.7320  -41.1270  -14.8980 C.3   277  ASP277      0.1436
     89  CG       -12.5230  -41.2420  -16.3960 C.2   277  ASP277      0.3671
     90  OD1      -12.7830  -40.3440  -17.1840 O.co2 277  ASP277     -0.2456
     91  OD2      -12.1030  -42.3140  -16.7900 O.co2 277  ASP277     -0.2456
@<TRIPOS>BOND
     1    67    66    1
     2    67    68    1
     3    75    74    1
     4    70    68   am
     5    70    71    1
     6    74    76    1
     7    74    71    1
     8    90    89   ar
     9    68    69    2
    10    73    72    2
    11    71    72    1
    12    91    89   ar
    13    72    77   am
    14    89    88    1
    15    87    86    2
    16    77    78    1
    17    86    85    1
    18    88    85    1
    19    84    85    1
    20    84    79   am
    21    78    79    1
    22    78    81    1
    23    79    80    2
    24    82    81    1
    25    81    83    1
    26    27    24    1
    27    12    11    2
    28    24    23    1
    29    24    25    1
    30     1     2    1
    31     2     3    1
    32     2     5    1
    33     3     4    2
    34    25    26    2
    35    15    17   ar
    36    15    14   ar
    37    11    10    1
    38     9    10    1
    39    13    14    1
    40    13    10    1
    41    17    18   ar
    42     6     5    1
    43     6     8    1
    44     5     7    1
    45    14    16   ar
    46    36    35    1
    47    18    16   ar
    48    18    20   ar
    49    16    19   ar
    50    49    50   ar
    51    49    47   ar
    52    50    48   ar
    53    20    22   ar
    54    35    34    1
    55    47    44   ar
    56    33    34    1
    57    33    32    1
    58    19    21   ar
    59    48    46   ar
    60    28    29    1
    61    29    32    1
    62    29    30    1
    63    22    21   ar
    64    44    46   ar
    65    44    42   ar
    66    46    45   ar
    67    38    39    1
    68    38    37    1
    69    38    41    1
    70    30    31    2
    71    42    41    1
    72    42    43   ar
    73    39    40    2
    74    45    43   ar
    75    54    53    2
    76    53    52    1
    77    53    58   am
    78    52    51    1
    79    52    55    1
    80    60    59    1
    81    60    61    2
    82    59    58    1
    83    59    62    1
    84    64    63   ar
    85    51    57    1
    86    55    56    1
    87    63    62    1
    88    63    65   ar
    89    57    56    1
