@<TRIPOS>MOLECULE
tmp/4n4bA01.pdb
 111 104 0 0 0
SMALL
GASTEIGER

@<TRIPOS>ATOM
      1  N        -24.3980  -21.7270   -5.6690 N.3    30  LYS30      -0.1231
      2  CA       -23.6700  -21.2140   -6.8340 C.3    30  LYS30       0.1693
      3  C        -22.7520  -22.2730   -7.4020 C.2    30  LYS30       0.2592
      4  O        -22.3130  -23.2070   -6.7450 O.2    30  LYS30      -0.2718
      5  CB       -22.7900  -20.0120   -6.4620 C.3    30  LYS30       0.0285
      6  CG       -23.5620  -18.7930   -6.0030 C.3    30  LYS30       0.0035
      7  CD       -22.6400  -17.6570   -5.8020 C.3    30  LYS30       0.0206
      8  CE       -22.2070  -17.0400   -7.0790 C.3    30  LYS30       0.1093
      9  NZ       -21.1760  -16.0150   -6.8540 N.3    30  LYS30      -0.1314
     10  N        -22.3260  -22.0560   -8.6160 N.am   31  ASP31      -0.1974
     11  CA       -21.1340  -22.6480   -9.2420 C.3    31  ASP31       0.1709
     12  C        -21.1090  -24.2080   -9.1810 C.2    31  ASP31       0.2293
     13  O        -20.0980  -24.8030   -8.7590 O.2    31  ASP31      -0.2864
     14  CB       -19.8610  -22.1570   -8.5240 C.3    31  ASP31       0.1436
     15  CG       -19.8130  -20.6610   -8.2130 C.2    31  ASP31       0.3671
     16  OD1      -20.2920  -19.9160   -9.0740 O.co2  31  ASP31      -0.2456
     17  OD2      -19.2780  -20.3170   -7.1240 O.co2  31  ASP31      -0.2456
     18  N        -17.4840  -17.7260    1.6510 N.3    53  TYR53      -0.1241
     19  CA       -17.8210  -18.8290    0.7530 C.3    53  TYR53       0.1605
     20  C        -17.3130  -20.1420    1.3260 C.2    53  TYR53       0.2264
     21  O        -16.2570  -20.2280    1.8400 O.2    53  TYR53      -0.2867
     22  CB       -17.1730  -18.6320   -0.6330 C.3    53  TYR53       0.0534
     23  CG       -17.8330  -17.6270   -1.5500 C.ar   53  TYR53      -0.0201
     24  CD1      -17.8120  -16.3100   -1.2630 C.ar   53  TYR53      -0.0009
     25  CD2      -18.4540  -18.0200   -2.6920 C.ar   53  TYR53      -0.0009
     26  CE1      -18.3920  -15.3990   -2.1180 C.ar   53  TYR53       0.0417
     27  CE2      -19.0360  -17.1140   -3.5170 C.ar   53  TYR53       0.0417
     28  CZ       -19.0270  -15.8350   -3.2180 C.ar   53  TYR53       0.1957
     29  OH       -19.6010  -14.9620   -4.1180 O.3    53  TYR53      -0.2866
     30  N        -14.4510  -22.2910   -2.6080 N.3    85  ALA85      -0.1231
     31  CA       -15.4650  -21.9980   -3.5910 C.3    85  ALA85       0.1694
     32  C        -15.2370  -22.6780   -4.8810 C.2    85  ALA85       0.2591
     33  O        -14.0990  -23.0280   -5.2750 O.2    85  ALA85      -0.2718
     34  CB       -15.5350  -20.4800   -3.7690 C.3    85  ALA85       0.0304
     35  N        -16.3150  -22.8670   -5.6140 N.am   86  ALA86      -0.1980
     36  CA       -16.3670  -23.2510   -7.0300 C.3    86  ALA86       0.1597
     37  C        -15.7160  -24.5960   -7.2920 C.2    86  ALA86       0.2287
     38  O        -14.6020  -24.7240   -7.8180 O.2    86  ALA86      -0.2864
     39  CB       -15.7140  -22.1510   -7.9170 C.3    86  ALA86       0.0319
     40  N        -11.1100  -23.5460   -5.1300 N.3   103  GLN103     -0.1245
     41  CA       -10.2310  -22.4450   -4.7880 C.3   103  GLN103      0.1566
     42  C        -10.2620  -22.1480   -3.2970 C.2   103  GLN103      0.2260
     43  O        -11.3230  -22.2640   -2.6490 O.2   103  GLN103     -0.2867
     44  CB       -10.5310  -21.2120   -5.5960 C.3   103  GLN103      0.0367
     45  CG       -11.8120  -20.5020   -5.1320 C.3   103  GLN103      0.0905
     46  CD       -12.5310  -19.8850   -6.2740 C.2   103  GLN103      0.2608
     47  OE1      -12.6680  -20.4300   -7.3620 O.2   103  GLN103     -0.2717
     48  NE2      -13.0710  -18.6720   -6.0570 N.am  103  GLN103     -0.0878
     49  N         -9.4560  -17.5680   -9.5260 N.3   146  VAL146     -0.1231
     50  CA       -10.7230  -18.2690   -9.3650 C.3   146  VAL146      0.1692
     51  C        -10.8960  -19.3830  -10.3830 C.2   146  VAL146      0.2592
     52  O        -10.2660  -19.4420  -11.3670 O.2   146  VAL146     -0.2718
     53  CB       -11.9400  -17.3000   -9.4640 C.3   146  VAL146      0.0266
     54  CG1      -11.8330  -16.2190   -8.4080 C.3   146  VAL146      0.0020
     55  CG2      -12.0650  -16.6980  -10.8630 C.3   146  VAL146      0.0020
     56  N        -11.8160  -20.2650  -10.0450 N.am  147  ASP147     -0.1974
     57  CA       -12.4430  -21.1920  -10.9450 C.3   147  ASP147      0.1709
     58  C        -11.5090  -22.2390  -11.5830 C.2   147  ASP147      0.2293
     59  O        -11.2600  -22.2420  -12.7230 O.2   147  ASP147     -0.2864
     60  CB       -13.3180  -20.4250  -11.9450 C.3   147  ASP147      0.1436
     61  CG       -14.4310  -19.6180  -11.2490 C.2   147  ASP147      0.3671
     62  OD1      -14.6490  -19.8820  -10.0990 O.co2 147  ASP147     -0.2456
     63  OD2      -15.0340  -18.8090  -11.8730 O.co2 147  ASP147     -0.2456
     64  N        -10.2920  -13.1920  -13.4650 N.3   164  ASP164     -0.1239
     65  CA       -11.3050  -12.1440  -13.4820 C.3   164  ASP164      0.1674
     66  C        -10.7510  -10.8950  -14.1630 C.2   164  ASP164      0.2266
     67  O        -11.1980   -9.7790  -13.9010 O.2   164  ASP164     -0.2867
     68  CB       -11.7600  -11.8120  -12.0600 C.3   164  ASP164      0.1410
     69  CG       -12.9180  -12.6770  -11.6030 C.2   164  ASP164      0.3668
     70  OD1      -13.3380  -13.5660  -12.3730 O.co2 164  ASP164     -0.2456
     71  OD2      -13.4080  -12.4670  -10.4740 O.co2 164  ASP164     -0.2456
     72  N        -14.6020  -15.8080  -16.3320 N.3   198  GLU198     -0.1245
     73  CA       -14.4190  -16.8610  -15.2970 C.3   198  GLU198      0.1567
     74  C        -15.2210  -18.0320  -15.7220 C.2   198  GLU198      0.2260
     75  O        -15.7170  -18.2060  -16.7890 O.2   198  GLU198     -0.2867
     76  CB       -14.7180  -16.3030  -13.9140 C.3   198  GLU198      0.0388
     77  CG       -16.1500  -16.0310  -13.6570 C.3   198  GLU198      0.1160
     78  CD       -16.4390  -15.2170  -12.4130 C.2   198  GLU198      0.3649
     79  OE1      -15.5430  -14.8440  -11.6510 O.co2 198  GLU198     -0.2457
     80  OE2      -17.6410  -14.9870  -12.1240 O.co2 198  GLU198     -0.2457
     81  N        -22.2620  -19.4080  -14.1320 N.3   267  HIS267     -0.1241
     82  CA       -21.4200  -20.5190  -13.7000 C.3   267  HIS267      0.1621
     83  C        -22.1840  -21.8270  -13.5000 C.2   267  HIS267      0.2264
     84  O        -22.9150  -21.9760  -12.6010 O.2   267  HIS267     -0.2867
     85  CB       -20.7000  -20.1370  -12.3780 C.3   267  HIS267      0.0745
     86  CG       -19.4790  -20.9590  -12.0800 C.ar  267  HIS267      0.0817
     87  ND1      -18.3630  -20.4570  -11.4630 N.ar  267  HIS267     -0.2268
     88  CD2      -19.2510  -22.2790  -12.2370 C.ar  267  HIS267      0.1154
     89  CE1      -17.4770  -21.4220  -11.3260 C.ar  267  HIS267      0.1986
     90  NE2      -17.9840  -22.5370  -11.8040 N.ar  267  HIS267     -0.2212
     91  N        -26.4190  -21.3780  -12.6890 N.3   292  GLN292     -0.1245
     92  CA       -26.9290  -20.4010  -11.7120 C.3   292  GLN292      0.1566
     93  C        -27.5330  -19.1950  -12.4400 C.2   292  GLN292      0.2260
     94  O        -26.9970  -18.6960  -13.4300 O.2   292  GLN292     -0.2867
     95  CB       -25.8370  -19.9680  -10.7450 C.3   292  GLN292      0.0367
     96  CG       -24.7120  -19.1990  -11.3460 C.3   292  GLN292      0.0905
     97  CD       -23.6760  -18.8020  -10.3260 C.2   292  GLN292      0.2608
     98  OE1      -23.4480  -19.4370   -9.3170 O.2   292  GLN292     -0.2717
     99  NE2      -22.9630  -17.6950  -10.6330 N.am  292  GLN292     -0.0878
    100  N        -22.3750   -8.0420   -4.5640 N.3   302  TYR302     -0.1241
    101  CA       -22.2950   -9.2810   -5.3170 C.3   302  TYR302      0.1605
    102  C        -22.4210  -10.5330   -4.4430 C.2   302  TYR302      0.2264
    103  O        -23.1190  -11.4390   -4.7660 O.2   302  TYR302     -0.2867
    104  CB       -20.9680   -9.3340   -6.1200 C.3   302  TYR302      0.0534
    105  CG       -20.8250  -10.6420   -6.8960 C.ar  302  TYR302     -0.0201
    106  CD1      -21.4360  -10.7930   -8.1040 C.ar  302  TYR302     -0.0009
    107  CD2      -20.1180  -11.7110   -6.3830 C.ar  302  TYR302     -0.0009
    108  CE1      -21.3540  -11.9960   -8.8190 C.ar  302  TYR302      0.0417
    109  CE2      -20.0270  -12.8910   -7.1110 C.ar  302  TYR302      0.0417
    110  CZ       -20.6600  -13.0130   -8.2930 C.ar  302  TYR302      0.1957
    111  OH       -20.5510  -14.2180   -8.9110 O.3   302  TYR302     -0.2866
@<TRIPOS>BOND
     1    75    74    2
     2    72    73    1
     3    74    73    1
     4    73    76    1
     5    66    67    2
     6    66    65    1
     7    81    82    1
     8    76    77    1
     9    82    83    1
    10    82    85    1
    11    77    78    1
    12    83    84    2
    13    65    64    1
    14    65    68    1
    15    94    93    2
    16    59    58    2
    17    91    92    1
    18    93    92    1
    19    78    80   ar
    20    78    79   ar
    21    85    86    1
    22    70    69   ar
    23    88    86   ar
    24    88    90   ar
    25    86    87   ar
    26    68    69    1
    27    60    61    1
    28    60    57    1
    29    63    61   ar
    30    90    89   ar
    31    92    95    1
    32    69    71   ar
    33    58    57    1
    34    87    89   ar
    35    52    51    2
    36    96    95    1
    37    96    97    1
    38    61    62   ar
    39    57    56    1
    40    55    53    1
    41    99    97   am
    42    51    56   am
    43    51    50    1
    44    97    98    2
    45    49    50    1
    46    53    50    1
    47    53    54    1
    48    11    12    1
    49    11    10    1
    50    11    14    1
    51    12    13    2
    52    16    15   ar
    53   111   110    1
    54   108   110   ar
    55   108   106   ar
    56    10     3   am
    57    14    15    1
    58   110   109   ar
    59    15    17   ar
    60   106   105   ar
    61    39    36    1
    62    38    37    2
    63     3     2    1
    64     3     4    2
    65    47    46    2
    66    37    36    1
    67   109   107   ar
    68     8     9    1
    69     8     7    1
    70    36    35    1
    71   105   107   ar
    72   105   104    1
    73     2     5    1
    74     2     1    1
    75     5     6    1
    76    46    48   am
    77    46    45    1
    78   104   101    1
    79     6     7    1
    80    35    32   am
    81    44    45    1
    82    44    41    1
    83   101   100    1
    84   101   102    1
    85    33    32    2
    86    40    41    1
    87    32    31    1
    88    41    42    1
    89   103   102    2
    90    29    28    1
    91    34    31    1
    92    31    30    1
    93    27    28   ar
    94    27    25   ar
    95    42    43    2
    96    28    26   ar
    97    25    23   ar
    98    26    24   ar
    99    23    24   ar
   100    23    22    1
   101    22    19    1
   102    19    20    1
   103    19    18    1
   104    20    21    2
