@<TRIPOS>MOLECULE
tmp/4n4dA00.pdb
 122 119 0 0 0
SMALL
GASTEIGER

@<TRIPOS>ATOM
      1  N         33.9200   12.6620   51.9720 N.3    18  ILE18      -0.1231
      2  CA        34.0030   13.2130   50.6410 C.3    18  ILE18       0.1692
      3  C         32.9670   14.3180   50.4010 C.2    18  ILE18       0.2592
      4  O         33.3060   15.2950   49.7170 O.2    18  ILE18      -0.2718
      5  CB        33.9660   12.1360   49.5920 C.3    18  ILE18       0.0266
      6  CG1       35.3570   11.5080   49.5340 C.3    18  ILE18       0.0019
      7  CG2       33.6440   12.7140   48.1990 C.3    18  ILE18       0.0020
      8  CD1       35.3550   10.1230   48.9250 C.3    18  ILE18       0.0001
      9  N         31.7700   14.1980   51.0070 N.am   19  SER19      -0.1952
     10  CA        30.6760   15.1820   50.8540 C.3    19  SER19       0.1924
     11  C         31.0170   16.4800   51.5510 C.2    19  SER19       0.2314
     12  O         30.2510   17.4130   51.5230 O.2    19  SER19      -0.2863
     13  CB        29.2970   14.6730   51.3480 C.3    19  SER19       0.2116
     14  OG        29.1150   14.6580   52.7590 O.3    19  SER19      -0.2180
     15  N         33.6750   18.0820   50.6140 N.3    21  ILE21      -0.1245
     16  CA        34.3940   18.8420   49.5840 C.3    21  ILE21       0.1561
     17  C         33.4850   19.7570   48.7230 C.2    21  ILE21       0.2260
     18  O         32.4510   19.3260   48.2330 O.2    21  ILE21      -0.2867
     19  CB        35.1730   17.8580   48.6940 C.3    21  ILE21       0.0252
     20  CG1       36.2470   17.1460   49.5360 C.3    21  ILE21       0.0019
     21  CG2       35.7660   18.5510   47.4410 C.3    21  ILE21       0.0019
     22  CD1       36.5850   15.8080   49.0000 C.3    21  ILE21       0.0001
     23  N         31.6230   21.0480   45.8760 N.3    23  ASN23      -0.1240
     24  CA        31.3350   20.4030   44.5740 C.3    23  ASN23       0.1653
     25  C         30.2570   21.1090   43.7540 C.2    23  ASN23       0.2266
     26  O         29.6100   20.4980   42.8970 O.2    23  ASN23      -0.2867
     27  CB        30.9190   18.9520   44.7990 C.3    23  ASN23       0.1155
     28  CG        29.7010   18.8330   45.6580 C.2    23  ASN23       0.2627
     29  OD1       29.3240   19.7720   46.3290 O.2    23  ASN23      -0.2716
     30  ND2       29.0820   17.6760   45.6550 N.am   23  ASN23      -0.0877
     31  N         22.6030   25.1270   42.3120 N.3    28  TRP28      -0.1241
     32  CA        22.4070   23.8210   42.9430 C.3    28  TRP28       0.1605
     33  C         22.9200   22.6810   42.0590 C.2    28  TRP28       0.2264
     34  O         22.6160   21.5380   42.2910 O.2    28  TRP28      -0.2867
     35  CB        20.9320   23.6220   43.2990 C.3    28  TRP28       0.0550
     36  CG        20.6980   23.2880   44.7510 C.ar   28  TRP28       0.0003
     37  CD1       19.9850   24.0200   45.6480 C.ar   28  TRP28       0.0946
     38  CD2       21.1910   22.1390   45.4700 C.ar   28  TRP28       0.0152
     39  NE1       19.9920   23.4040   46.8740 N.ar   28  TRP28      -0.2442
     40  CE2       20.7240   22.2480   46.7910 C.ar   28  TRP28       0.0810
     41  CE3       21.9790   21.0210   45.1200 C.ar   28  TRP28       0.0012
     42  CZ2       21.0120   21.2890   47.7680 C.ar   28  TRP28       0.0191
     43  CZ3       22.2710   20.0730   46.0930 C.ar   28  TRP28       0.0001
     44  CH2       21.7880   20.2120   47.4000 C.ar   28  TRP28       0.0015
     45  N         25.7290   20.2240   40.9320 N.3    30  ILE30      -0.1245
     46  CA        26.8270   19.6660   41.6990 C.3    30  ILE30       0.1561
     47  C         27.4370   18.4370   41.0430 C.2    30  ILE30       0.2260
     48  O         26.8170   17.7640   40.2140 O.2    30  ILE30      -0.2867
     49  CB        26.3810   19.3340   43.1360 C.3    30  ILE30       0.0252
     50  CG1       25.2640   18.2920   43.1190 C.3    30  ILE30       0.0019
     51  CG2       25.8610   20.5690   43.8300 C.3    30  ILE30       0.0019
     52  CD1       24.9600   17.7230   44.4240 C.3    30  ILE30       0.0001
     53  N         28.4750   15.0570   42.2960 N.3    32  GLU32      -0.1231
     54  CA        28.3450   14.3870   43.5810 C.3    32  GLU32       0.1699
     55  C         29.3290   13.1940   43.7810 C.2    32  GLU32       0.2592
     56  O         28.9170   12.0570   44.0300 O.2    32  GLU32      -0.2718
     57  CB        26.9070   14.0050   43.8970 C.3    32  GLU32       0.0402
     58  CG        26.7430   13.7650   45.4060 C.3    32  GLU32       0.1161
     59  CD        25.3870   13.2920   45.8530 C.2    32  GLU32       0.3649
     60  OE1       24.6130   12.8050   45.0130 O.co2  32  GLU32      -0.2457
     61  OE2       25.0830   13.4220   47.0670 O.co2  32  GLU32      -0.2457
     62  N         30.6320   13.5130   43.7510 N.am   33  ILE33      -0.1966
     63  CA        31.6930   12.5280   43.9410 C.3    33  ILE33       0.1727
     64  C         31.5300   11.7070   45.2190 C.2    33  ILE33       0.2616
     65  O         32.1830   10.6770   45.3820 O.2    33  ILE33      -0.2715
     66  CB        33.0880   13.2000   43.9680 C.3    33  ILE33       0.0290
     67  CG1       33.1830   14.1480   45.1400 C.3    33  ILE33       0.0022
     68  CG2       33.3590   13.9520   42.6840 C.3    33  ILE33       0.0023
     69  CD1       34.5260   14.7650   45.2990 C.3    33  ILE33       0.0001
     70  N         30.7080   12.1580   46.1590 N.am   34  ALA34      -0.1977
     71  CA        30.6000   11.4060   47.4080 C.3    34  ALA34       0.1597
     72  C         29.7940   10.0980   47.2270 C.2    34  ALA34       0.2287
     73  O         29.7230    9.2740   48.1280 O.2    34  ALA34      -0.2864
     74  CB        29.9960   12.2470   48.4930 C.3    34  ALA34       0.0319
     75  N         25.1900    6.8070   55.3060 N.3    57  TRP57      -0.1241
     76  CA        25.7740    8.0390   54.8170 C.3    57  TRP57       0.1605
     77  C         24.7670    9.1730   54.9750 C.2    57  TRP57       0.2264
     78  O         25.1270   10.2970   55.3460 O.2    57  TRP57      -0.2867
     79  CB        26.2140    7.8720   53.3520 C.3    57  TRP57       0.0550
     80  CG        26.5610    9.1750   52.6410 C.ar   57  TRP57       0.0003
     81  CD1       27.1590   10.2880   53.1840 C.ar   57  TRP57       0.0946
     82  CD2       26.2830    9.5050   51.2740 C.ar   57  TRP57       0.0152
     83  NE1       27.2860   11.2720   52.2320 N.ar   57  TRP57      -0.2442
     84  CE2       26.7520   10.8260   51.0550 C.ar   57  TRP57       0.0810
     85  CE3       25.6920    8.8130   50.2110 C.ar   57  TRP57       0.0012
     86  CZ2       26.6580   11.4560   49.8230 C.ar   57  TRP57       0.0191
     87  CZ3       25.6080    9.4400   48.9750 C.ar   57  TRP57       0.0001
     88  CH2       26.0800   10.7530   48.7960 C.ar   57  TRP57       0.0015
     89  N         24.8080   18.6920   57.6130 N.3    66  HIS66      -0.1241
     90  CA        25.3180   18.9730   56.2760 C.3    66  HIS66       0.1621
     91  C         24.2460   18.7480   55.2130 C.2    66  HIS66       0.2264
     92  O         24.4260   19.0840   54.0580 O.2    66  HIS66      -0.2867
     93  CB        26.5790   18.1520   56.0030 C.3    66  HIS66       0.0745
     94  CG        27.8320   18.8400   56.4420 C.ar   66  HIS66       0.0817
     95  ND1       28.5910   19.6150   55.5910 N.ar   66  HIS66      -0.2268
     96  CD2       28.4340   18.9120   57.6540 C.ar   66  HIS66       0.1154
     97  CE1       29.6180   20.1190   56.2570 C.ar   66  HIS66       0.1986
     98  NE2       29.5450   19.7090   57.5100 N.ar   66  HIS66      -0.2212
     99  N         20.6390   19.5750   53.4440 N.3    68  TYR68      -0.1241
    100  CA        19.6990   20.6830   53.2420 C.3    68  TYR68       0.1605
    101  C         18.2950   20.1540   53.5290 C.2    68  TYR68       0.2264
    102  O         17.7850   19.3050   52.7930 O.2    68  TYR68      -0.2867
    103  CB        19.7750   21.1780   51.8080 C.3    68  TYR68       0.0534
    104  CG        21.1400   21.6740   51.3910 C.ar   68  TYR68      -0.0201
    105  CD1       21.5510   22.9510   51.7070 C.ar   68  TYR68      -0.0009
    106  CD2       22.0060   20.8710   50.6570 C.ar   68  TYR68      -0.0009
    107  CE1       22.7940   23.4230   51.3240 C.ar   68  TYR68       0.0417
    108  CE2       23.2590   21.3280   50.2750 C.ar   68  TYR68       0.0417
    109  CZ        23.6410   22.6150   50.6070 C.ar   68  TYR68       0.1957
    110  OH        24.8740   23.1070   50.2430 O.3    68  TYR68      -0.2866
    111  N         17.6060   12.3270   51.8340 N.3    79  TYR79      -0.1241
    112  CA        18.7450   11.9670   52.6630 C.3    79  TYR79       0.1605
    113  C         18.5750   10.5830   53.3270 C.2    79  TYR79       0.2264
    114  O         19.3890   10.1910   54.1630 O.2    79  TYR79      -0.2867
    115  CB        19.0170   13.0940   53.6820 C.3    79  TYR79       0.0534
    116  CG        19.6450   14.3270   53.0430 C.ar   79  TYR79      -0.0201
    117  CD1       21.0040   14.3690   52.7840 C.ar   79  TYR79      -0.0009
    118  CD2       18.8830   15.4500   52.6940 C.ar   79  TYR79      -0.0009
    119  CE1       21.5820   15.4640   52.1920 C.ar   79  TYR79       0.0417
    120  CE2       19.4770   16.5800   52.0930 C.ar   79  TYR79       0.0417
    121  CZ        20.8190   16.5710   51.8450 C.ar   79  TYR79       0.1957
    122  OH        21.4680   17.6630   51.2820 O.3    79  TYR79      -0.2866
@<TRIPOS>BOND
     1    48    47    2
     2    45    46    1
     3    47    46    1
     4    46    49    1
     5    33    34    2
     6    33    32    1
     7    53    54    1
     8    31    32    1
     9    68    66    1
    10    26    25    2
    11    32    35    1
    12    50    49    1
    13    50    52    1
    14    49    51    1
    15    35    36    1
    16    54    55    1
    17    54    57    1
    18    62    55   am
    19    62    63    1
    20    25    24    1
    21    55    56    2
    22    57    58    1
    23    63    66    1
    24    63    64    1
    25    66    67    1
    26    24    27    1
    27    24    23    1
    28    36    38   ar
    29    36    37   ar
    30    27    28    1
    31    60    59   ar
    32    41    38   ar
    33    41    43   ar
    34    67    69    1
    35    64    65    2
    36    64    70   am
    37    58    59    1
    38    38    40   ar
    39    37    39   ar
    40    30    28   am
    41    28    29    2
    42    59    61   ar
    43    43    44   ar
    44    70    71    1
    45    40    39   ar
    46    40    42   ar
    47    72    71    1
    48    72    73    2
    49    44    42   ar
    50    71    74    1
    51    21    19    1
    52     7     5    1
    53    18    17    2
    54    19    20    1
    55    19    16    1
    56    17    16    1
    57    88    87   ar
    58    88    86   ar
    59     8     6    1
    60    87    85   ar
    61    22    20    1
    62     6     5    1
    63    16    15    1
    64     5     2    1
    65     4     3    2
    66    86    84   ar
    67    85    82   ar
    68   110   109    1
    69   108   109   ar
    70   108   106   ar
    71     3     2    1
    72     3     9   am
    73   109   107   ar
    74     2     1    1
    75   106   104   ar
    76    10     9    1
    77    10    13    1
    78    10    11    1
    79    84    82   ar
    80    84    83   ar
    81    82    80   ar
    82   122   121    1
    83   107   105   ar
    84    13    14    1
    85   104   105   ar
    86   104   103    1
    87    12    11    2
    88   103   100    1
    89   111   112    1
    90   121   120   ar
    91   121   119   ar
    92   120   118   ar
    93   119   117   ar
    94    83    81   ar
    95    80    81   ar
    96    80    79    1
    97   112   113    1
    98   112   115    1
    99   118   116   ar
   100   117   116   ar
   101   102   101    2
   102   116   115    1
   103   100    99    1
   104   100   101    1
   105   113   114    2
   106    79    76    1
   107    92    91    2
   108    76    77    1
   109    76    75    1
   110    77    78    2
   111    91    90    1
   112    95    97   ar
   113    95    94   ar
   114    93    90    1
   115    93    94    1
   116    97    98   ar
   117    90    89    1
   118    94    96   ar
   119    98    96   ar
