@<TRIPOS>MOLECULE
tmp/4n4dB04.pdb
 164 161 0 0 0
SMALL
GASTEIGER

@<TRIPOS>ATOM
      1  N         26.5900   -2.2990   21.7840 N.3    28  TRP28      -0.1241
      2  CA        26.2310   -1.0660   21.0910 C.3    28  TRP28       0.1605
      3  C         26.7880    0.1610   21.7740 C.2    28  TRP28       0.2264
      4  O         26.3480    1.2740   21.5280 O.2    28  TRP28      -0.2867
      5  CB        24.7130   -0.9710   21.0140 C.3    28  TRP28       0.0550
      6  CG        24.2290   -1.8150   19.9300 C.ar   28  TRP28       0.0003
      7  CD1       23.6590   -3.0650   20.0300 C.ar   28  TRP28       0.0946
      8  CD2       24.3110   -1.5160   18.5390 C.ar   28  TRP28       0.0152
      9  NE1       23.3710   -3.5450   18.7770 N.ar   28  TRP28      -0.2442
     10  CE2       23.7660   -2.6260   17.8420 C.ar   28  TRP28       0.0810
     11  CE3       24.7880   -0.4180   17.8080 C.ar   28  TRP28       0.0012
     12  CZ2       23.6880   -2.6680   16.4510 C.ar   28  TRP28       0.0191
     13  CZ3       24.7070   -0.4610   16.4260 C.ar   28  TRP28       0.0001
     14  CH2       24.1610   -1.5800   15.7610 C.ar   28  TRP28       0.0015
     15  N         29.6990    2.9060   22.4980 N.3    30  ILE30      -0.1245
     16  CA        30.8120    3.4840   21.7680 C.3    30  ILE30       0.1561
     17  C         31.4060    4.7150   22.4670 C.2    30  ILE30       0.2260
     18  O         30.7540    5.3680   23.2820 O.2    30  ILE30      -0.2867
     19  CB        30.3760    3.8880   20.3410 C.3    30  ILE30       0.0252
     20  CG1       29.3130    5.0230   20.3780 C.3    30  ILE30       0.0019
     21  CG2       29.8250    2.7480   19.6380 C.3    30  ILE30       0.0019
     22  CD1       29.1040    5.7160   19.0450 C.3    30  ILE30       0.0001
     23  N         32.5330    8.1400   20.9650 N.3    32  GLU32      -0.1245
     24  CA        32.5180    8.7430   19.6450 C.3    32  GLU32       0.1567
     25  C         33.4850    9.9200   19.5590 C.2    32  GLU32       0.2260
     26  O         33.0830   11.0870   19.4660 O.2    32  GLU32      -0.2867
     27  CB        31.1240    9.1680   19.2190 C.3    32  GLU32       0.0388
     28  CG        31.0530    9.3980   17.7230 C.3    32  GLU32       0.1160
     29  CD        29.6370    9.6620   17.2420 C.2    32  GLU32       0.3649
     30  OE1       28.7880    9.9950   18.0860 O.co2  32  GLU32      -0.2457
     31  OE2       29.3620    9.5010   16.0310 O.co2  32  GLU32      -0.2457
     32  N         24.6220    3.4350   10.0080 N.3    68  TYR68      -0.1241
     33  CA        23.6190    2.3770   10.1770 C.3    68  TYR68       0.1605
     34  C         22.2970    2.9000    9.6760 C.2    68  TYR68       0.2264
     35  O         21.7770    3.9230   10.1740 O.2    68  TYR68      -0.2867
     36  CB        23.4420    2.0110   11.6410 C.3    68  TYR68       0.0534
     37  CG        24.6800    1.4630   12.2870 C.ar   68  TYR68      -0.0201
     38  CD1       25.0670    0.1420   12.0800 C.ar   68  TYR68      -0.0009
     39  CD2       25.4710    2.2680   13.1100 C.ar   68  TYR68      -0.0009
     40  CE1       26.2010   -0.3570   12.6660 C.ar   68  TYR68       0.0417
     41  CE2       26.5960    1.7660   13.7010 C.ar   68  TYR68       0.0417
     42  CZ        26.9580    0.4630   13.4760 C.ar   68  TYR68       0.1957
     43  OH        28.0880   -0.0180   14.0680 O.3    68  TYR68      -0.2866
     44  N         19.5700   10.2330   12.7480 N.3    78  GLU78      -0.1231
     45  CA        20.8450    9.8390   13.3630 C.3    78  GLU78       0.1699
     46  C         22.0650   10.2560   12.5800 C.2    78  GLU78       0.2592
     47  O         23.1570   10.2910   13.1290 O.2    78  GLU78      -0.2718
     48  CB        20.9250    8.3350   13.5840 C.3    78  GLU78       0.0402
     49  CG        19.7820    7.8010   14.3560 C.3    78  GLU78       0.1161
     50  CD        20.1670    6.5830   15.1390 C.2    78  GLU78       0.3649
     51  OE1       20.7690    6.7650   16.2280 O.co2  78  GLU78      -0.2457
     52  OE2       19.8720    5.4540   14.6680 O.co2  78  GLU78      -0.2457
     53  N         21.8980   10.5500   11.2990 N.am   79  TYR79      -0.1976
     54  CA        23.0400   10.9420   10.4710 C.3    79  TYR79       0.1639
     55  C         22.8530   12.2830    9.7340 C.2    79  TYR79       0.2290
     56  O         23.6570   12.6390    8.8760 O.2    79  TYR79      -0.2864
     57  CB        23.3950    9.8130    9.5100 C.3    79  TYR79       0.0560
     58  CG        23.9030    8.5740   10.2350 C.ar   79  TYR79      -0.0198
     59  CD1       25.2280    8.4910   10.6210 C.ar   79  TYR79      -0.0009
     60  CD2       23.0610    7.5070   10.5430 C.ar   79  TYR79      -0.0009
     61  CE1       25.7050    7.4010   11.2840 C.ar   79  TYR79       0.0417
     62  CE2       23.5380    6.4090   11.2140 C.ar   79  TYR79       0.0417
     63  CZ        24.8650    6.3600   11.5740 C.ar   79  TYR79       0.1957
     64  OH        25.4070    5.2940   12.2190 O.3    79  TYR79      -0.2866
     65  N         23.1030   15.6740   20.7880 N.3   115  LYS115     -0.1231
     66  CA        23.2910   14.5830   19.8480 C.3   115  LYS115      0.1693
     67  C         22.7540   13.2630   20.4100 C.2   115  LYS115      0.2592
     68  O         21.9710   12.5580   19.7780 O.2   115  LYS115     -0.2718
     69  CB        24.7680   14.4120   19.5400 C.3   115  LYS115      0.0285
     70  CG        25.0060   13.5580   18.3030 C.3   115  LYS115      0.0035
     71  CD        26.4360   13.6460   17.7790 C.3   115  LYS115      0.0206
     72  CE        26.5540   12.8860   16.4600 C.3   115  LYS115      0.1093
     73  NZ        26.7620   11.4420   16.6600 N.3   115  LYS115     -0.1314
     74  N         23.1760   12.9580   21.6200 N.am  116  TYR116     -0.1976
     75  CA        22.7540   11.7490   22.2850 C.3   116  TYR116      0.1639
     76  C         21.3000   11.7710   22.7320 C.2   116  TYR116      0.2290
     77  O         20.6610   10.7270   22.7930 O.2   116  TYR116     -0.2864
     78  CB        23.7720   11.3910   23.3830 C.3   116  TYR116      0.0560
     79  CG        24.9400   10.7530   22.6870 C.ar  116  TYR116     -0.0198
     80  CD1       25.8800   11.5290   21.9940 C.ar  116  TYR116     -0.0009
     81  CD2       25.0280    9.3470   22.6030 C.ar  116  TYR116     -0.0009
     82  CE1       26.9210   10.9130   21.2710 C.ar  116  TYR116      0.0417
     83  CE2       26.0580    8.7060   21.8990 C.ar  116  TYR116      0.0417
     84  CZ        26.9910    9.4760   21.2300 C.ar  116  TYR116      0.1957
     85  OH        27.9740    8.7960   20.5370 O.3   116  TYR116     -0.2866
     86  N         20.0250   10.3140   19.4390 N.3   119  HIS119     -0.1241
     87  CA        20.2490    8.8650   19.3600 C.3   119  HIS119      0.1621
     88  C         19.3250    8.0870   20.3470 C.2   119  HIS119      0.2264
     89  O         18.7610    7.0650   19.9980 O.2   119  HIS119     -0.2867
     90  CB        21.7110    8.5630   19.5730 C.3   119  HIS119      0.0745
     91  CG        22.5920    9.0810   18.4810 C.ar  119  HIS119      0.0817
     92  ND1       22.3910    8.7550   17.1570 N.ar  119  HIS119     -0.2268
     93  CD2       23.6960    9.8710   18.5120 C.ar  119  HIS119      0.1154
     94  CE1       23.3240    9.3300   16.4180 C.ar  119  HIS119      0.1986
     95  NE2       24.1370   10.0050   17.2160 N.ar  119  HIS119     -0.2212
     96  N         16.7260    5.3850   19.3630 N.3   123  GLY123     -0.1225
     97  CA        16.9390    4.0500   19.9160 C.3   123  GLY123      0.1811
     98  C         15.6080    3.4470   20.3380 C.2   123  GLY123      0.2280
     99  O         15.3630    2.2590   20.1410 O.2   123  GLY123     -0.2866
    100  N         15.3970    0.6010   17.2810 N.3   127  TRP127     -0.1241
    101  CA        16.5330   -0.2000   17.7220 C.3   127  TRP127      0.1605
    102  C         16.1330   -1.1080   18.8550 C.2   127  TRP127      0.2264
    103  O         16.9600   -1.8550   19.3790 O.2   127  TRP127     -0.2867
    104  CB        17.6880    0.7080   18.1910 C.3   127  TRP127      0.0550
    105  CG        18.3720    1.3730   17.0940 C.ar  127  TRP127      0.0003
    106  CD1       18.1750    2.6420   16.6750 C.ar  127  TRP127      0.0946
    107  CD2       19.3410    0.7970   16.2170 C.ar  127  TRP127      0.0152
    108  NE1       18.9700    2.9120   15.5950 N.ar  127  TRP127     -0.2442
    109  CE2       19.6990    1.7930   15.2910 C.ar  127  TRP127      0.0810
    110  CE3       19.9300   -0.4790   16.1110 C.ar  127  TRP127      0.0012
    111  CZ2       20.6290    1.5760   14.2840 C.ar  127  TRP127      0.0191
    112  CZ3       20.8570   -0.6970   15.1050 C.ar  127  TRP127      0.0001
    113  CH2       21.2080    0.3320   14.2110 C.ar  127  TRP127      0.0015
    114  N         16.8850   -4.9370   19.8310 N.3   130  TYR130     -0.1241
    115  CA        18.1440   -5.3520   20.4510 C.3   130  TYR130      0.1605
    116  C         18.1230   -5.2760   21.9650 C.2   130  TYR130      0.2264
    117  O         19.0780   -5.6740   22.6070 O.2   130  TYR130     -0.2867
    118  CB        19.2970   -4.4960   19.9480 C.3   130  TYR130      0.0534
    119  CG        19.6480   -4.6720   18.4980 C.ar  130  TYR130     -0.0201
    120  CD1       20.4710   -5.7220   18.0970 C.ar  130  TYR130     -0.0009
    121  CD2       19.1780   -3.7920   17.5350 C.ar  130  TYR130     -0.0009
    122  CE1       20.7970   -5.9020   16.7700 C.ar  130  TYR130      0.0417
    123  CE2       19.5000   -3.9600   16.2080 C.ar  130  TYR130      0.0417
    124  CZ        20.3120   -5.0150   15.8240 C.ar  130  TYR130      0.1957
    125  OH        20.6430   -5.2050   14.4960 O.3   130  TYR130     -0.2866
    126  N         16.2150    0.5950   27.6130 N.3   140  TYR140     -0.1227
    127  CA        17.2930    0.0740   26.8150 C.3   140  TYR140      0.1736
    128  C         18.0230    1.2310   26.1610 C.2   140  TYR140      0.2596
    129  O         19.2240    1.3580   26.3080 O.2   140  TYR140     -0.2718
    130  CB        16.7920   -0.8890   25.7510 C.3   140  TYR140      0.0548
    131  CG        17.8940   -1.4010   24.8700 C.ar  140  TYR140     -0.0200
    132  CD1       19.0390   -2.0020   25.4080 C.ar  140  TYR140     -0.0009
    133  CD2       17.7990   -1.3070   23.4930 C.ar  140  TYR140     -0.0009
    134  CE1       20.0520   -2.4860   24.5770 C.ar  140  TYR140      0.0417
    135  CE2       18.8010   -1.8090   22.6590 C.ar  140  TYR140      0.0417
    136  CZ        19.9150   -2.3860   23.2010 C.ar  140  TYR140      0.1957
    137  OH        20.8960   -2.8340   22.3530 O.3   140  TYR140     -0.2866
    138  N         17.2820    2.0550   25.4300 N.am  141  SER141     -0.1952
    139  CA        17.8690    3.2080   24.7440 C.3   141  SER141      0.1924
    140  C         18.5530    4.2020   25.7160 C.2   141  SER141      0.2314
    141  O         19.6740    4.5990   25.4860 O.2   141  SER141     -0.2863
    142  CB        16.8280    3.9140   23.8860 C.3   141  SER141      0.2116
    143  OG        17.4800    4.8610   23.0640 O.3   141  SER141     -0.2180
    144  N         21.9550    2.4500   26.5840 N.3   144  VAL144     -0.1231
    145  CA        22.9430    2.4230   25.5200 C.3   144  VAL144      0.1692
    146  C         23.4320    3.8300   25.2160 C.2   144  VAL144      0.2592
    147  O         24.6340    4.0980   25.1760 O.2   144  VAL144     -0.2718
    148  CB        22.3620    1.7640   24.2840 C.3   144  VAL144      0.0266
    149  CG1       23.2600    1.9310   23.0680 C.3   144  VAL144      0.0020
    150  CG2       22.1200    0.2820   24.5810 C.3   144  VAL144      0.0020
    151  N         22.4790    4.7390   25.0540 N.am  145  ASN145     -0.1974
    152  CA        22.8050    6.0580   24.5930 C.3   145  ASN145      0.1688
    153  C         23.3170    6.9510   25.7500 C.2   145  ASN145      0.2292
    154  O         24.2810    7.7490   25.5980 O.2   145  ASN145     -0.2864
    155  CB        21.6380    6.6440   23.8080 C.3   145  ASN145      0.1181
    156  CG        21.4620    5.9500   22.4980 C.2   145  ASN145      0.2629
    157  OD1       22.4000    5.8720   21.7110 O.2   145  ASN145     -0.2716
    158  ND2       20.2790    5.3780   22.2710 N.am  145  ASN145     -0.0877
    159  N         26.9890    5.6180   26.1900 N.3   148  SER148     -0.1217
    160  CA        27.8750    6.0710   25.1230 C.3   148  SER148      0.1889
    161  C         28.0920    7.6040   25.2150 C.2   148  SER148      0.2288
    162  O         29.1960    8.0860   25.0150 O.2   148  SER148     -0.2866
    163  CB        27.3430    5.6850   23.7360 C.3   148  SER148      0.2089
    164  OG        27.1960    4.2770   23.5700 O.3   148  SER148     -0.2183
@<TRIPOS>BOND
     1    56    55    2
     2    57    58    1
     3    57    54    1
     4    34    35    2
     5    34    33    1
     6    55    54    1
     7    32    33    1
     8    33    36    1
     9    58    60   ar
    10    58    59   ar
    11    54    53    1
    12    60    62   ar
    13    59    61   ar
    14    62    63   ar
    15    61    63   ar
    16    53    46   am
    17    63    64    1
    18    36    37    1
    19    38    37   ar
    20    38    40   ar
    21    37    39   ar
    22    46    47    2
    23    46    45    1
    24    40    42   ar
    25    44    45    1
    26    39    41   ar
    27    45    48    1
    28    42    41   ar
    29    42    43    1
    30    48    49    1
    31   113   111   ar
    32   113   112   ar
    33   111   109   ar
    34    49    50    1
    35   125   124    1
    36    52    50   ar
    37   112   110   ar
    38    50    51   ar
    39   109   108   ar
    40   109   107   ar
    41   108   106   ar
    42    14    13   ar
    43    14    12   ar
    44   124   123   ar
    45   124   122   ar
    46    31    29   ar
    47   110   107   ar
    48   123   121   ar
    49   107   105   ar
    50    94    92   ar
    51    94    95   ar
    52    13    11   ar
    53    12    10   ar
    54    72    73    1
    55    72    71    1
    56   106   105   ar
    57   122   120   ar
    58   105   104    1
    59    92    91   ar
    60    95    93   ar
    61    29    28    1
    62    29    30   ar
    63   100   101    1
    64   121   119   ar
    65   101   104    1
    66   101   102    1
    67    28    27    1
    68    71    70    1
    69    11     8   ar
    70    10     8   ar
    71    10     9   ar
    72   120   119   ar
    73    70    69    1
    74    91    93   ar
    75    91    90    1
    76   119   118    1
    77     8     6   ar
    78     9     7   ar
    79   102   103    2
    80    22    20    1
    81    27    24    1
    82    87    86    1
    83    87    90    1
    84    87    88    1
    85    96    97    1
    86    26    25    2
    87    69    66    1
    88    25    24    1
    89    21    19    1
    90    24    23    1
    91    68    67    2
    92   114   115    1
    93    66    67    1
    94    66    65    1
    95    97    98    1
    96     6     7   ar
    97     6     5    1
    98   118   115    1
    99    89    88    2
   100    99    98    2
   101    19    20    1
   102    19    16    1
   103    67    74   am
   104   115   116    1
   105    85    84    1
   106     5     2    1
   107     2     3    1
   108     2     1    1
   109    84    82   ar
   110    84    83   ar
   111    82    80   ar
   112     4     3    2
   113    74    75    1
   114   157   156    2
   115    16    17    1
   116    16    15    1
   117    83    81   ar
   118   116   117    2
   119    80    79   ar
   120   158   156   am
   121    75    76    1
   122    75    78    1
   123   137   136    1
   124    17    18    2
   125   156   155    1
   126    81    79   ar
   127   135   136   ar
   128   135   133   ar
   129    79    78    1
   130    76    77    2
   131   143   142    1
   132   149   148    1
   133   136   134   ar
   134   133   131   ar
   135   164   163    1
   136   163   160    1
   137   155   152    1
   138   142   139    1
   139   148   150    1
   140   148   145    1
   141   134   132   ar
   142   152   151    1
   143   152   153    1
   144   139   138    1
   145   139   140    1
   146   131   132   ar
   147   131   130    1
   148   162   161    2
   149   151   146   am
   150   160   161    1
   151   160   159    1
   152   147   146    2
   153   146   145    1
   154   138   128   am
   155   141   140    2
   156   145   144    1
   157   154   153    2
   158   130   127    1
   159   128   129    2
   160   128   127    1
   161   127   126    1
