@<TRIPOS>MOLECULE
tmp/4n4eA00.pdb
 190 186 0 0 0
SMALL
GASTEIGER

@<TRIPOS>ATOM
      1  N         13.8910  -46.6200   -1.0760 N.3   111  ASN111     -0.1225
      2  CA        12.6790  -45.8320   -1.2950 C.3   111  ASN111      0.1785
      3  C         12.4200  -44.8280   -0.1730 C.2   111  ASN111      0.2597
      4  O         11.3460  -44.8070    0.4350 O.2   111  ASN111     -0.2718
      5  CB        11.4740  -46.7680   -1.4470 C.3   111  ASN111      0.1169
      6  CG        11.4700  -47.4980   -2.7600 C.2   111  ASN111      0.2627
      7  OD1       11.8110  -46.9360   -3.8020 O.2   111  ASN111     -0.2716
      8  ND2       11.0590  -48.7640   -2.7280 N.am  111  ASN111     -0.0877
      9  N         13.4020  -43.9770    0.1060 N.am  112  ASN112     -0.1960
     10  CA        13.2460  -42.9800    1.1560 C.3   112  ASN112      0.1819
     11  C         14.3820  -41.9740    1.0920 C.2   112  ASN112      0.2621
     12  O         15.3450  -42.1270    0.3230 O.2   112  ASN112     -0.2715
     13  CB        13.1790  -43.6300    2.5510 C.3   112  ASN112      0.1195
     14  CG        12.1380  -42.9900    3.4590 C.2   112  ASN112      0.2630
     15  OD1       11.8340  -41.8020    3.3460 O.2   112  ASN112     -0.2716
     16  ND2       11.5890  -43.7850    4.3750 N.am  112  ASN112     -0.0877
     17  N         14.2470  -40.9410    1.9130 N.am  113  ALA113     -0.1963
     18  CA        15.2650  -39.9180    2.1030 C.3   113  ALA113      0.1728
     19  C         15.0990  -39.4600    3.5420 C.2   113  ALA113      0.2616
     20  O         14.0040  -39.5870    4.1060 O.2   113  ALA113     -0.2715
     21  CB        15.0710  -38.7650    1.1310 C.3   113  ALA113      0.0334
     22  N         16.1580  -38.9400    4.1560 N.am  114  PHE114     -0.1960
     23  CA        16.0710  -38.5760    5.5680 C.3   114  PHE114      0.1771
     24  C         17.1630  -37.6070    5.9860 C.2   114  PHE114      0.2619
     25  O         18.1560  -37.4180    5.2740 O.2   114  PHE114     -0.2715
     26  CB        16.0730  -39.8200    6.4860 C.3   114  PHE114      0.0574
     27  CG        17.2810  -40.7340    6.3320 C.ar  114  PHE114     -0.0200
     28  CD1       17.3420  -41.6800    5.3080 C.ar  114  PHE114     -0.0042
     29  CD2       18.3190  -40.6890    7.2590 C.ar  114  PHE114     -0.0042
     30  CE1       18.4130  -42.5460    5.2010 C.ar  114  PHE114     -0.0003
     31  CE2       19.4040  -41.5510    7.1510 C.ar  114  PHE114     -0.0003
     32  CZ        19.4460  -42.4790    6.1200 C.ar  114  PHE114     -0.0000
     33  N         16.9370  -36.9740    7.1320 N.am  115  TRP115     -0.1974
     34  CA        17.9670  -36.2270    7.8390 C.3   115  TRP115      0.1640
     35  C         18.4520  -37.1360    8.9660 C.2   115  TRP115      0.2290
     36  O         17.6510  -37.6120    9.7670 O.2   115  TRP115     -0.2864
     37  CB        17.3680  -34.9290    8.3870 C.3   115  TRP115      0.0576
     38  CG        18.2720  -34.1660    9.3020 C.ar  115  TRP115      0.0006
     39  CD1       18.2580  -34.1780   10.6610 C.ar  115  TRP115      0.0946
     40  CD2       19.3460  -33.2940    8.9230 C.ar  115  TRP115      0.0152
     41  NE1       19.2470  -33.3490   11.1520 N.ar  115  TRP115     -0.2442
     42  CE2       19.9340  -32.8060   10.1020 C.ar  115  TRP115      0.0810
     43  CE3       19.8480  -32.8610    7.6930 C.ar  115  TRP115      0.0012
     44  CZ2       21.0090  -31.9090   10.0870 C.ar  115  TRP115      0.0191
     45  CZ3       20.9040  -31.9700    7.6760 C.ar  115  TRP115      0.0001
     46  CH2       21.4780  -31.5100    8.8640 C.ar  115  TRP115      0.0015
     47  N          8.4570  -47.5580   -6.9460 N.3   129  THR129     -0.1203
     48  CA         7.8390  -46.6450   -5.9890 C.3   129  THR129      0.1994
     49  C          8.4470  -45.2430   -6.0980 C.2   129  THR129      0.2617
     50  O          7.7220  -44.2500   -6.0580 O.2   129  THR129     -0.2717
     51  CB         7.9230  -47.1790   -4.5420 C.3   129  THR129      0.1784
     52  OG1        7.1710  -48.3930   -4.4440 O.3   129  THR129     -0.2211
     53  CG2        7.3430  -46.1780   -3.5600 C.3   129  THR129      0.0376
     54  N          9.7690  -45.1650   -6.2440 N.am  130  PHE130     -0.1975
     55  CA        10.4510  -43.8850   -6.4100 C.3   130  PHE130      0.1639
     56  C         11.5390  -43.9880   -7.4600 C.2   130  PHE130      0.2290
     57  O         12.1270  -45.0550   -7.6610 O.2   130  PHE130     -0.2864
     58  CB        11.1630  -43.4430   -5.1210 C.3   130  PHE130      0.0560
     59  CG        10.2590  -42.9360   -4.0320 C.ar  130  PHE130     -0.0200
     60  CD1        9.7220  -41.6540   -4.0870 C.ar  130  PHE130     -0.0042
     61  CD2        9.9990  -43.7150   -2.9210 C.ar  130  PHE130     -0.0042
     62  CE1        8.9150  -41.1810   -3.0650 C.ar  130  PHE130     -0.0003
     63  CE2        9.1960  -43.2550   -1.9010 C.ar  130  PHE130     -0.0003
     64  CZ         8.6510  -41.9870   -1.9730 C.ar  130  PHE130     -0.0000
     65  N         15.3490  -39.6330   -5.1460 N.3   133  LEU133     -0.1245
     66  CA        14.4040  -38.7780   -4.4440 C.3   133  LEU133      0.1561
     67  C         14.8000  -37.3100   -4.4210 C.2   133  LEU133      0.2260
     68  O         13.9400  -36.4450   -4.2230 O.2   133  LEU133     -0.2867
     69  CB        14.1100  -39.2950   -3.0360 C.3   133  LEU133      0.0270
     70  CG        13.1730  -40.5090   -2.9650 C.3   133  LEU133      0.0019
     71  CD1       13.9000  -41.8190   -3.2000 C.3   133  LEU133      0.0001
     72  CD2       12.4400  -40.5370   -1.6380 C.3   133  LEU133      0.0001
     73  N         10.8680  -32.5300   -1.8490 N.3   139  VAL139     -0.1245
     74  CA        11.5280  -33.5540   -1.0480 C.3   139  VAL139      0.1561
     75  C         12.8080  -33.0020   -0.4110 C.2   139  VAL139      0.2260
     76  O         13.0370  -33.1590    0.7910 O.2   139  VAL139     -0.2867
     77  CB        11.8540  -34.8060   -1.8900 C.3   139  VAL139      0.0252
     78  CG1       12.6270  -35.8220   -1.0460 C.3   139  VAL139      0.0019
     79  CG2       10.5710  -35.4120   -2.4460 C.3   139  VAL139      0.0019
     80  N         11.8540  -30.5980    2.2100 N.3   142  HIS142     -0.1226
     81  CA        11.3090  -31.3680    3.3230 C.3   142  HIS142      0.1752
     82  C         12.4520  -31.8680    4.2220 C.2   142  HIS142      0.2595
     83  O         12.4010  -31.7390    5.4590 O.2   142  HIS142     -0.2718
     84  CB        10.4650  -32.5340    2.7680 C.3   142  HIS142      0.0759
     85  CG         9.9170  -33.4730    3.8110 C.ar  142  HIS142      0.0818
     86  ND1        8.5690  -33.5840    4.0750 N.ar  142  HIS142     -0.2268
     87  CD2       10.5290  -34.3670    4.6270 C.ar  142  HIS142      0.1154
     88  CE1        8.3780  -34.4870    5.0210 C.ar  142  HIS142      0.1986
     89  NE2        9.5520  -34.9820    5.3740 N.ar  142  HIS142     -0.2212
     90  N         13.4930  -32.4290    3.6100 N.am  143  GLU143     -0.1979
     91  CA        14.6040  -32.9630    4.3930 C.3   143  GLU143      0.1602
     92  C         15.3690  -31.8620    5.1410 C.2   143  GLU143      0.2287
     93  O         15.6790  -32.0040    6.3340 O.2   143  GLU143     -0.2864
     94  CB        15.5670  -33.7930    3.5300 C.3   143  GLU143      0.0415
     95  CG        14.9220  -34.9220    2.7130 C.3   143  GLU143      0.1163
     96  CD        13.9990  -35.8340    3.5010 C.2   143  GLU143      0.3649
     97  OE1       14.1820  -35.9500    4.7330 O.co2 143  GLU143     -0.2457
     98  OE2       13.0940  -36.4280    2.8810 O.co2 143  GLU143     -0.2457
     99  N         13.6810  -30.6560    8.2260 N.3   146  HIS146     -0.1241
    100  CA        13.8720  -31.4560    9.4310 C.3   146  HIS146      0.1621
    101  C         15.0410  -30.9190   10.2630 C.2   146  HIS146      0.2264
    102  O         14.9710  -30.8890   11.4950 O.2   146  HIS146     -0.2867
    103  CB        14.0920  -32.9370    9.1060 C.3   146  HIS146      0.0745
    104  CG        12.8260  -33.6930    8.8300 C.ar  146  HIS146      0.0817
    105  ND1       11.7730  -33.7180    9.7170 N.ar  146  HIS146     -0.2268
    106  CD2       12.4590  -34.4800    7.7860 C.ar  146  HIS146      0.1154
    107  CE1       10.8060  -34.4770    9.2240 C.ar  146  HIS146      0.1986
    108  NE2       11.1970  -34.9620    8.0570 N.ar  146  HIS146     -0.2212
    109  N         10.0480  -36.9790   17.4620 N.3   157  TYR157     -0.1241
    110  CA         9.5700  -37.6360   16.2470 C.3   157  TYR157      0.1605
    111  C          8.6480  -38.8280   16.5180 C.2   157  TYR157      0.2264
    112  O          8.8870  -39.9500   16.0690 O.2   157  TYR157     -0.2867
    113  CB        10.7450  -38.0460   15.3630 C.3   157  TYR157      0.0534
    114  CG        10.4000  -38.2090   13.8980 C.ar  157  TYR157     -0.0201
    115  CD1        9.9620  -37.1270   13.1370 C.ar  157  TYR157     -0.0009
    116  CD2       10.5510  -39.4350   13.2590 C.ar  157  TYR157     -0.0009
    117  CE1        9.6830  -37.2650   11.7860 C.ar  157  TYR157      0.0417
    118  CE2       10.2680  -39.5820   11.9090 C.ar  157  TYR157      0.0417
    119  CZ         9.8410  -38.4980   11.1820 C.ar  157  TYR157      0.1957
    120  OH         9.5740  -38.6600    9.8440 O.3   157  TYR157     -0.2866
    121  N          6.5330  -33.6140   10.8640 N.3   166  GLU166     -0.1245
    122  CA         6.3060  -33.9950    9.4730 C.3   166  GLU166      0.1567
    123  C          5.5800  -32.9180    8.6700 C.2   166  GLU166      0.2260
    124  O          5.9940  -32.5900    7.5490 O.2   166  GLU166     -0.2867
    125  CB         5.5350  -35.3160    9.3930 C.3   166  GLU166      0.0388
    126  CG         6.4440  -36.5200    9.3720 C.3   166  GLU166      0.1160
    127  CD         7.4120  -36.4280    8.2070 C.2   166  GLU166      0.3649
    128  OE1        6.9500  -36.2830    7.0490 O.co2 166  GLU166     -0.2457
    129  OE2        8.6440  -36.4580    8.4540 O.co2 166  GLU166     -0.2457
    130  N          2.9100  -33.7070   -2.3810 N.3   188  ILE188     -0.1231
    131  CA         4.2600  -34.0030   -1.9030 C.3   188  ILE188      0.1692
    132  C          4.8860  -35.1440   -2.6980 C.2   188  ILE188      0.2592
    133  O          4.3440  -36.2570   -2.7440 O.2   188  ILE188     -0.2718
    134  CB         4.2700  -34.3900   -0.4030 C.3   188  ILE188      0.0266
    135  CG1        3.6100  -33.3020    0.4570 C.3   188  ILE188      0.0019
    136  CG2        5.6910  -34.7090    0.0640 C.3   188  ILE188      0.0020
    137  CD1        4.2660  -31.9500    0.3950 C.3   188  ILE188      0.0001
    138  N          6.0210  -34.8680   -3.3400 N.am  189  GLY189     -0.1957
    139  CA         6.8220  -35.9150   -3.9550 C.3   189  GLY189      0.1869
    140  C          6.4030  -36.3570   -5.3460 C.2   189  GLY189      0.2309
    141  O          6.9430  -37.3350   -5.8720 O.2   189  GLY189     -0.2863
    142  N          7.7510  -39.8030   -7.4150 N.3   193  TYR193     -0.1241
    143  CA         6.9330  -40.9220   -6.9640 C.3   193  TYR193      0.1605
    144  C          6.3240  -41.6690   -8.1440 C.2   193  TYR193      0.2264
    145  O          5.8150  -41.0440   -9.0730 O.2   193  TYR193     -0.2867
    146  CB         5.8160  -40.3810   -6.0750 C.3   193  TYR193      0.0534
    147  CG         5.0020  -41.4060   -5.3200 C.ar  193  TYR193     -0.0201
    148  CD1        5.5880  -42.2110   -4.3500 C.ar  193  TYR193     -0.0009
    149  CD2        3.6340  -41.5310   -5.5410 C.ar  193  TYR193     -0.0009
    150  CE1        4.8380  -43.1230   -3.6300 C.ar  193  TYR193      0.0417
    151  CE2        2.8780  -42.4380   -4.8310 C.ar  193  TYR193      0.0417
    152  CZ         3.4820  -43.2280   -3.8770 C.ar  193  TYR193      0.1957
    153  OH         2.7200  -44.1280   -3.1750 O.3   193  TYR193     -0.2866
    154  N          2.9130  -38.8260   -3.1800 N.3   202  LEU202     -0.1231
    155  CA         3.0440  -39.5590   -1.9380 C.3   202  LEU202      0.1693
    156  C          2.0150  -39.1020   -0.9060 C.2   202  LEU202      0.2591
    157  O          1.3950  -39.9300   -0.2390 O.2   202  LEU202     -0.2718
    158  CB         4.4560  -39.3840   -1.3970 C.3   202  LEU202      0.0284
    159  CG         4.7410  -40.0380   -0.0520 C.3   202  LEU202      0.0019
    160  CD1        4.6140  -41.5590   -0.1250 C.3   202  LEU202      0.0001
    161  CD2        6.1290  -39.6310    0.4350 C.3   202  LEU202      0.0001
    162  N          1.8670  -37.7860   -0.7610 N.am  203  ARG203     -0.1980
    163  CA         0.8420  -37.1820    0.0790 C.3   203  ARG203      0.1597
    164  C          0.2200  -36.0210   -0.6720 C.2   203  ARG203      0.2287
    165  O          0.8210  -35.4760   -1.6050 O.2   203  ARG203     -0.2864
    166  CB         1.4250  -36.6440    1.3880 C.3   203  ARG203      0.0334
    167  CG         1.8660  -37.7120    2.3590 C.3   203  ARG203      0.0492
    168  CD         2.4710  -37.1130    3.6050 C.3   203  ARG203      0.2205
    169  NE         3.7880  -36.5100    3.4390 N.pl3 203  ARG203     -0.0865
    170  CZ         4.9310  -37.1830    3.4780 C.cat 203  ARG203      0.5346
    171  NH1        4.9310  -38.5110    3.5760 N.pl3 203  ARG203      0.1354
    172  NH2        6.0830  -36.5200    3.4100 N.pl3 203  ARG203      0.1354
    173  N          4.8320  -46.4800   12.1960 N.3   226  ASP226     -0.1239
    174  CA         5.3160  -45.1950   11.6860 C.3   226  ASP226      0.1674
    175  C          5.4850  -44.1760   12.8170 C.2   226  ASP226      0.2266
    176  O          5.0800  -43.0190   12.6930 O.2   226  ASP226     -0.2867
    177  CB         4.3460  -44.7010   10.5960 C.3   226  ASP226      0.1410
    178  CG         4.7880  -43.4060    9.9150 C.2   226  ASP226      0.3668
    179  OD1        6.0090  -43.1870    9.7240 O.co2 226  ASP226     -0.2456
    180  OD2        3.8860  -42.6160    9.5540 O.co2 226  ASP226     -0.2456
    181  N          3.7560  -39.7970    9.4960 N.3   231  HIS231     -0.1241
    182  CA         3.5380  -39.5000    8.0750 C.3   231  HIS231      0.1621
    183  C          2.0680  -39.6400    7.6720 C.2   231  HIS231      0.2264
    184  O          1.7210  -39.4790    6.4930 O.2   231  HIS231     -0.2867
    185  CB         4.3820  -40.4190    7.1820 C.3   231  HIS231      0.0745
    186  CG         5.8530  -40.2370    7.3470 C.ar  231  HIS231      0.0817
    187  ND1        6.6200  -41.0500    8.1560 N.ar  231  HIS231     -0.2268
    188  CD2        6.7040  -39.3370    6.8020 C.ar  231  HIS231      0.1154
    189  CE1        7.8800  -40.6480    8.1110 C.ar  231  HIS231      0.1986
    190  NE2        7.9580  -39.6110    7.2950 N.ar  231  HIS231     -0.2212
@<TRIPOS>BOND
     1   145   144    2
     2   144   143    1
     3    57    56    2
     4    56    55    1
     5   142   143    1
     6   143   146    1
     7    47    48    1
     8    55    54    1
     9    55    58    1
    10    54    49   am
    11    49    50    2
    12    49    48    1
    13   146   147    1
    14    48    51    1
    15   141   140    2
    16   149   147   ar
    17   149   151   ar
    18   140   139    1
    19   147   148   ar
    20    65    66    1
    21    58    59    1
    22   151   152   ar
    23    51    52    1
    24    51    53    1
    25    66    67    1
    26    66    69    1
    27    67    68    2
    28   148   150   ar
    29    60    59   ar
    30    60    62   ar
    31    59    61   ar
    32   139   138    1
    33   152   150   ar
    34   152   153    1
    35     7     6    2
    36   138   132   am
    37    71    70    1
    38   154   155    1
    39    62    64   ar
    40    69    70    1
    41    70    72    1
    42    61    63   ar
    43     6     8   am
    44     6     5    1
    45   133   132    2
    46   132   131    1
    47    79    77    1
    48   130   131    1
    49    64    63   ar
    50   155   158    1
    51   155   156    1
    52   131   134    1
    53    77    74    1
    54    77    78    1
    55    73    74    1
    56   165   164    2
    57     5     2    1
    58   158   159    1
    59     2     1    1
    60     2     3    1
    61    74    75    1
    62   156   162   am
    63   156   157    2
    64   162   163    1
    65   164   163    1
    66    75    76    2
    67   134   136    1
    68   134   135    1
    69     3     9   am
    70     3     4    2
    71   160   159    1
    72   159   161    1
    73   163   166    1
    74     9    10    1
    75    12    11    2
    76   137   135    1
    77    11    10    1
    78    11    17   am
    79    21    18    1
    80    10    13    1
    81   166   167    1
    82    17    18    1
    83    18    19    1
    84    80    81    1
    85   167   168    1
    86    13    14    1
    87    95    96    1
    88    95    94    1
    89    84    81    1
    90    84    85    1
    91    98    96   ar
    92    81    82    1
    93    15    14    2
    94   172   170    1
    95   169   170    2
    96   169   168    1
    97    14    16   am
    98   170   171    1
    99    96    97   ar
   100    94    91    1
   101    19    20    2
   102    19    22   am
   103    90    82   am
   104    90    91    1
   105    85    86   ar
   106    85    87   ar
   107    86    88   ar
   108    22    23    1
   109    82    83    2
   110    91    92    1
   111    87    89   ar
   112    88    89   ar
   113    92    93    2
   114    30    28   ar
   115    30    32   ar
   116    25    24    2
   117    28    27   ar
   118    23    24    1
   119    23    26    1
   120    24    33   am
   121    32    31   ar
   122    27    26    1
   123    27    29   ar
   124   184   183    2
   125   188   190   ar
   126   188   186   ar
   127   128   127   ar
   128    33    34    1
   129    31    29   ar
   130   185   186    1
   131   185   182    1
   132   190   189   ar
   133   186   187   ar
   134   124   123    2
   135   183   182    1
   136    45    43   ar
   137    45    46   ar
   138    43    40   ar
   139   106   108   ar
   140   106   104   ar
   141    34    37    1
   142    34    35    1
   143   108   107   ar
   144   182   181    1
   145   189   187   ar
   146   127   129   ar
   147   127   126    1
   148    99   100    1
   149    37    38    1
   150   123   122    1
   151   104   103    1
   152   104   105   ar
   153    46    44   ar
   154    40    38   ar
   155    40    42   ar
   156    35    36    2
   157   103   100    1
   158   107   105   ar
   159    38    39   ar
   160   126   125    1
   161   125   122    1
   162   100   101    1
   163   122   121    1
   164   180   178   ar
   165   179   178   ar
   166   120   119    1
   167   178   177    1
   168    44    42   ar
   169    42    41   ar
   170   101   102    2
   171   177   174    1
   172    39    41   ar
   173   119   117   ar
   174   119   118   ar
   175   174   173    1
   176   174   175    1
   177   117   115   ar
   178   118   116   ar
   179   176   175    2
   180   115   114   ar
   181   116   114   ar
   182   114   113    1
   183   113   110    1
   184   112   111    2
   185   110   111    1
   186   110   109    1
