@<TRIPOS>MOLECULE
tmp/4n4iA01.pdb
 101 92 0 0 0
SMALL
GASTEIGER

@<TRIPOS>ATOM
      1  N         -4.1950  -29.0000   30.5870 N.3    13  VAL13      -0.1245
      2  CA        -4.7600  -29.5150   31.8450 C.3    13  VAL13       0.1561
      3  C         -4.3040  -28.6930   33.0380 C.2    13  VAL13       0.2260
      4  O         -5.1110  -28.2550   33.8590 O.2    13  VAL13      -0.2867
      5  CB        -4.3780  -30.9880   32.0590 C.3    13  VAL13       0.0252
      6  CG1       -4.7040  -31.4240   33.4730 C.3    13  VAL13       0.0019
      7  CG2       -5.0850  -31.8550   31.0420 C.3    13  VAL13       0.0019
      8  N         -5.9110  -25.3350   33.0450 N.3    16  MET16      -0.1245
      9  CA        -7.3280  -25.3840   33.3660 C.3    16  MET16       0.1570
     10  C         -7.5470  -25.6990   34.8440 C.2    16  MET16       0.2261
     11  O         -8.5780  -25.3550   35.4190 O.2    16  MET16      -0.2867
     12  CB        -8.0680  -26.3550   32.4390 C.3    16  MET16       0.0387
     13  CG        -8.0610  -25.9120   30.9610 C.3    16  MET16       0.0595
     14  SD        -8.7430  -24.2430   30.7100 S.3    16  MET16      -0.1393
     15  CE        -7.8140  -23.6540   29.3000 C.3    16  MET16       0.0692
     16  N        -11.5920  -35.3090   36.7080 N.3    26  VAL26      -0.1245
     17  CA       -10.4110  -34.4730   36.4710 C.3    26  VAL26       0.1561
     18  C         -9.0780  -35.2400   36.6560 C.2    26  VAL26       0.2260
     19  O         -8.2510  -35.2300   35.7450 O.2    26  VAL26      -0.2867
     20  CB       -10.4400  -33.1300   37.2530 C.3    26  VAL26       0.0252
     21  CG1       -9.3500  -32.1990   36.7410 C.3    26  VAL26       0.0019
     22  CG2      -11.8080  -32.4820   37.1490 C.3    26  VAL26       0.0019
     23  N         -8.6390  -37.4770   33.4390 N.3    29  ILE29      -0.1245
     24  CA        -8.0360  -36.7590   32.3240 C.3    29  ILE29       0.1561
     25  C         -6.5890  -36.4570   32.6920 C.2    29  ILE29       0.2260
     26  O         -5.6710  -36.6780   31.9000 O.2    29  ILE29      -0.2867
     27  CB        -8.7880  -35.4420   32.0070 C.3    29  ILE29       0.0252
     28  CG1      -10.1900  -35.7350   31.4660 C.3    29  ILE29       0.0019
     29  CG2       -8.0000  -34.6000   31.0060 C.3    29  ILE29       0.0019
     30  CD1      -11.0000  -34.4790   31.1230 C.3    29  ILE29       0.0001
     31  N         -9.3510  -35.8750   23.2580 N.3    44  PHE44      -0.1241
     32  CA        -9.1910  -35.0600   24.4460 C.3    44  PHE44       0.1605
     33  C        -10.3890  -34.1250   24.5810 C.2    44  PHE44       0.2264
     34  O        -10.9550  -33.9710   25.6650 O.2    44  PHE44      -0.2867
     35  CB        -7.8820  -34.2790   24.3720 C.3    44  PHE44       0.0534
     36  CG        -7.6950  -33.3080   25.4890 C.ar   44  PHE44      -0.0203
     37  CD1       -7.2350  -33.7300   26.7150 C.ar   44  PHE44      -0.0042
     38  CD2       -7.9730  -31.9630   25.3040 C.ar   44  PHE44      -0.0042
     39  CE1       -7.0640  -32.8420   27.7460 C.ar   44  PHE44      -0.0003
     40  CE2       -7.8080  -31.0690   26.3260 C.ar   44  PHE44      -0.0003
     41  CZ        -7.3480  -31.5030   27.5550 C.ar   44  PHE44      -0.0000
     42  N        -13.2450  -33.6890   27.6150 N.3    48  ALA48      -0.1245
     43  CA       -13.5320  -32.4190   28.2730 C.3    48  ALA48       0.1562
     44  C        -15.0220  -32.1300   28.1740 C.2    48  ALA48       0.2260
     45  O        -15.6290  -31.5790   29.0880 O.2    48  ALA48      -0.2867
     46  CB       -12.7420  -31.2990   27.6420 C.3    48  ALA48       0.0290
     47  N        -16.9460  -34.4240   30.6730 N.3    51  LEU51      -0.1231
     48  CA       -16.7360  -33.8910   32.0020 C.3    51  LEU51       0.1693
     49  C        -17.6180  -32.6740   32.2660 C.2    51  LEU51       0.2591
     50  O        -18.1840  -32.5130   33.3530 O.2    51  LEU51      -0.2718
     51  CB       -15.2740  -33.5060   32.1570 C.3    51  LEU51       0.0284
     52  CG       -14.9090  -32.9370   33.5170 C.3    51  LEU51       0.0019
     53  CD1      -15.3210  -33.9370   34.5970 C.3    51  LEU51       0.0001
     54  CD2      -13.4290  -32.6510   33.5640 C.3    51  LEU51       0.0001
     55  N        -17.7070  -31.8040   31.2710 N.am   52  LEU52      -0.1980
     56  CA       -18.5680  -30.6460   31.3500 C.3    52  LEU52       0.1596
     57  C        -20.0090  -31.0840   31.6070 C.2    52  LEU52       0.2287
     58  O        -20.6930  -30.5310   32.4780 O.2    52  LEU52      -0.2864
     59  CB       -18.4960  -29.8740   30.0380 C.3    52  LEU52       0.0297
     60  CG       -19.5950  -28.8610   29.7650 C.3    52  LEU52       0.0022
     61  CD1      -19.6770  -27.8100   30.8680 C.3    52  LEU52       0.0001
     62  CD2      -19.3460  -28.2200   28.4090 C.3    52  LEU52       0.0001
     63  N        -20.5550  -32.5960   34.9780 N.3    55  THR55      -0.1218
     64  CA       -20.4520  -31.5450   35.9620 C.3    55  THR55       0.1862
     65  C        -21.7380  -30.7240   36.0560 C.2    55  THR55       0.2287
     66  O        -22.2170  -30.4330   37.1540 O.2    55  THR55      -0.2866
     67  CB       -19.2810  -30.6280   35.6520 C.3    55  THR55       0.1770
     68  OG1      -18.0720  -31.3980   35.6770 O.3    55  THR55      -0.2211
     69  CG2      -19.1970  -29.5470   36.6800 C.3    55  THR55       0.0375
     70  N        -17.5620  -24.5610   34.8260 N.3    69  ALA69      -0.1245
     71  CA       -17.3030  -25.6370   33.8830 C.3    69  ALA69       0.1562
     72  C        -17.5200  -25.1850   32.4480 C.2    69  ALA69       0.2260
     73  O        -16.8120  -25.6150   31.5350 O.2    69  ALA69      -0.2867
     74  CB       -18.1970  -26.8150   34.1690 C.3    69  ALA69       0.0290
     75  N        -14.5630  -23.0970   31.5510 N.3    72  LEU72      -0.1231
     76  CA       -13.3550  -23.8940   31.3820 C.3    72  LEU72       0.1693
     77  C        -13.3780  -24.6860   30.0850 C.2    72  LEU72       0.2592
     78  O        -12.3470  -24.8870   29.4370 O.2    72  LEU72      -0.2718
     79  CB       -13.1980  -24.8590   32.5470 C.3    72  LEU72       0.0284
     80  CG       -12.2660  -24.4570   33.6770 C.3    72  LEU72       0.0019
     81  CD1      -12.1720  -22.9440   33.8310 C.3    72  LEU72       0.0001
     82  CD2      -12.7760  -25.0800   34.9560 C.3    72  LEU72       0.0001
     83  N        -14.5550  -25.1610   29.7100 N.am   73  TYR73      -0.1976
     84  CA       -14.6490  -25.9230   28.4920 C.3    73  TYR73       0.1639
     85  C        -14.3770  -25.0130   27.2820 C.2    73  TYR73       0.2290
     86  O        -13.7200  -25.4220   26.3280 O.2    73  TYR73      -0.2864
     87  CB       -16.0070  -26.5740   28.3620 C.3    73  TYR73       0.0560
     88  CG       -16.1540  -27.2960   27.0660 C.ar   73  TYR73      -0.0198
     89  CD1      -15.3670  -28.3960   26.7790 C.ar   73  TYR73      -0.0009
     90  CD2      -17.0750  -26.8640   26.1070 C.ar   73  TYR73      -0.0009
     91  CE1      -15.4890  -29.0610   25.5880 C.ar   73  TYR73       0.0417
     92  CE2      -17.2130  -27.5260   24.9120 C.ar   73  TYR73       0.0417
     93  CZ       -16.4190  -28.6210   24.6520 C.ar   73  TYR73       0.1957
     94  OH       -16.5480  -29.2790   23.4500 O.3    73  TYR73      -0.2866
     95  N        -10.6080  -24.3380   27.1870 N.3    76  THR76      -0.1218
     96  CA        -9.9220  -25.5240   26.6810 C.3    76  THR76       0.1862
     97  C        -10.0350  -25.5970   25.1630 C.2    76  THR76       0.2287
     98  O         -9.0520  -25.8750   24.4590 O.2    76  THR76      -0.2866
     99  CB       -10.4760  -26.8120   27.3350 C.3    76  THR76       0.1770
    100  OG1      -10.2550  -26.7400   28.7450 O.3    76  THR76      -0.2211
    101  CG2       -9.8070  -28.0570   26.7830 C.3    76  THR76       0.0375
@<TRIPOS>BOND
     1    31    32    1
     2    94    93    1
     3    35    32    1
     4    35    36    1
     5    32    33    1
     6    98    97    2
     7    33    34    2
     8    93    92   ar
     9    93    91   ar
    10    92    90   ar
    11    97    96    1
    12    38    36   ar
    13    38    40   ar
    14    36    37   ar
    15    91    89   ar
    16    90    88   ar
    17    40    41   ar
    18    86    85    2
    19    96    95    1
    20    96    99    1
    21    37    39   ar
    22    89    88   ar
    23   101    99    1
    24    88    87    1
    25    85    84    1
    26    99   100    1
    27    41    39   ar
    28    42    43    1
    29    46    43    1
    30    44    43    1
    31    44    45    2
    32    87    84    1
    33    62    60    1
    34    84    83    1
    35    15    14    1
    36    78    77    2
    37    83    77   am
    38    60    59    1
    39    60    61    1
    40    59    56    1
    41    77    76    1
    42     1     2    1
    43    47    48    1
    44    14    13    1
    45    13    12    1
    46    29    27    1
    47     7     5    1
    48    30    28    1
    49    55    56    1
    50    55    49   am
    51    56    57    1
    52    76    75    1
    53    76    79    1
    54    28    27    1
    55    73    72    2
    56    57    58    2
    57     2     5    1
    58     2     3    1
    59    26    25    2
    60    48    51    1
    61    48    49    1
    62    27    24    1
    63     5     6    1
    64    51    52    1
    65    49    50    2
    66    24    25    1
    67    24    23    1
    68    12     9    1
    69    72    71    1
    70    79    80    1
    71     3     4    2
    72     8     9    1
    73     9    10    1
    74    52    54    1
    75    52    53    1
    76    80    81    1
    77    80    82    1
    78    71    74    1
    79    71    70    1
    80    10    11    2
    81    63    64    1
    82    67    68    1
    83    67    64    1
    84    67    69    1
    85    19    18    2
    86    64    65    1
    87    65    66    2
    88    17    18    1
    89    17    16    1
    90    17    20    1
    91    21    20    1
    92    22    20    1
