@<TRIPOS>MOLECULE
tmp/4n4iA00.pdb
 257 256 0 0 0
SMALL
GASTEIGER

@<TRIPOS>ATOM
      1  N         -3.1420  -25.6460   33.0290 N.3    15  ARG15      -0.1245
      2  CA        -3.7070  -24.3100   32.9460 C.3    15  ARG15       0.1563
      3  C         -5.1720  -24.2850   33.3830 C.2    15  ARG15       0.2260
      4  O         -5.6180  -23.3400   34.0340 O.2    15  ARG15      -0.2867
      5  CB        -3.5560  -23.7590   31.5260 C.3    15  ARG15       0.0307
      6  CG        -4.4070  -22.5390   31.2290 C.3    15  ARG15       0.0489
      7  CD        -4.0200  -21.9460   29.8890 C.3    15  ARG15       0.2205
      8  NE        -2.6090  -21.5650   29.8880 N.pl3  15  ARG15      -0.0865
      9  CZ        -2.1630  -20.3680   30.2590 C.cat  15  ARG15       0.5346
     10  NH1       -3.0210  -19.4320   30.6500 N.pl3  15  ARG15       0.1354
     11  NH2       -0.8590  -20.1030   30.2290 N.pl3  15  ARG15       0.1354
     12  N         -7.1360  -22.3510   36.0070 N.3    19  ARG19      -0.1245
     13  CA        -8.3150  -21.5820   35.6680 C.3    19  ARG19       0.1563
     14  C         -9.3800  -21.9060   36.7100 C.2    19  ARG19       0.2260
     15  O        -10.0860  -21.0190   37.2000 O.2    19  ARG19      -0.2867
     16  CB        -8.7980  -21.9440   34.2680 C.3    19  ARG19       0.0307
     17  CG        -8.8510  -20.7780   33.3110 C.3    19  ARG19       0.0489
     18  CD        -9.4550  -19.5810   33.9950 C.3    19  ARG19       0.2205
     19  NE       -10.2820  -18.7910   33.0940 N.pl3  19  ARG19      -0.0865
     20  CZ       -10.7840  -17.5990   33.4060 C.cat  19  ARG19       0.5346
     21  NH1      -10.5280  -17.0620   34.5980 N.pl3  19  ARG19       0.1354
     22  NH2      -11.5320  -16.9410   32.5290 N.pl3  19  ARG19       0.1354
     23  N        -10.5780  -23.0320   23.2050 N.3    78  HIS78      -0.1226
     24  CA        -9.7250  -21.9450   22.7210 C.3    78  HIS78       0.1752
     25  C         -8.2280  -22.3690   22.6680 C.2    78  HIS78       0.2595
     26  O         -7.5420  -22.1120   21.6790 O.2    78  HIS78      -0.2718
     27  CB        -9.8990  -20.6960   23.5650 C.3    78  HIS78       0.0759
     28  CG        -9.0530  -19.5470   23.1070 C.ar   78  HIS78       0.0818
     29  ND1       -9.1640  -18.9980   21.8470 N.ar   78  HIS78      -0.2268
     30  CD2       -8.0610  -18.8630   23.7320 C.ar   78  HIS78       0.1154
     31  CE1       -8.2970  -18.0110   21.7210 C.ar   78  HIS78       0.1986
     32  NE2       -7.6080  -17.9120   22.8440 N.ar   78  HIS78      -0.2212
     33  N         -7.7340  -23.0130   23.7270 N.am   79  GLU79      -0.1979
     34  CA        -6.3340  -23.4670   23.7630 C.3    79  GLU79       0.1602
     35  C         -6.0540  -24.4540   22.6400 C.2    79  GLU79       0.2287
     36  O         -5.0140  -24.3820   21.9600 O.2    79  GLU79      -0.2864
     37  CB        -5.9770  -24.0650   25.1310 C.3    79  GLU79       0.0415
     38  CG        -6.1270  -23.0640   26.2700 C.3    79  GLU79       0.1163
     39  CD        -4.9810  -22.0690   26.3390 C.2    79  GLU79       0.3649
     40  OE1       -3.8660  -22.4090   25.8850 O.co2  79  GLU79      -0.2457
     41  OE2       -5.1800  -20.9530   26.8680 O.co2  79  GLU79      -0.2457
     42  N         -5.8440  -22.6030   19.2870 N.3    82  GLU82      -0.1245
     43  CA        -4.5690  -21.9000   19.2140 C.3    82  GLU82       0.1567
     44  C         -3.4000  -22.8370   18.9380 C.2    82  GLU82       0.2260
     45  O         -2.5080  -22.5210   18.1520 O.2    82  GLU82      -0.2867
     46  CB        -4.3610  -21.1490   20.5090 C.3    82  GLU82       0.0388
     47  CG        -5.2720  -19.9460   20.5860 C.3    82  GLU82       0.1160
     48  CD        -4.8050  -18.8830   19.6080 C.2    82  GLU82       0.3649
     49  OE1       -3.5880  -18.6060   19.6250 O.co2  82  GLU82      -0.2457
     50  OE2       -5.6240  -18.3460   18.8290 O.co2  82  GLU82      -0.2457
     51  N          4.4200  -21.5790   18.4580 N.3    89  CYS89      -0.1221
     52  CA         3.9340  -20.4560   19.2510 C.3    89  CYS89       0.1808
     53  C          3.3350  -20.9450   20.5490 C.2    89  CYS89       0.2601
     54  O          3.5840  -20.3800   21.6130 O.2    89  CYS89      -0.2717
     55  CB         2.8670  -19.6600   18.4890 C.3    89  CYS89       0.0970
     56  SG         3.4980  -18.3270   17.4450 S.3    89  CYS89      -0.0800
     57  N          2.5120  -21.9820   20.4480 N.am   90  PHE90      -0.1976
     58  CA         1.8500  -22.5460   21.6170 C.3    90  PHE90       0.1639
     59  C          2.8730  -23.0740   22.6330 C.2    90  PHE90       0.2290
     60  O          2.7830  -22.7830   23.8240 O.2    90  PHE90      -0.2864
     61  CB         0.9050  -23.6850   21.2160 C.3    90  PHE90       0.0560
     62  CG         0.0220  -24.1360   22.3390 C.ar   90  PHE90      -0.0200
     63  CD1       -1.1740  -23.4750   22.5950 C.ar   90  PHE90      -0.0042
     64  CD2        0.3990  -25.1890   23.1640 C.ar   90  PHE90      -0.0042
     65  CE1       -1.9820  -23.8690   23.6310 C.ar   90  PHE90      -0.0003
     66  CE2       -0.4130  -25.5900   24.2130 C.ar   90  PHE90      -0.0003
     67  CZ        -1.6010  -24.9270   24.4470 C.ar   90  PHE90      -0.0000
     68  N          4.6960  -20.1690   24.1470 N.3    93  SER93      -0.1202
     69  CA         3.7630  -19.3840   24.9740 C.3    93  SER93       0.2020
     70  C          3.4880  -20.0320   26.3230 C.2    93  SER93       0.2618
     71  O          3.1180  -19.3500   27.2730 O.2    93  SER93      -0.2717
     72  CB         2.4200  -19.1710   24.2720 C.3    93  SER93       0.2103
     73  OG         2.5430  -18.3300   23.1500 O.3    93  SER93      -0.2182
     74  N          3.6520  -21.3460   26.3880 N.am   94  ASN94      -0.1974
     75  CA         3.4640  -22.0840   27.6290 C.3    94  ASN94       0.1688
     76  C          4.7380  -22.3460   28.4250 C.2    94  ASN94       0.2292
     77  O          4.7260  -22.2270   29.6420 O.2    94  ASN94      -0.2864
     78  CB         2.7280  -23.3830   27.3390 C.3    94  ASN94       0.1181
     79  CG         1.2720  -23.1390   27.0630 C.2    94  ASN94       0.2629
     80  OD1        0.4670  -23.1720   27.9840 O.2    94  ASN94      -0.2716
     81  ND2        0.9300  -22.8240   25.8050 N.am   94  ASN94      -0.0877
     82  N          7.6040  -20.5850   27.9650 N.3    96  ARG96      -0.1245
     83  CA         8.1540  -19.2490   28.2190 C.3    96  ARG96       0.1563
     84  C          9.6210  -19.1540   28.6840 C.2    96  ARG96       0.2260
     85  O          9.9290  -18.5360   29.7160 O.2    96  ARG96      -0.2867
     86  CB         7.2220  -18.4430   29.1220 C.3    96  ARG96       0.0307
     87  CG         5.8390  -18.2990   28.5030 C.3    96  ARG96       0.0489
     88  CD         5.1820  -16.9670   28.8400 C.3    96  ARG96       0.2205
     89  NE         3.8000  -16.9470   28.3650 N.pl3  96  ARG96      -0.0865
     90  CZ         2.9740  -15.9130   28.4880 C.cat  96  ARG96       0.5346
     91  NH1        3.3830  -14.7940   29.0700 N.pl3  96  ARG96       0.1354
     92  NH2        1.7330  -16.0060   28.0260 N.pl3  96  ARG96       0.1354
     93  N          0.6340   -2.5890   13.2080 N.3   114  ALA114     -0.1245
     94  CA        -0.8200   -2.6800   13.2560 C.3   114  ALA114      0.1562
     95  C         -1.3670   -1.5720   14.1160 C.2   114  ALA114      0.2260
     96  O         -0.9190   -1.3570   15.2500 O.2   114  ALA114     -0.2867
     97  CB        -1.2700   -4.0390   13.7900 C.3   114  ALA114      0.0290
     98  N         -4.3230    0.3240   16.1740 N.3   116  MET116     -0.1230
     99  CA        -5.5960    0.2760   16.8720 C.3   116  MET116      0.1702
    100  C         -5.8890    1.7010   17.2580 C.2   116  MET116      0.2592
    101  O         -4.9830    2.4290   17.6640 O.2   116  MET116     -0.2718
    102  CB        -5.5140   -0.5750   18.1340 C.3   116  MET116      0.0401
    103  CG        -5.3900   -2.0440   17.8660 C.3   116  MET116      0.0596
    104  SD        -5.4340   -3.0520   19.3680 S.3   116  MET116     -0.1393
    105  CE        -6.9920   -2.6070   20.1370 C.3   116  MET116      0.0692
    106  N         -7.1540    2.0920   17.1360 N.am  117  LYS117     -0.1966
    107  CA        -7.5650    3.4560   17.4060 C.3   117  LYS117      0.1728
    108  C         -7.0670    3.9260   18.7620 C.2   117  LYS117      0.2617
    109  O         -7.2630    3.2490   19.7760 O.2   117  LYS117     -0.2715
    110  CB        -9.0820    3.5630   17.3210 C.3   117  LYS117      0.0311
    111  CG        -9.6040    4.9720   17.4250 C.3   117  LYS117      0.0038
    112  CD       -11.0830    5.0330   17.0530 C.3   117  LYS117      0.0206
    113  CE       -11.9970    4.6520   18.2230 C.3   117  LYS117      0.1093
    114  NZ       -13.4210    5.0270   17.9420 N.3   117  LYS117     -0.1314
    115  N         -6.3630    5.0530   18.7670 N.am  118  GLY118     -0.1940
    116  CA        -5.8960    5.6390   20.0060 C.3   118  GLY118      0.2014
    117  C         -4.5330    5.1630   20.4690 C.2   118  GLY118      0.2639
    118  O         -3.9750    5.7490   21.3950 O.2   118  GLY118     -0.2714
    119  N         -3.9970    4.1090   19.8450 N.am  119  PHE119     -0.1959
    120  CA        -2.7060    3.5540   20.2610 C.3   119  PHE119      0.1771
    121  C         -1.5910    3.8180   19.2620 C.2   119  PHE119      0.2620
    122  O         -0.4130    3.6600   19.5890 O.2   119  PHE119     -0.2715
    123  CB        -2.8000    2.0450   20.5020 C.3   119  PHE119      0.0574
    124  CG        -3.5670    1.6820   21.7350 C.ar  119  PHE119     -0.0200
    125  CD1       -3.1560    2.1450   22.9800 C.ar  119  PHE119     -0.0042
    126  CD2       -4.6990    0.8840   21.6550 C.ar  119  PHE119     -0.0042
    127  CE1       -3.8640    1.8190   24.1290 C.ar  119  PHE119     -0.0003
    128  CE2       -5.4190    0.5510   22.8030 C.ar  119  PHE119     -0.0003
    129  CZ        -4.9990    1.0200   24.0350 C.ar  119  PHE119     -0.0000
    130  N         -1.9560    4.2130   18.0490 N.am  120  GLY120     -0.1954
    131  CA        -0.9770    4.3440   16.9860 C.3   120  GLY120      0.1869
    132  C         -0.5620    2.9740   16.4740 C.2   120  GLY120      0.2309
    133  O         -1.1220    1.9600   16.8790 O.2   120  GLY120     -0.2863
    134  N          1.5910   -0.3490   16.2360 N.3   122  TRP122     -0.1241
    135  CA         2.4190   -1.1580   17.1340 C.3   122  TRP122      0.1605
    136  C          2.8910   -2.3700   16.3570 C.2   122  TRP122      0.2264
    137  O          2.1610   -2.8980   15.5250 O.2   122  TRP122     -0.2867
    138  CB         1.6030   -1.6410   18.3420 C.3   122  TRP122      0.0550
    139  CG         1.6130   -0.7350   19.5190 C.ar  122  TRP122      0.0003
    140  CD1        1.0820    0.5280   19.5940 C.ar  122  TRP122      0.0946
    141  CD2        2.1590   -1.0180   20.8120 C.ar  122  TRP122      0.0152
    142  NE1        1.2840    1.0510   20.8530 N.ar  122  TRP122     -0.2442
    143  CE2        1.9400    0.1230   21.6190 C.ar  122  TRP122      0.0810
    144  CE3        2.8150   -2.1250   21.3670 C.ar  122  TRP122      0.0012
    145  CZ2        2.3440    0.1860   22.9530 C.ar  122  TRP122      0.0191
    146  CZ3        3.2200   -2.0570   22.6940 C.ar  122  TRP122      0.0001
    147  CH2        2.9770   -0.9120   23.4710 C.ar  122  TRP122      0.0015
    148  N         -1.0480  -13.8540   12.9010 N.3   127  MET127     -0.1245
    149  CA        -1.3790  -15.2340   13.2430 C.3   127  MET127      0.1570
    150  C         -2.3040  -15.8640   12.2040 C.2   127  MET127      0.2261
    151  O         -2.2150  -17.0560   11.9220 O.2   127  MET127     -0.2867
    152  CB        -2.0380  -15.3110   14.6270 C.3   127  MET127      0.0387
    153  CG        -1.1590  -14.7480   15.7420 C.3   127  MET127      0.0595
    154  SD         0.4540  -15.5710   15.8020 S.3   127  MET127     -0.1393
    155  CE        -0.0190  -17.2590   16.1590 C.3   127  MET127      0.0692
    156  N         -0.7160  -10.7460   16.9440 N.3   137  ARG137     -0.1231
    157  CA        -0.2980  -10.7860   18.3310 C.3   137  ARG137      0.1694
    158  C          0.8340   -9.7820   18.4950 C.2   137  ARG137      0.2592
    159  O          1.8750   -9.8800   17.8240 O.2   137  ARG137     -0.2718
    160  CB         0.1750  -12.1770   18.7240 C.3   137  ARG137      0.0321
    161  CG         0.5600  -12.2610   20.1890 C.3   137  ARG137      0.0489
    162  CD         0.7170  -13.7150   20.5860 C.3   137  ARG137      0.2205
    163  NE         0.8620  -13.8790   22.0300 N.pl3 137  ARG137     -0.0865
    164  CZ         1.3190  -14.9880   22.6100 C.cat 137  ARG137      0.5346
    165  NH1        1.3880  -15.0700   23.9330 N.pl3 137  ARG137      0.1354
    166  NH2        1.7210  -16.0060   21.8670 N.pl3 137  ARG137      0.1354
    167  N          0.6130   -8.8030   19.3530 N.am  138  PHE138     -0.1962
    168  CA         1.5610   -7.7140   19.5390 C.3   138  PHE138      0.1771
    169  C          2.8420   -8.1390   20.2480 C.2   138  PHE138      0.2619
    170  O          2.8240   -9.0060   21.1310 O.2   138  PHE138     -0.2715
    171  CB         0.8930   -6.5690   20.3000 C.3   138  PHE138      0.0574
    172  CG        -0.2410   -5.9320   19.5370 C.ar  138  PHE138     -0.0200
    173  CD1        0.0210   -4.9810   18.5410 C.ar  138  PHE138     -0.0042
    174  CD2       -1.5490   -6.2900   19.7900 C.ar  138  PHE138     -0.0042
    175  CE1       -1.0130   -4.4070   17.8040 C.ar  138  PHE138     -0.0003
    176  CE2       -2.6040   -5.7120   19.0580 C.ar  138  PHE138     -0.0003
    177  CZ        -2.3300   -4.7630   18.0760 C.ar  138  PHE138     -0.0000
    178  N          3.9510   -7.5300   19.8290 N.am  139  PHE139     -0.1974
    179  CA         5.1810   -7.5510   20.6170 C.3   139  PHE139      0.1639
    180  C          4.9720   -6.7140   21.8690 C.2   139  PHE139      0.2290
    181  O          4.0620   -5.8730   21.9230 O.2   139  PHE139     -0.2864
    182  CB         6.3460   -6.9800   19.8110 C.3   139  PHE139      0.0560
    183  CG         6.7910   -7.8810   18.7150 C.ar  139  PHE139     -0.0200
    184  CD1        7.7780   -8.8210   18.9440 C.ar  139  PHE139     -0.0042
    185  CD2        6.1940   -7.8180   17.4540 C.ar  139  PHE139     -0.0042
    186  CE1        8.1780   -9.6830   17.9240 C.ar  139  PHE139     -0.0003
    187  CE2        6.5880   -8.6770   16.4280 C.ar  139  PHE139     -0.0003
    188  CZ         7.5760   -9.6140   16.6760 C.ar  139  PHE139     -0.0000
    189  N          4.8100   -6.0950   26.3100 N.3   141  HIS141     -0.1226
    190  CA         4.2060   -6.6900   27.5070 C.3   141  HIS141      0.1752
    191  C          2.7780   -7.1560   27.2780 C.2   141  HIS141      0.2596
    192  O          1.9710   -6.4350   26.6890 O.2   141  HIS141     -0.2718
    193  CB         4.2450   -5.7030   28.6760 C.3   141  HIS141      0.0759
    194  CG         5.6260   -5.2600   29.0450 C.ar  141  HIS141      0.0818
    195  ND1        5.9600   -3.9350   29.2270 N.ar  141  HIS141     -0.2268
    196  CD2        6.7620   -5.9690   29.2610 C.ar  141  HIS141      0.1154
    197  CE1        7.2390   -3.8450   29.5410 C.ar  141  HIS141      0.1986
    198  NE2        7.7480   -5.0590   29.5750 N.ar  141  HIS141     -0.2212
    199  N          2.4960   -8.3500   27.7890 N.am  142  HIS142     -0.1961
    200  CA         1.1950   -9.0360   27.7010 C.3   142  HIS142      0.1787
    201  C          0.9320   -9.7460   26.3710 C.2   142  HIS142      0.2620
    202  O          0.0830  -10.6290   26.3350 O.2   142  HIS142     -0.2715
    203  CB         0.0120   -8.1290   28.0870 C.3   142  HIS142      0.0785
    204  CG         0.2240   -7.3680   29.3580 C.ar  142  HIS142      0.0821
    205  ND1        0.4660   -7.9900   30.5620 N.ar  142  HIS142     -0.2267
    206  CD2        0.2450   -6.0360   29.6060 C.ar  142  HIS142      0.1154
    207  CE1        0.6250   -7.0700   31.5020 C.ar  142  HIS142      0.1986
    208  NE2        0.4950   -5.8800   30.9460 N.ar  142  HIS142     -0.2212
    209  N          1.6700   -9.3840   25.3060 N.am  143  HIS143     -0.1959
    210  CA         1.5550  -10.0790   24.0100 C.3   143  HIS143      0.1787
    211  C          0.1090  -10.3750   23.6270 C.2   143  HIS143      0.2620
    212  O         -0.2600  -11.5220   23.3890 O.2   143  HIS143     -0.2715
    213  CB         2.3740  -11.3790   24.0370 C.3   143  HIS143      0.0785
    214  CG         3.8390  -11.1320   24.2430 C.ar  143  HIS143      0.0821
    215  ND1        4.4270  -11.1100   25.4860 N.ar  143  HIS143     -0.2267
    216  CD2        4.8100  -10.7830   23.3580 C.ar  143  HIS143      0.1154
    217  CE1        5.7090  -10.8150   25.3590 C.ar  143  HIS143      0.1986
    218  NE2        5.9660  -10.6080   24.0840 N.ar  143  HIS143     -0.2212
    219  N         -0.7100   -9.3310   23.5990 N.am  144  GLN144     -0.1963
    220  CA        -2.1500   -9.5310   23.3990 C.3   144  GLN144      0.1733
    221  C         -2.5200   -9.6880   21.9280 C.2   144  GLN144      0.2616
    222  O         -1.7120   -9.4030   21.0440 O.2   144  GLN144     -0.2715
    223  CB        -2.9280   -8.3730   23.9880 C.3   144  GLN144      0.0408
    224  CG        -2.6170   -8.1390   25.4440 C.3   144  GLN144      0.0908
    225  CD        -3.0400   -6.7600   25.8720 C.2   144  GLN144      0.2608
    226  OE1       -4.1210   -6.6000   26.4160 O.2   144  GLN144     -0.2717
    227  NE2       -2.2040   -5.7420   25.5870 N.am  144  GLN144     -0.0878
    228  N         -3.7660  -10.1090   21.6960 N.am  145  ARG145     -0.1963
    229  CA        -4.2870  -10.4300   20.3800 C.3   145  ARG145      0.1729
    230  C         -5.2930   -9.3650   19.9670 C.2   145  ARG145      0.2616
    231  O         -6.0100   -8.8180   20.8170 O.2   145  ARG145     -0.2715
    232  CB        -4.9880  -11.7870   20.4390 C.3   145  ARG145      0.0348
    233  CG        -4.0270  -12.9390   20.7130 C.3   145  ARG145      0.0492
    234  CD        -3.1420  -13.1940   19.4700 C.3   145  ARG145      0.2205
    235  NE        -3.8480  -13.9810   18.4540 N.pl3 145  ARG145     -0.0865
    236  CZ        -3.9000  -15.3030   18.4780 C.cat 145  ARG145      0.5346
    237  NH1       -3.2870  -15.9620   19.4580 N.pl3 145  ARG145      0.1354
    238  NH2       -4.5490  -15.9660   17.5230 N.pl3 145  ARG145      0.1354
    239  N         -5.3420   -9.0500   18.6790 N.am  146  ALA146     -0.1963
    240  CA        -6.4340   -8.2270   18.1660 C.3   146  ALA146      0.1728
    241  C         -6.7430   -8.5760   16.7240 C.2   146  ALA146      0.2616
    242  O         -5.8590   -9.0430   15.9780 O.2   146  ALA146     -0.2715
    243  CB        -6.1230   -6.7360   18.3030 C.3   146  ALA146      0.0334
    244  N         -8.0070   -8.3860   16.3400 N.am  147  TRP147     -0.1974
    245  CA        -8.3810   -8.4770   14.9390 C.3   147  TRP147      0.1640
    246  C         -8.2800   -7.0640   14.4190 C.2   147  TRP147      0.2290
    247  O         -8.8470   -6.1420   15.0020 O.2   147  TRP147     -0.2864
    248  CB        -9.8110   -9.0020   14.7750 C.3   147  TRP147      0.0576
    249  CG        -9.8950  -10.4700   14.9440 C.ar  147  TRP147      0.0006
    250  CD1      -10.2440  -11.1500   16.0810 C.ar  147  TRP147      0.0946
    251  CD2       -9.5670  -11.4550   13.9660 C.ar  147  TRP147      0.0152
    252  NE1      -10.1970  -12.4990   15.8500 N.ar  147  TRP147     -0.2442
    253  CE2       -9.7830  -12.7170   14.5600 C.ar  147  TRP147      0.0810
    254  CE3       -9.1620  -11.3990   12.6270 C.ar  147  TRP147      0.0012
    255  CZ2       -9.5820  -13.9060   13.8770 C.ar  147  TRP147      0.0191
    256  CZ3       -8.9640  -12.5830   11.9490 C.ar  147  TRP147      0.0001
    257  CH2       -9.1840  -13.8220   12.5680 C.ar  147  TRP147      0.0015
@<TRIPOS>BOND
     1   151   150    2
     2   256   257   ar
     3   256   254   ar
     4   150   149    1
     5   257   255   ar
     6   254   251   ar
     7   148   149    1
     8    93    94    1
     9   149   152    1
    10    94    97    1
    11    94    95    1
    12   255   253   ar
    13   251   253   ar
    14   251   249   ar
    15    95    96    2
    16   246   245    1
    17   246   247    2
    18   253   252   ar
    19   152   153    1
    20   248   245    1
    21   248   249    1
    22   245   244    1
    23   249   250   ar
    24   137   136    2
    25   153   154    1
    26   154   155    1
    27   252   250   ar
    28   242   241    2
    29    98    99    1
    30   134   135    1
    31   244   241   am
    32   136   135    1
    33   187   188   ar
    34   187   185   ar
    35   132   133    2
    36   132   131    1
    37   188   186   ar
    38   241   240    1
    39    99   100    1
    40    99   102    1
    41   156   157    1
    42   131   130    1
    43   112   111    1
    44   112   113    1
    45   135   138    1
    46   106   100   am
    47   106   107    1
    48   100   101    2
    49   110   107    1
    50   110   111    1
    51   107   108    1
    52    56    55    1
    53   185   183   ar
    54   238   236    1
    55   175   177   ar
    56   175   173   ar
    57   159   158    2
    58   103   102    1
    59   103   104    1
    60   186   184   ar
    61   114   113    1
    62   130   121   am
    63   177   176   ar
    64    45    44    2
    65   240   243    1
    66   240   239    1
    67   157   158    1
    68   157   160    1
    69   138   139    1
    70   235   236    2
    71   235   234    1
    72    51    52    1
    73   236   237    1
    74    55    52    1
    75   158   167   am
    76   173   172   ar
    77   239   230   am
    78   183   184   ar
    79   183   182    1
    80   160   161    1
    81   108   115   am
    82   108   109    2
    83   115   116    1
    84    50    48   ar
    85    44    43    1
    86   176   174   ar
    87    43    42    1
    88    43    46    1
    89    52    53    1
    90   121   122    2
    91   121   120    1
    92   167   168    1
    93   104   105    1
    94   234   233    1
    95   139   140   ar
    96   139   141   ar
    97   172   174   ar
    98   172   171    1
    99   168   169    1
   100   168   171    1
   101   140   142   ar
   102    48    49   ar
   103    48    47    1
   104   182   179    1
   105   178   169   am
   106   178   179    1
   107   119   120    1
   108   119   117   am
   109   230   229    1
   110   230   231    2
   111   116   117    1
   112   161   162    1
   113   169   170    2
   114   120   123    1
   115   229   232    1
   116   229   228    1
   117   232   233    1
   118    57    53   am
   119    57    58    1
   120   117   118    2
   121   123   124    1
   122    46    47    1
   123    53    54    2
   124   162   163    1
   125   179   180    1
   126   141   144   ar
   127   141   143   ar
   128   142   143   ar
   129   222   221    2
   130    61    58    1
   131    61    62    1
   132   144   146   ar
   133    58    59    1
   134   143   145   ar
   135   126   124   ar
   136   126   128   ar
   137    26    25    2
   138   228   221   am
   139    31    29   ar
   140    31    32   ar
   141   124   125   ar
   142    29    28   ar
   143   166   164    1
   144   180   181    2
   145   221   220    1
   146    36    35    2
   147   163   164    2
   148    62    63   ar
   149    62    64   ar
   150    63    65   ar
   151   164   165    1
   152    59    60    2
   153    35    34    1
   154    25    24    1
   155    25    33   am
   156   146   147   ar
   157    24    23    1
   158    24    27    1
   159   128   129   ar
   160    32    30   ar
   161   145   147   ar
   162   125   127   ar
   163    28    27    1
   164    28    30   ar
   165    73    72    1
   166    64    66   ar
   167   216   218   ar
   168   216   214   ar
   169   212   211    2
   170   220   219    1
   171   220   223    1
   172   219   211   am
   173   211   210    1
   174    65    67   ar
   175    33    34    1
   176    34    37    1
   177   223   224    1
   178   210   213    1
   179   210   209    1
   180   129   127   ar
   181   213   214    1
   182   218   217   ar
   183    68    69    1
   184    66    67   ar
   185   214   215   ar
   186    72    69    1
   187    69    70    1
   188    37    38    1
   189   209   201   am
   190   217   215   ar
   191   224   225    1
   192   227   225   am
   193    81    79   am
   194   225   226    2
   195    40    39   ar
   196    38    39    1
   197   189   190    1
   198    70    74   am
   199    70    71    2
   200   202   201    2
   201    39    41   ar
   202   201   200    1
   203    74    75    1
   204   192   191    2
   205    79    78    1
   206    79    80    2
   207   191   190    1
   208   191   199   am
   209    78    75    1
   210   190   193    1
   211    75    76    1
   212   200   199    1
   213   200   203    1
   214    82    83    1
   215    92    90    1
   216   203   204    1
   217    83    84    1
   218    83    86    1
   219    89    90    2
   220    89    88    1
   221    76    77    2
   222    90    91    1
   223    87    88    1
   224    87    86    1
   225   193   194    1
   226    84    85    2
   227   194   195   ar
   228   194   196   ar
   229   195   197   ar
   230   196   198   ar
   231   204   206   ar
   232   204   205   ar
   233   197   198   ar
   234   206   208   ar
   235     8     7    1
   236     8     9    2
   237     7     6    1
   238    11     9    1
   239     9    10    1
   240   205   207   ar
   241   208   207   ar
   242     6     5    1
   243     5     2    1
   244    22    20    1
   245     2     1    1
   246     2     3    1
   247    19    20    2
   248    19    18    1
   249    17    18    1
   250    17    16    1
   251     3     4    2
   252    20    21    1
   253    16    13    1
   254    13    12    1
   255    13    14    1
   256    14    15    2
