@<TRIPOS>MOLECULE
tmp/4n4jA02.pdb
 135 133 0 0 0
SMALL
GASTEIGER

@<TRIPOS>ATOM
      1  N        -26.6290  -23.9450   -3.6510 N.3   158  LEU158     -0.1245
      2  CA       -27.0020  -24.7900   -2.5350 C.3   158  LEU158      0.1561
      3  C        -27.5610  -23.8840   -1.4380 C.2   158  LEU158      0.2260
      4  O        -27.0320  -22.7970   -1.1900 O.2   158  LEU158     -0.2867
      5  CB       -25.8000  -25.5800   -2.0190 C.3   158  LEU158      0.0270
      6  CG       -26.1090  -26.6600   -0.9790 C.3   158  LEU158      0.0019
      7  CD1      -27.1520  -27.6310   -1.4760 C.3   158  LEU158      0.0001
      8  CD2      -24.8320  -27.4010   -0.6160 C.3   158  LEU158      0.0001
      9  N        -29.5220  -35.3290    2.1620 N.3   172  PHE172     -0.1227
     10  CA       -29.4580  -34.7920    3.5130 C.3   172  PHE172      0.1736
     11  C        -29.5730  -35.8640    4.5850 C.2   172  PHE172      0.2596
     12  O        -30.5160  -36.6570    4.5940 O.2   172  PHE172     -0.2718
     13  CB       -30.5190  -33.7140    3.7340 C.3   172  PHE172      0.0547
     14  CG       -30.4320  -33.0440    5.0810 C.ar  172  PHE172     -0.0202
     15  CD1      -29.2060  -32.6330    5.5970 C.ar  172  PHE172     -0.0042
     16  CD2      -31.5810  -32.8010    5.8260 C.ar  172  PHE172     -0.0042
     17  CE1      -29.1310  -32.0110    6.8350 C.ar  172  PHE172     -0.0003
     18  CE2      -31.5080  -32.1720    7.0560 C.ar  172  PHE172     -0.0003
     19  CZ       -30.2840  -31.7800    7.5610 C.ar  172  PHE172     -0.0000
     20  N        -28.6060  -35.8430    5.4990 N.am  173  SER173     -0.1938
     21  CA       -28.4910  -36.8150    6.5770 C.3   173  SER173      0.2055
     22  C        -29.7890  -37.0850    7.3340 C.2   173  SER173      0.2643
     23  O        -30.1600  -38.2370    7.5240 O.2   173  SER173     -0.2714
     24  CB       -27.4440  -36.3320    7.5750 C.3   173  SER173      0.2130
     25  OG       -27.7460  -35.0110    7.9870 O.3   173  SER173     -0.2179
     26  N        -30.4670  -36.0300    7.7820 N.am  174  TRP174     -0.1973
     27  CA       -31.6600  -36.2090    8.6170 C.3   174  TRP174      0.1640
     28  C        -32.8060  -36.7950    7.8310 C.2   174  TRP174      0.2290
     29  O        -33.6790  -37.4580    8.3990 O.2   174  TRP174     -0.2864
     30  CB       -32.1100  -34.8980    9.2520 C.3   174  TRP174      0.0576
     31  CG       -31.1330  -34.3180   10.2190 C.ar  174  TRP174      0.0006
     32  CD1      -30.0630  -34.9450   10.7860 C.ar  174  TRP174      0.0946
     33  CD2      -31.1570  -32.9970   10.7620 C.ar  174  TRP174      0.0152
     34  NE1      -29.4060  -34.0890   11.6370 N.ar  174  TRP174     -0.2442
     35  CE2      -30.0600  -32.8870   11.6460 C.ar  174  TRP174      0.0810
     36  CE3      -31.9990  -31.8930   10.5920 C.ar  174  TRP174      0.0012
     37  CZ2      -29.7790  -31.7160   12.3470 C.ar  174  TRP174      0.0191
     38  CZ3      -31.7200  -30.7290   11.2940 C.ar  174  TRP174      0.0001
     39  CH2      -30.6200  -30.6500   12.1610 C.ar  174  TRP174      0.0015
     40  N        -23.6440  -17.9010    1.8570 N.3   283  TYR283     -0.1241
     41  CA       -24.3420  -19.0200    2.4590 C.3   283  TYR283      0.1605
     42  C        -23.5800  -19.4900    3.6930 C.2   283  TYR283      0.2264
     43  O        -22.3910  -19.7980    3.6110 O.2   283  TYR283     -0.2867
     44  CB       -24.5280  -20.1730    1.4750 C.3   283  TYR283      0.0534
     45  CG       -25.3810  -21.2590    2.0670 C.ar  283  TYR283     -0.0201
     46  CD1      -26.7430  -21.0650    2.2530 C.ar  283  TYR283     -0.0009
     47  CD2      -24.8240  -22.4650    2.4870 C.ar  283  TYR283     -0.0009
     48  CE1      -27.5290  -22.0440    2.8210 C.ar  283  TYR283      0.0417
     49  CE2      -25.6120  -23.4590    3.0570 C.ar  283  TYR283      0.0417
     50  CZ       -26.9630  -23.2370    3.2210 C.ar  283  TYR283      0.1957
     51  OH       -27.7590  -24.2080    3.7820 O.3   283  TYR283     -0.2866
     52  N        -24.8850  -21.9280    6.0700 N.3   285  ASP285     -0.1225
     53  CA       -25.5810  -23.0640    6.6560 C.3   285  ASP285      0.1805
     54  C        -26.5350  -22.6180    7.7640 C.2   285  ASP285      0.2597
     55  O        -26.4820  -23.1120    8.8950 O.2   285  ASP285     -0.2718
     56  CB       -24.5820  -24.1060    7.1660 C.3   285  ASP285      0.1424
     57  CG       -23.9420  -24.8730    6.0400 C.2   285  ASP285      0.3668
     58  OD1      -22.8430  -24.4870    5.6160 O.co2 285  ASP285     -0.2456
     59  OD2      -24.5680  -25.8300    5.5520 O.co2 285  ASP285     -0.2456
     60  N        -27.3990  -21.6660    7.4130 N.am  286  MET286     -0.1979
     61  CA       -28.4490  -21.1620    8.3070 C.3   286  MET286      0.1605
     62  C        -27.8910  -20.4600    9.5370 C.2   286  MET286      0.2287
     63  O        -28.5390  -20.4260   10.5850 O.2   286  MET286     -0.2864
     64  CB       -29.3880  -22.2910    8.7490 C.3   286  MET286      0.0413
     65  CG       -29.7590  -23.2560    7.6510 C.3   286  MET286      0.0598
     66  SD       -31.1400  -24.3040    8.1300 S.3   286  MET286     -0.1393
     67  CE       -30.4710  -25.2110    9.5120 C.3   286  MET286      0.0692
     68  N        -25.1570  -21.3320   11.1220 N.3   288  MET288     -0.1230
     69  CA       -24.3270  -22.2410   11.9060 C.3   288  MET288      0.1702
     70  C        -22.8460  -22.0370   11.6220 C.2   288  MET288      0.2592
     71  O        -22.0080  -22.4010   12.4350 O.2   288  MET288     -0.2718
     72  CB       -24.7080  -23.6930   11.6340 C.3   288  MET288      0.0401
     73  CG       -26.0770  -24.0330   12.1640 C.3   288  MET288      0.0596
     74  SD       -26.4270  -25.7840   12.0860 S.3   288  MET288     -0.1393
     75  CE       -26.9750  -25.9560   10.3890 C.3   288  MET288      0.0692
     76  N        -22.5310  -21.4780   10.4580 N.am  289  PHE289     -0.1976
     77  CA       -21.1600  -21.1020   10.1320 C.3   289  PHE289      0.1639
     78  C        -21.0330  -19.6150   10.4000 C.2   289  PHE289      0.2290
     79  O        -21.9200  -18.8380   10.0410 O.2   289  PHE289     -0.2864
     80  CB       -20.8330  -21.4150    8.6710 C.3   289  PHE289      0.0560
     81  CG       -20.5370  -22.8740    8.3950 C.ar  289  PHE289     -0.0200
     82  CD1      -21.0780  -23.8950    9.1780 C.ar  289  PHE289     -0.0042
     83  CD2      -19.7480  -23.2230    7.3090 C.ar  289  PHE289     -0.0042
     84  CE1      -20.8010  -25.2250    8.9010 C.ar  289  PHE289     -0.0003
     85  CE2      -19.4760  -24.5540    7.0210 C.ar  289  PHE289     -0.0003
     86  CZ       -20.0010  -25.5570    7.8220 C.ar  289  PHE289     -0.0000
     87  N        -24.0920  -34.8120   13.0800 N.3   377  PRO377     -0.2116
     88  CA       -24.7670  -33.9880   14.0790 C.3   377  PRO377      0.1372
     89  C        -26.2750  -34.1560   14.0070 C.2   377  PRO377      0.2244
     90  O        -26.8540  -34.0840   12.9210 O.2   377  PRO377     -0.2868
     91  CB       -24.3520  -32.5630   13.6990 C.3   377  PRO377      0.0268
     92  CG       -23.0430  -32.7300   13.0190 C.3   377  PRO377      0.0207
     93  CD       -23.1510  -34.0210   12.2680 C.3   377  PRO377      0.0892
     94  N        -26.3220  -30.1120   19.3380 N.3   390  LEU390     -0.1245
     95  CA       -26.9670  -29.8080   18.0660 C.3   390  LEU390      0.1561
     96  C        -27.9570  -28.6660   18.2450 C.2   390  LEU390      0.2260
     97  O        -28.0020  -27.7440   17.4320 O.2   390  LEU390     -0.2867
     98  CB       -27.6800  -31.0460   17.5130 C.3   390  LEU390      0.0270
     99  CG       -28.3520  -30.9470   16.1340 C.3   390  LEU390      0.0019
    100  CD1      -29.7150  -30.2620   16.2250 C.3   390  LEU390      0.0001
    101  CD2      -27.4520  -30.2400   15.1210 C.3   390  LEU390      0.0001
    102  N        -26.0530  -25.2440   18.4360 N.3   393  ILE393     -0.1245
    103  CA       -25.5190  -24.6850   17.1950 C.3   393  ILE393      0.1561
    104  C        -26.6360  -24.3810   16.1930 C.2   393  ILE393      0.2260
    105  O        -26.6740  -23.2970   15.6190 O.2   393  ILE393     -0.2867
    106  CB       -24.4040  -25.5780   16.5590 C.3   393  ILE393      0.0252
    107  CG1      -23.7940  -24.9030   15.3230 C.3   393  ILE393      0.0019
    108  CG2      -24.9310  -26.9680   16.2050 C.3   393  ILE393      0.0019
    109  CD1      -23.2240  -23.5120   15.5810 C.3   393  ILE393      0.0001
    110  N        -23.3100  -30.3420   -4.1110 N.3   487  HIS487     -0.1226
    111  CA       -23.5240  -31.4820   -3.2310 C.3   487  HIS487      0.1752
    112  C        -23.2120  -31.1570   -1.7970 C.2   487  HIS487      0.2596
    113  O        -22.4770  -30.2160   -1.5040 O.2   487  HIS487     -0.2718
    114  CB       -22.6640  -32.6720   -3.6510 C.3   487  HIS487      0.0759
    115  CG       -22.9340  -33.1380   -5.0400 C.ar  487  HIS487      0.0818
    116  ND1      -24.0840  -33.8140   -5.3820 N.ar  487  HIS487     -0.2268
    117  CD2      -22.2140  -33.0110   -6.1800 C.ar  487  HIS487      0.1154
    118  CE1      -24.0580  -34.0900   -6.6740 C.ar  487  HIS487      0.1986
    119  NE2      -22.9350  -33.6120   -7.1810 N.ar  487  HIS487     -0.2212
    120  N        -23.7660  -31.9790   -0.9140 N.am  488  ARG488     -0.1966
    121  CA       -23.4410  -31.9390    0.4960 C.3   488  ARG488      0.1729
    122  C        -22.1940  -32.7850    0.7120 C.2   488  ARG488      0.2616
    123  O        -22.0200  -33.8210    0.0630 O.2   488  ARG488     -0.2715
    124  CB       -24.6010  -32.4890    1.3150 C.3   488  ARG488      0.0348
    125  CG       -25.9300  -31.8120    1.0220 C.3   488  ARG488      0.0492
    126  CD       -26.9770  -32.1700    2.0670 C.3   488  ARG488      0.2205
    127  NE       -26.5790  -31.7140    3.3930 N.pl3 488  ARG488     -0.0865
    128  CZ       -26.6270  -30.4510    3.8160 C.cat 488  ARG488      0.5346
    129  NH1      -27.0660  -29.4800    3.0260 N.pl3 488  ARG488      0.1354
    130  NH2      -26.2270  -30.1590    5.0480 N.pl3 488  ARG488      0.1354
    131  N        -21.3430  -32.3520    1.6350 N.am  489  ALA489     -0.1977
    132  CA       -20.0710  -33.0260    1.9050 C.3   489  ALA489      0.1597
    133  C        -20.2540  -34.2170    2.8420 C.2   489  ALA489      0.2287
    134  O        -19.6670  -34.2600    3.9260 O.2   489  ALA489     -0.2864
    135  CB       -19.0710  -32.0280    2.5020 C.3   489  ALA489      0.0319
@<TRIPOS>BOND
     1   119   118   ar
     2   119   117   ar
     3   118   116   ar
     4   117   115   ar
     5   116   115   ar
     6   115   114    1
     7   110   111    1
     8   114   111    1
     9     1     2    1
    10   111   112    1
    11     2     5    1
    12     2     3    1
    13     5     6    1
    14   112   113    2
    15   112   120   am
    16     7     6    1
    17     3     4    2
    18     6     8    1
    19   120   121    1
    20   123   122    2
    21   121   122    1
    22   121   124    1
    23   122   131   am
    24   125   124    1
    25   125   126    1
    26    44    45    1
    27    44    41    1
    28   131   132    1
    29    40    41    1
    30   132   135    1
    31   132   133    1
    32   126   127    1
    33    45    46   ar
    34    45    47   ar
    35     9    10    1
    36    46    48   ar
    37    41    42    1
    38    47    49   ar
    39    48    50   ar
    40   133   134    2
    41   129   128    1
    42    49    50   ar
    43    50    51    1
    44   127   128    2
    45    10    13    1
    46    10    11    1
    47    43    42    2
    48    13    14    1
    49   128   130    1
    50    11    12    2
    51    11    20   am
    52    14    15   ar
    53    14    16   ar
    54    20    21    1
    55    59    57   ar
    56    15    17   ar
    57    58    57   ar
    58    16    18   ar
    59    57    56    1
    60    52    53    1
    61    21    22    1
    62    21    24    1
    63    53    56    1
    64    53    54    1
    65    17    19   ar
    66    85    83   ar
    67    85    86   ar
    68    18    19   ar
    69    83    81   ar
    70    22    23    2
    71    22    26   am
    72    60    54   am
    73    60    61    1
    74    24    25    1
    75    65    66    1
    76    65    64    1
    77    54    55    2
    78    26    27    1
    79    86    84   ar
    80    28    29    2
    81    28    27    1
    82    66    67    1
    83    61    64    1
    84    61    62    1
    85    81    80    1
    86    81    82   ar
    87    27    30    1
    88    80    77    1
    89    84    82   ar
    90    30    31    1
    91    62    63    2
    92    79    78    2
    93    77    78    1
    94    77    76    1
    95    31    33   ar
    96    31    32   ar
    97    75    74    1
    98    76    70   am
    99    36    33   ar
   100    36    38   ar
   101    33    35   ar
   102    32    34   ar
   103    68    69    1
   104    38    39   ar
   105    70    69    1
   106    70    71    2
   107    72    69    1
   108    72    73    1
   109    34    35   ar
   110    35    37   ar
   111    74    73    1
   112    39    37   ar
   113    93    92    1
   114    93    87    1
   115    90    89    2
   116    92    91    1
   117    87    88    1
   118    91    88    1
   119    89    88    1
   120   101    99    1
   121   107   109    1
   122   107   106    1
   123   105   104    2
   124    99   100    1
   125    99    98    1
   126   104   103    1
   127   108   106    1
   128   106   103    1
   129   103   102    1
   130    97    96    2
   131    98    95    1
   132    95    96    1
   133    95    94    1
