@<TRIPOS>MOLECULE
tmp/4n4lA02.pdb
 216 210 0 0 0
SMALL
GASTEIGER

@<TRIPOS>ATOM
      1  N        -57.7520  -16.0070  -12.1340 N.3    97  SER97      -0.1202
      2  CA       -56.3470  -15.8680  -12.5300 C.3    97  SER97       0.2020
      3  C        -56.2700  -15.2560  -13.9180 C.2    97  SER97       0.2619
      4  O        -57.2000  -15.3990  -14.7230 O.2    97  SER97      -0.2717
      5  CB       -55.6550  -17.2320  -12.5430 C.3    97  SER97       0.2103
      6  OG       -56.0680  -18.0180  -13.6530 O.3    97  SER97      -0.2182
      7  N        -55.1570  -14.5940  -14.2160 N.am   98  SER98      -0.1937
      8  CA       -54.9780  -13.9920  -15.5380 C.3    98  SER98       0.2055
      9  C        -54.8620  -15.0640  -16.6340 C.2    98  SER98       0.2643
     10  O        -55.1220  -14.7840  -17.8010 O.2    98  SER98      -0.2714
     11  CB       -53.7830  -13.0290  -15.5440 C.3    98  SER98       0.2130
     12  OG       -52.5990  -13.7120  -15.2160 O.3    98  SER98      -0.2179
     13  N        -54.4990  -16.2910  -16.2620 N.am   99  HIS99      -0.1973
     14  CA       -54.5590  -17.4210  -17.1940 C.3    99  HIS99       0.1656
     15  C        -55.9770  -17.6320  -17.7150 C.2    99  HIS99       0.2291
     16  O        -56.1860  -17.8550  -18.9110 O.2    99  HIS99      -0.2864
     17  CB       -54.1080  -18.7170  -16.5270 C.3    99  HIS99       0.0771
     18  CG       -52.6690  -18.7270  -16.1420 C.ar   99  HIS99       0.0820
     19  ND1      -52.2210  -19.2580  -14.9530 N.ar   99  HIS99      -0.2267
     20  CD2      -51.5760  -18.2520  -16.7810 C.ar   99  HIS99       0.1154
     21  CE1      -50.9090  -19.1150  -14.8800 C.ar   99  HIS99       0.1986
     22  NE2      -50.4950  -18.5110  -15.9780 N.ar   99  HIS99      -0.2212
     23  N        -58.1430   -9.2540  -16.2890 N.3   104  ILE104     -0.1231
     24  CA       -57.1470   -8.8630  -15.2880 C.3   104  ILE104      0.1692
     25  C        -55.7090   -8.9720  -15.8090 C.2   104  ILE104      0.2592
     26  O        -54.7540   -8.7820  -15.0550 O.2   104  ILE104     -0.2718
     27  CB       -57.3220   -9.6490  -13.9710 C.3   104  ILE104      0.0266
     28  CG1      -57.0270  -11.1360  -14.1630 C.3   104  ILE104      0.0019
     29  CG2      -58.7470   -9.4700  -13.4330 C.3   104  ILE104      0.0020
     30  CD1      -56.6800  -11.8410  -12.8690 C.3   104  ILE104      0.0001
     31  N        -55.5520   -9.2490  -17.1000 N.am  105  ARG105     -0.1966
     32  CA       -54.2240   -9.2810  -17.7010 C.3   105  ARG105      0.1729
     33  C        -53.6440   -7.8760  -17.7700 C.2   105  ARG105      0.2616
     34  O        -54.3830   -6.8910  -17.8060 O.2   105  ARG105     -0.2715
     35  CB       -54.2590   -9.9360  -19.0800 C.3   105  ARG105      0.0348
     36  CG       -54.5580  -11.4170  -18.9900 C.3   105  ARG105      0.0492
     37  CD       -54.4820  -12.1260  -20.3180 C.3   105  ARG105      0.2205
     38  NE       -54.6450  -13.5630  -20.1200 N.pl3 105  ARG105     -0.0865
     39  CZ       -54.5450  -14.4790  -21.0780 C.cat 105  ARG105      0.5346
     40  NH1      -54.2860  -14.1230  -22.3340 N.pl3 105  ARG105      0.1354
     41  NH2      -54.7200  -15.7620  -20.7830 N.pl3 105  ARG105      0.1354
     42  N        -52.3180   -7.8010  -17.7640 N.am  106  ARG106     -0.1963
     43  CA       -51.6010   -6.5260  -17.7300 C.3   106  ARG106      0.1729
     44  C        -50.7930   -6.2700  -19.0060 C.2   106  ARG106      0.2617
     45  O        -50.0340   -5.3020  -19.0760 O.2   106  ARG106     -0.2715
     46  CB       -50.6890   -6.4890  -16.4970 C.3   106  ARG106      0.0348
     47  CG       -51.4700   -6.4500  -15.1910 C.3   106  ARG106      0.0492
     48  CD       -50.5790   -6.5410  -13.9550 C.3   106  ARG106      0.2205
     49  NE       -50.0360   -7.8860  -13.7220 N.pl3 106  ARG106     -0.0865
     50  CZ       -48.7430   -8.2270  -13.7940 C.cat 106  ARG106      0.5346
     51  NH1      -47.7990   -7.3390  -14.1110 N.pl3 106  ARG106      0.1354
     52  NH2      -48.3830   -9.4770  -13.5290 N.pl3 106  ARG106      0.1354
     53  N        -50.9690   -7.1210  -20.0140 N.am  107  GLY107     -0.1940
     54  CA       -50.2700   -6.9700  -21.2930 C.3   107  GLY107      0.2014
     55  C        -48.7600   -7.1030  -21.1670 C.2   107  GLY107      0.2639
     56  O        -48.0120   -6.3460  -21.7830 O.2   107  GLY107     -0.2714
     57  N        -48.3220   -8.0900  -20.3890 N.am  108  ILE108     -0.1963
     58  CA       -46.9080   -8.2770  -20.0490 C.3   108  ILE108      0.1727
     59  C        -46.0700   -8.6200  -21.2830 C.2   108  ILE108      0.2617
     60  O        -44.8890   -8.2750  -21.3460 O.2   108  ILE108     -0.2715
     61  CB       -46.7300   -9.4200  -19.0010 C.3   108  ILE108      0.0290
     62  CG1      -47.4590   -9.0960  -17.6970 C.3   108  ILE108      0.0022
     63  CG2      -45.2710   -9.6590  -18.6870 C.3   108  ILE108      0.0023
     64  CD1      -47.4020  -10.2580  -16.6900 C.3   108  ILE108      0.0001
     65  N        -46.6860   -9.3140  -22.2430 N.am  109  GLY109     -0.1940
     66  CA       -46.0190   -9.7340  -23.4710 C.3   109  GLY109      0.2014
     67  C        -45.6250  -11.2010  -23.4810 C.2   109  GLY109      0.2638
     68  O        -44.6570  -11.5770  -24.1360 O.2   109  GLY109     -0.2714
     69  N        -46.3870  -12.0320  -22.7670 N.am  110  ILE110     -0.1977
     70  CA       -46.1050  -13.4640  -22.6600 C.3   110  ILE110      0.1596
     71  C        -46.0990  -14.1410  -24.0320 C.2   110  ILE110      0.2287
     72  O        -47.0020  -13.9350  -24.8440 O.2   110  ILE110     -0.2864
     73  CB       -47.1260  -14.1900  -21.7510 C.3   110  ILE110      0.0276
     74  CG1      -47.0830  -13.6300  -20.3220 C.3   110  ILE110      0.0022
     75  CG2      -46.8620  -15.6980  -21.7410 C.3   110  ILE110      0.0022
     76  CD1      -45.7180  -13.6850  -19.6710 C.3   110  ILE110      0.0001
     77  N        -45.1000  -17.9940  -26.1850 N.3   112  LYS112     -0.1245
     78  CA       -44.7650  -19.4130  -26.2440 C.3   112  LYS112      0.1561
     79  C        -44.2530  -19.6840  -27.6540 C.2   112  LYS112      0.2260
     80  O        -44.9180  -19.3150  -28.6230 O.2   112  LYS112     -0.2867
     81  CB       -46.0080  -20.2730  -26.0040 C.3   112  LYS112      0.0271
     82  CG       -45.7260  -21.7680  -25.8440 C.3   112  LYS112      0.0035
     83  CD       -47.0050  -22.5810  -26.0020 C.3   112  LYS112      0.0206
     84  CE       -46.8600  -23.9980  -25.4640 C.3   112  LYS112      0.1093
     85  NZ       -45.7360  -24.7560  -26.0350 N.3   112  LYS112     -0.1314
     86  N        -49.0740  -15.2220  -26.4330 N.3   117  VAL117     -0.1245
     87  CA       -50.1480  -16.0130  -25.8470 C.3   117  VAL117      0.1561
     88  C        -51.3230  -15.0780  -25.5900 C.2   117  VAL117      0.2260
     89  O        -51.3360  -14.3240  -24.6170 O.2   117  VAL117     -0.2867
     90  CB       -49.7010  -16.7180  -24.5440 C.3   117  VAL117      0.0252
     91  CG1      -50.8510  -17.5330  -23.9520 C.3   117  VAL117      0.0019
     92  CG2      -48.5020  -17.6100  -24.8140 C.3   117  VAL117      0.0019
     93  N        -55.2350  -19.5470  -20.9420 N.3   121  VAL121     -0.1245
     94  CA       -54.3900  -20.6960  -20.6600 C.3   121  VAL121      0.1561
     95  C        -55.2130  -21.5810  -19.7360 C.2   121  VAL121      0.2260
     96  O        -55.3800  -21.2720  -18.5560 O.2   121  VAL121     -0.2867
     97  CB       -53.0460  -20.2760  -20.0260 C.3   121  VAL121      0.0252
     98  CG1      -52.1900  -21.4990  -19.7220 C.3   121  VAL121      0.0019
     99  CG2      -52.3010  -19.3090  -20.9600 C.3   121  VAL121      0.0019
    100  N        -54.1460  -26.8500  -21.2480 N.3   125  ASP125     -0.1225
    101  CA       -52.8810  -26.2340  -21.6470 C.3   125  ASP125      0.1805
    102  C        -51.7610  -26.5530  -20.6600 C.2   125  ASP125      0.2598
    103  O        -50.5940  -26.6510  -21.0540 O.2   125  ASP125     -0.2718
    104  CB       -53.0340  -24.7190  -21.8160 C.3   125  ASP125      0.1424
    105  CG       -53.9570  -24.3510  -22.9630 C.2   125  ASP125      0.3668
    106  OD1      -53.8050  -24.9350  -24.0540 O.co2 125  ASP125     -0.2456
    107  OD2      -54.8360  -23.4850  -22.7770 O.co2 125  ASP125     -0.2456
    108  N        -52.1150  -26.7510  -19.3900 N.am  126  CYS126     -0.1970
    109  CA       -51.1370  -27.1170  -18.3670 C.3   126  CYS126      0.1712
    110  C        -51.1180  -28.6040  -18.0010 C.2   126  CYS126      0.2296
    111  O        -50.0890  -29.1040  -17.5660 O.2   126  CYS126     -0.2864
    112  CB       -51.3660  -26.2840  -17.1100 C.3   126  CYS126      0.0983
    113  SG       -51.0370  -24.5160  -17.3360 S.3   126  CYS126     -0.0798
    114  N        -47.3180  -30.8210  -13.5610 N.3   137  PRO137     -0.2102
    115  CA       -46.1670  -30.0320  -13.9810 C.3   137  PRO137      0.1504
    116  C        -45.1620  -29.6580  -12.8950 C.2   137  PRO137      0.2576
    117  O        -45.4280  -29.7900  -11.6870 O.2   137  PRO137     -0.2718
    118  CB       -46.8020  -28.7510  -14.5460 C.3   137  PRO137      0.0282
    119  CG       -48.2510  -29.0220  -14.6520 C.3   137  PRO137      0.0208
    120  CD       -48.5540  -30.0260  -13.6120 C.3   137  PRO137      0.0893
    121  N        -43.9990  -29.2080  -13.3610 N.am  138  THR138     -0.1953
    122  CA       -43.0000  -28.5550  -12.5330 C.3   138  THR138      0.1897
    123  C        -42.7630  -27.1810  -13.1570 C.2   138  THR138      0.2313
    124  O        -43.4990  -26.7790  -14.0620 O.2   138  THR138     -0.2863
    125  CB       -41.6870  -29.3490  -12.5330 C.3   138  THR138      0.1794
    126  OG1      -41.1390  -29.3600  -13.8550 O.3   138  THR138     -0.2208
    127  CG2      -41.9280  -30.7870  -12.0640 C.3   138  THR138      0.0378
    128  N        -42.8640  -26.6110  -17.1850 N.3   141  LEU141     -0.1231
    129  CA       -44.0330  -26.0810  -17.9010 C.3   141  LEU141      0.1693
    130  C        -44.0400  -24.5570  -17.9220 C.2   141  LEU141      0.2592
    131  O        -44.1470  -23.9450  -18.9830 O.2   141  LEU141     -0.2718
    132  CB       -45.3420  -26.5830  -17.2690 C.3   141  LEU141      0.0284
    133  CG       -46.6460  -25.9240  -17.7380 C.3   141  LEU141      0.0019
    134  CD1      -46.9490  -26.2800  -19.1910 C.3   141  LEU141      0.0001
    135  CD2      -47.8110  -26.3020  -16.8330 C.3   141  LEU141      0.0001
    136  N        -43.9360  -23.9490  -16.7440 N.am  142  CYS142     -0.1970
    137  CA       -44.0230  -22.4970  -16.6280 C.3   142  CYS142      0.1712
    138  C        -42.9610  -21.8190  -17.4900 C.2   142  CYS142      0.2296
    139  O        -43.2060  -20.7540  -18.0450 O.2   142  CYS142     -0.2864
    140  CB       -43.8860  -22.0490  -15.1680 C.3   142  CYS142      0.0983
    141  SG       -44.8340  -23.0360  -13.9660 S.3   142  CYS142     -0.0798
    142  N        -42.0830  -22.4610  -20.3950 N.3   144  ASP144     -0.1225
    143  CA       -42.6030  -22.2790  -21.7630 C.3   144  ASP144      0.1805
    144  C        -43.0570  -20.8440  -22.0160 C.2   144  ASP144      0.2598
    145  O        -42.8920  -20.3280  -23.1180 O.2   144  ASP144     -0.2718
    146  CB       -43.7760  -23.2270  -22.0540 C.3   144  ASP144      0.1424
    147  CG       -43.3600  -24.6870  -22.1580 C.2   144  ASP144      0.3668
    148  OD1      -44.2690  -25.5410  -22.2240 O.co2 144  ASP144     -0.2456
    149  OD2      -42.1490  -24.9870  -22.1700 O.co2 144  ASP144     -0.2456
    150  N        -43.6260  -20.2060  -20.9910 N.am  145  CYS145     -0.1956
    151  CA       -44.1540  -18.8520  -21.1150 C.3   145  CYS145      0.1843
    152  C        -43.5600  -17.8210  -20.1540 C.2   145  CYS145      0.2625
    153  O        -43.7900  -16.6240  -20.3340 O.2   145  CYS145     -0.2714
    154  CB       -45.6640  -18.8770  -20.9170 C.3   145  CYS145      0.0997
    155  SG       -46.5300  -19.9400  -22.0930 S.3   145  CYS145     -0.0797
    156  N        -42.8200  -18.2760  -19.1420 N.am  146  HIS146     -0.1973
    157  CA       -42.2130  -17.3800  -18.1490 C.3   146  HIS146      0.1656
    158  C        -40.7310  -17.7050  -17.9590 C.2   146  HIS146      0.2291
    159  O        -40.3120  -18.1130  -16.8680 O.2   146  HIS146     -0.2864
    160  CB       -42.9420  -17.5030  -16.8130 C.3   146  HIS146      0.0771
    161  CG       -44.4090  -17.2250  -16.8970 C.ar  146  HIS146      0.0820
    162  ND1      -44.9150  -15.9810  -17.1990 N.ar  146  HIS146     -0.2267
    163  CD2      -45.4780  -18.0290  -16.6980 C.ar  146  HIS146      0.1154
    164  CE1      -46.2340  -16.0310  -17.1870 C.ar  146  HIS146      0.1986
    165  NE2      -46.5990  -17.2630  -16.8880 N.ar  146  HIS146     -0.2212
    166  N        -43.6680  -23.6690   -8.8310 N.3   197  CYS197     -0.1235
    167  CA       -43.7520  -22.2280   -8.9430 C.3   197  CYS197      0.1677
    168  C        -44.9400  -21.7150   -8.1300 C.2   197  CYS197      0.2270
    169  O        -45.3770  -20.5780   -8.3030 O.2   197  CYS197     -0.2867
    170  CB       -43.9130  -21.8500  -10.4170 C.3   197  CYS197      0.0956
    171  SG       -42.4040  -22.0820  -11.3910 S.3   197  CYS197     -0.0801
    172  N        -46.9020  -17.6930   -4.7470 N.3   201  HIS201     -0.1241
    173  CA       -48.2180  -17.4540   -5.3530 C.3   201  HIS201      0.1621
    174  C        -48.8290  -18.8010   -5.7040 C.2   201  HIS201      0.2264
    175  O        -48.4700  -19.4190   -6.7080 O.2   201  HIS201     -0.2867
    176  CB       -48.1850  -16.5160   -6.5750 C.3   201  HIS201      0.0745
    177  CG       -46.9830  -16.6670   -7.4520 C.ar  201  HIS201      0.0817
    178  ND1      -46.7380  -17.7950   -8.2060 N.ar  201  HIS201     -0.2268
    179  CD2      -45.9680  -15.8100   -7.7150 C.ar  201  HIS201      0.1154
    180  CE1      -45.6140  -17.6320   -8.8800 C.ar  201  HIS201      0.1986
    181  NE2      -45.1320  -16.4330   -8.6060 N.ar  201  HIS201     -0.2212
    182  N        -54.8050  -19.4900   -8.5320 N.3   205  LYS205     -0.1231
    183  CA       -54.8990  -18.0490   -8.7910 C.3   205  LYS205      0.1693
    184  C        -53.5860  -17.4690   -9.3070 C.2   205  LYS205      0.2592
    185  O        -53.5950  -16.5250  -10.0990 O.2   205  LYS205     -0.2718
    186  CB       -55.3110  -17.2920   -7.5290 C.3   205  LYS205      0.0285
    187  CG       -56.7260  -17.5850   -7.0590 C.3   205  LYS205      0.0035
    188  CD       -57.1450  -16.6660   -5.9060 C.3   205  LYS205      0.0206
    189  CE       -57.5280  -15.2670   -6.3850 C.3   205  LYS205      0.1093
    190  NZ       -57.8920  -14.3730   -5.2460 N.3   205  LYS205     -0.1314
    191  N        -52.4670  -18.0320   -8.8500 N.am  206  PHE206     -0.1962
    192  CA       -51.1250  -17.5310   -9.1830 C.3   206  PHE206      0.1771
    193  C        -51.0500  -16.0080   -9.0810 C.2   206  PHE206      0.2620
    194  O        -50.6640  -15.3240  -10.0280 O.2   206  PHE206     -0.2715
    195  CB       -50.7050  -18.0040  -10.5770 C.3   206  PHE206      0.0574
    196  CG       -50.6820  -19.5000  -10.7280 C.ar  206  PHE206     -0.0200
    197  CD1      -49.7290  -20.2600  -10.0740 C.ar  206  PHE206     -0.0042
    198  CD2      -51.6110  -20.1480  -11.5350 C.ar  206  PHE206     -0.0042
    199  CE1      -49.7030  -21.6520  -10.2190 C.ar  206  PHE206     -0.0003
    200  CE2      -51.5850  -21.5280  -11.6870 C.ar  206  PHE206     -0.0003
    201  CZ       -50.6340  -22.2770  -11.0250 C.ar  206  PHE206     -0.0000
    202  N        -51.4240  -15.4920   -7.9110 N.am  207  ASP207     -0.1958
    203  CA       -51.5450  -14.0620   -7.6800 C.3   207  ASP207      0.1825
    204  C        -50.2640  -13.4790   -7.0600 C.2   207  ASP207      0.2464
    205  O        -49.9590  -13.7520   -5.8990 O.2   207  ASP207     -0.2730
    206  CB       -52.7460  -13.8230   -6.7630 C.3   207  ASP207      0.1450
    207  CG       -52.9500  -12.3660   -6.4140 C.2   207  ASP207      0.3671
    208  OD1      -52.4540  -11.4730   -7.1370 O.co2 207  ASP207     -0.2456
    209  OD2      -53.6310  -12.1210   -5.3980 O.co2 207  ASP207     -0.2456
    210  N        -49.5220  -12.6490   -7.8210 N.am  208  PRO208     -0.2727
    211  CA       -48.3270  -12.0290   -7.2440 C.3   208  PRO208      0.1402
    212  C        -48.5850  -11.2350   -5.9580 C.2   208  PRO208      0.2269
    213  O        -47.7030  -11.1660   -5.1030 O.2   208  PRO208     -0.2865
    214  CB       -47.8340  -11.1050   -8.3660 C.3   208  PRO208      0.0296
    215  CG       -48.3240  -11.7380   -9.6070 C.3   208  PRO208      0.0237
    216  CD       -49.6670  -12.3070   -9.2490 C.3   208  PRO208      0.0939
@<TRIPOS>BOND
     1    80    79    2
     2    79    78    1
     3    86    87    1
     4    78    77    1
     5    78    81    1
     6    85    84    1
     7    81    82    1
     8    83    82    1
     9    83    84    1
    10    87    88    1
    11    87    90    1
    12    88    89    2
    13    72    71    2
    14    92    90    1
    15    90    91    1
    16    68    67    2
    17   106   105   ar
    18    71    70    1
    19    67    66    1
    20    67    69   am
    21    66    65    1
    22   145   144    2
    23   105   107   ar
    24   105   104    1
    25    69    70    1
    26    70    73    1
    27    40    39    1
    28    65    59   am
    29   148   147   ar
    30   149   147   ar
    31   147   146    1
    32   155   154    1
    33   146   143    1
    34   144   143    1
    35   144   150   am
    36   104   101    1
    37    56    55    2
    38   143   142    1
    39    73    75    1
    40    73    74    1
    41   101   100    1
    42   101   102    1
    43    60    59    2
    44    54    55    1
    45    54    53    1
    46    59    58    1
    47    55    57   am
    48   151   150    1
    49   151   154    1
    50   151   152    1
    51    39    41    1
    52    39    38    2
    53   103   102    2
    54    99    97    1
    55    93    94    1
    56    94    97    1
    57    94    95    1
    58   102   108   am
    59    57    58    1
    60   153   152    2
    61    74    76    1
    62    37    38    1
    63    37    36    1
    64   152   156   am
    65    58    61    1
    66    97    98    1
    67    53    44   am
    68    95    96    2
    69   108   109    1
    70   134   133    1
    71   156   157    1
    72    35    36    1
    73    35    32    1
    74    45    44    2
    75    44    43    1
    76    61    63    1
    77    61    62    1
    78   131   130    2
    79    16    15    2
    80   109   110    1
    81   109   112    1
    82   157   158    1
    83   157   160    1
    84   139   138    2
    85   110   111    2
    86   158   159    2
    87   130   129    1
    88   130   136   am
    89   129   132    1
    90   129   128    1
    91    34    33    2
    92    10     9    2
    93    33    42   am
    94    33    32    1
    95    42    43    1
    96   133   132    1
    97   133   135    1
    98    43    46    1
    99    15    14    1
   100    32    31    1
   101    62    64    1
   102   138   137    1
   103   113   112    1
   104   162   164   ar
   105   162   161   ar
   106    14    17    1
   107    14    13    1
   108   164   165   ar
   109    31    25   am
   110   161   160    1
   111   161   163   ar
   112   165   163   ar
   113    20    18   ar
   114    20    22   ar
   115   136   137    1
   116     9    13   am
   117     9     8    1
   118   137   140    1
   119    17    18    1
   120    46    47    1
   121    23    24    1
   122    18    19   ar
   123    22    21   ar
   124    25    24    1
   125    25    26    2
   126    11     8    1
   127    11    12    1
   128     8     7    1
   129    24    27    1
   130    47    48    1
   131   140   141    1
   132    19    21   ar
   133     4     3    2
   134   119   118    1
   135   119   120    1
   136   118   115    1
   137     7     3   am
   138    28    27    1
   139    28    30    1
   140    51    50    1
   141   124   123    2
   142   115   114    1
   143   115   116    1
   144    27    29    1
   145    48    49    1
   146     3     2    1
   147   126   125    1
   148    50    49    2
   149    50    52    1
   150     6     5    1
   151   120   114    1
   152   121   116   am
   153   121   122    1
   154   123   122    1
   155   116   117    2
   156     5     2    1
   157   122   125    1
   158   125   127    1
   159     2     1    1
   160   200   198   ar
   161   200   201   ar
   162   198   196   ar
   163   171   170    1
   164   201   199   ar
   165   196   195    1
   166   196   197   ar
   167   195   192    1
   168   170   167    1
   169   199   197   ar
   170   185   184    2
   171   194   193    2
   172   215   216    1
   173   215   214    1
   174   184   191   am
   175   184   183    1
   176   216   210    1
   177   192   193    1
   178   192   191    1
   179   193   202   am
   180   167   166    1
   181   167   168    1
   182   180   181   ar
   183   180   178   ar
   184   183   182    1
   185   183   186    1
   186   181   179   ar
   187   214   211    1
   188   169   168    2
   189   178   177   ar
   190   202   203    1
   191   210   211    1
   192   210   204   am
   193   179   177   ar
   194   203   204    1
   195   203   206    1
   196   186   187    1
   197   177   176    1
   198   211   212    1
   199   208   207   ar
   200   204   205    2
   201   187   188    1
   202   206   207    1
   203   175   174    2
   204   176   173    1
   205   207   209   ar
   206   189   188    1
   207   189   190    1
   208   212   213    2
   209   174   173    1
   210   173   172    1
