@<TRIPOS>MOLECULE
tmp/4n4lA04.pdb
 221 208 0 0 0
SMALL
GASTEIGER

@<TRIPOS>ATOM
      1  N        -52.3180   -7.8010  -17.7640 N.3   106  ARG106     -0.1245
      2  CA       -51.6010   -6.5260  -17.7300 C.3   106  ARG106      0.1563
      3  C        -50.7930   -6.2700  -19.0060 C.2   106  ARG106      0.2260
      4  O        -50.0340   -5.3020  -19.0760 O.2   106  ARG106     -0.2867
      5  CB       -50.6890   -6.4890  -16.4970 C.3   106  ARG106      0.0307
      6  CG       -51.4700   -6.4500  -15.1910 C.3   106  ARG106      0.0489
      7  CD       -50.5790   -6.5410  -13.9550 C.3   106  ARG106      0.2205
      8  NE       -50.0360   -7.8860  -13.7220 N.pl3 106  ARG106     -0.0865
      9  CZ       -48.7430   -8.2270  -13.7940 C.cat 106  ARG106      0.5346
     10  NH1      -47.7990   -7.3390  -14.1110 N.pl3 106  ARG106      0.1354
     11  NH2      -48.3830   -9.4770  -13.5290 N.pl3 106  ARG106      0.1354
     12  N        -48.3220   -8.0900  -20.3890 N.3   108  ILE108     -0.1245
     13  CA       -46.9080   -8.2770  -20.0490 C.3   108  ILE108      0.1561
     14  C        -46.0700   -8.6200  -21.2830 C.2   108  ILE108      0.2260
     15  O        -44.8890   -8.2750  -21.3460 O.2   108  ILE108     -0.2867
     16  CB       -46.7300   -9.4200  -19.0010 C.3   108  ILE108      0.0252
     17  CG1      -47.4590   -9.0960  -17.6970 C.3   108  ILE108      0.0019
     18  CG2      -45.2710   -9.6590  -18.6870 C.3   108  ILE108      0.0019
     19  CD1      -47.4020  -10.2580  -16.6900 C.3   108  ILE108      0.0001
     20  N        -46.3870  -12.0320  -22.7670 N.3   110  ILE110     -0.1245
     21  CA       -46.1050  -13.4640  -22.6600 C.3   110  ILE110      0.1561
     22  C        -46.0990  -14.1410  -24.0320 C.2   110  ILE110      0.2260
     23  O        -47.0020  -13.9350  -24.8440 O.2   110  ILE110     -0.2867
     24  CB       -47.1260  -14.1900  -21.7510 C.3   110  ILE110      0.0252
     25  CG1      -47.0830  -13.6300  -20.3220 C.3   110  ILE110      0.0019
     26  CG2      -46.8620  -15.6980  -21.7410 C.3   110  ILE110      0.0019
     27  CD1      -45.7180  -13.6850  -19.6710 C.3   110  ILE110      0.0001
     28  N        -41.7310  -26.4750  -12.6990 N.3   139  TYR139     -0.1241
     29  CA       -41.3120  -25.2190  -13.3390 C.3   139  TYR139      0.1605
     30  C        -41.0160  -25.3810  -14.8370 C.2   139  TYR139      0.2264
     31  O        -41.0270  -24.3970  -15.5680 O.2   139  TYR139     -0.2867
     32  CB       -40.0860  -24.6140  -12.6330 C.3   139  TYR139      0.0534
     33  CG       -38.8990  -25.5490  -12.5690 C.ar  139  TYR139     -0.0201
     34  CD1      -38.5930  -26.2300  -11.4000 C.ar  139  TYR139     -0.0009
     35  CD2      -38.0860  -25.7570  -13.6820 C.ar  139  TYR139     -0.0009
     36  CE1      -37.5170  -27.0970  -11.3380 C.ar  139  TYR139      0.0417
     37  CE2      -37.0080  -26.6220  -13.6300 C.ar  139  TYR139      0.0417
     38  CZ       -36.7310  -27.2920  -12.4560 C.ar  139  TYR139      0.1957
     39  OH       -35.6630  -28.1520  -12.3870 O.3   139  TYR139     -0.2866
     40  N        -43.9360  -23.9490  -16.7440 N.3   142  CYS142     -0.1235
     41  CA       -44.0230  -22.4970  -16.6280 C.3   142  CYS142      0.1677
     42  C        -42.9610  -21.8190  -17.4900 C.2   142  CYS142      0.2270
     43  O        -43.2060  -20.7540  -18.0450 O.2   142  CYS142     -0.2867
     44  CB       -43.8860  -22.0490  -15.1680 C.3   142  CYS142      0.0956
     45  SG       -44.8340  -23.0360  -13.9660 S.3   142  CYS142     -0.0801
     46  N        -42.8200  -18.2760  -19.1420 N.3   146  HIS146     -0.1241
     47  CA       -42.2130  -17.3800  -18.1490 C.3   146  HIS146      0.1621
     48  C        -40.7310  -17.7050  -17.9590 C.2   146  HIS146      0.2264
     49  O        -40.3120  -18.1130  -16.8680 O.2   146  HIS146     -0.2867
     50  CB       -42.9420  -17.5030  -16.8130 C.3   146  HIS146      0.0745
     51  CG       -44.4090  -17.2250  -16.8970 C.ar  146  HIS146      0.0817
     52  ND1      -44.9150  -15.9810  -17.1990 N.ar  146  HIS146     -0.2268
     53  CD2      -45.4780  -18.0290  -16.6980 C.ar  146  HIS146      0.1154
     54  CE1      -46.2340  -16.0310  -17.1870 C.ar  146  HIS146      0.1986
     55  NE2      -46.5990  -17.2630  -16.8880 N.ar  146  HIS146     -0.2212
     56  N        -38.5450  -15.6090  -15.0070 N.3   149  GLU149     -0.1231
     57  CA       -38.8120  -16.0090  -13.6350 C.3   149  GLU149      0.1699
     58  C        -38.2710  -17.4110  -13.3730 C.2   149  GLU149      0.2592
     59  O        -37.7140  -17.6830  -12.3080 O.2   149  GLU149     -0.2718
     60  CB       -40.3100  -15.9350  -13.3250 C.3   149  GLU149      0.0402
     61  CG       -40.8610  -14.5180  -13.2510 C.3   149  GLU149      0.1161
     62  CD       -41.1170  -13.8720  -14.6040 C.2   149  GLU149      0.3649
     63  OE1      -41.2350  -12.6320  -14.6420 O.co2 149  GLU149     -0.2457
     64  OE2      -41.2030  -14.5890  -15.6250 O.co2 149  GLU149     -0.2457
     65  N        -38.4060  -18.2930  -14.3580 N.am  150  THR150     -0.1953
     66  CA       -37.9080  -19.6560  -14.2360 C.3   150  THR150      0.1897
     67  C        -36.3830  -19.6970  -14.1670 C.2   150  THR150      0.2313
     68  O        -35.8240  -20.3750  -13.3070 O.2   150  THR150     -0.2863
     69  CB       -38.4000  -20.5380  -15.3910 C.3   150  THR150      0.1794
     70  OG1      -39.8290  -20.4690  -15.4620 O.3   150  THR150     -0.2208
     71  CG2      -37.9660  -21.9840  -15.1860 C.3   150  THR150      0.0378
     72  N        -35.4090  -18.5440  -10.7460 N.3   153  HIS153     -0.1241
     73  CA       -35.7770  -19.6060   -9.8000 C.3   153  HIS153      0.1621
     74  C        -34.7470  -20.7420   -9.8240 C.2   153  HIS153      0.2264
     75  O        -34.4950  -21.3820   -8.7960 O.2   153  HIS153     -0.2867
     76  CB       -37.1830  -20.1220  -10.1410 C.3   153  HIS153      0.0745
     77  CG       -37.7490  -21.0890   -9.1480 C.ar  153  HIS153      0.0817
     78  ND1      -37.8910  -20.7900   -7.8090 N.ar  153  HIS153     -0.2268
     79  CD2      -38.2560  -22.3350   -9.3120 C.ar  153  HIS153      0.1154
     80  CE1      -38.4370  -21.8200   -7.1890 C.ar  153  HIS153      0.1986
     81  NE2      -38.6730  -22.7690   -8.0790 N.ar  153  HIS153     -0.2212
     82  N        -33.7640  -22.2830   -2.9970 N.3   161  HIS161     -0.1241
     83  CA       -34.8740  -23.0600   -3.5580 C.3   161  HIS161      0.1621
     84  C        -34.3960  -23.9960   -4.6690 C.2   161  HIS161      0.2264
     85  O        -34.8750  -25.1120   -4.7810 O.2   161  HIS161     -0.2867
     86  CB       -35.9670  -22.1340   -4.1040 C.3   161  HIS161      0.0745
     87  CG       -36.5140  -21.1880   -3.0830 C.ar  161  HIS161      0.0817
     88  ND1      -36.9070  -19.8990   -3.3790 N.ar  161  HIS161     -0.2268
     89  CD2      -36.7030  -21.3450   -1.7540 C.ar  161  HIS161      0.1154
     90  CE1      -37.3250  -19.3070   -2.2720 C.ar  161  HIS161      0.1986
     91  NE2      -37.2020  -20.1600   -1.2720 N.ar  161  HIS161     -0.2212
     92  N        -40.4690  -25.9700   -2.8650 N.3   193  ALA193     -0.1245
     93  CA       -39.5770  -24.8370   -3.1050 C.3   193  ALA193      0.1562
     94  C        -38.7900  -25.0050   -4.4060 C.2   193  ALA193      0.2260
     95  O        -38.6480  -24.0590   -5.1620 O.2   193  ALA193     -0.2867
     96  CB       -38.6140  -24.6490   -1.9220 C.3   193  ALA193      0.0290
     97  N        -41.6090  -26.5300   -7.9330 N.3   196  ARG196     -0.1231
     98  CA       -42.8370  -25.8130   -8.2390 C.3   196  ARG196      0.1694
     99  C        -42.6390  -24.3150   -8.3020 C.2   196  ARG196      0.2592
    100  O        -41.5970  -23.7740   -7.9030 O.2   196  ARG196     -0.2718
    101  CB       -43.9110  -26.1340   -7.2070 C.3   196  ARG196      0.0321
    102  CG       -44.1610  -27.6210   -7.0400 C.3   196  ARG196      0.0489
    103  CD       -45.3250  -27.8600   -6.0980 C.3   196  ARG196      0.2205
    104  NE       -45.9190  -29.1730   -6.2810 N.pl3 196  ARG196     -0.0865
    105  CZ       -46.9420  -29.6350   -5.5700 C.cat 196  ARG196      0.5346
    106  NH1      -47.4900  -28.8960   -4.6120 N.pl3 196  ARG196      0.1354
    107  NH2      -47.4150  -30.8470   -5.8170 N.pl3 196  ARG196      0.1354
    108  N        -43.6680  -23.6690   -8.8310 N.am  197  CYS197     -0.1970
    109  CA       -43.7520  -22.2280   -8.9430 C.3   197  CYS197      0.1712
    110  C        -44.9400  -21.7150   -8.1300 C.2   197  CYS197      0.2296
    111  O        -45.3770  -20.5780   -8.3030 O.2   197  CYS197     -0.2864
    112  CB       -43.9130  -21.8500  -10.4170 C.3   197  CYS197      0.0983
    113  SG       -42.4040  -22.0820  -11.3910 S.3   197  CYS197     -0.0798
    114  N        -45.1230  -22.1080   -4.5330 N.3   199  GLY199     -0.1210
    115  CA       -44.7900  -21.9540   -3.1150 C.3   199  GLY199      0.1956
    116  C        -45.2200  -20.6150   -2.5320 C.2   199  GLY199      0.2612
    117  O        -45.6190  -20.5400   -1.3630 O.2   199  GLY199     -0.2717
    118  N        -45.1430  -19.5610   -3.3470 N.am  200  CYS200     -0.1956
    119  CA       -45.4110  -18.1950   -2.8920 C.3   200  CYS200      0.1843
    120  C        -46.7330  -17.6630   -3.4240 C.2   200  CYS200      0.2625
    121  O        -47.5760  -17.2180   -2.6460 O.2   200  CYS200     -0.2714
    122  CB       -44.2640  -17.2780   -3.2990 C.3   200  CYS200      0.0997
    123  SG       -42.6520  -17.9310   -2.8160 S.3   200  CYS200     -0.0797
    124  N        -46.9020  -17.6930   -4.7470 N.am  201  HIS201     -0.1973
    125  CA       -48.2180  -17.4540   -5.3530 C.3   201  HIS201      0.1656
    126  C        -48.8290  -18.8010   -5.7040 C.2   201  HIS201      0.2291
    127  O        -48.4700  -19.4190   -6.7080 O.2   201  HIS201     -0.2864
    128  CB       -48.1850  -16.5160   -6.5750 C.3   201  HIS201      0.0771
    129  CG       -46.9830  -16.6670   -7.4520 C.ar  201  HIS201      0.0820
    130  ND1      -46.7380  -17.7950   -8.2060 N.ar  201  HIS201     -0.2267
    131  CD2      -45.9680  -15.8100   -7.7150 C.ar  201  HIS201      0.1154
    132  CE1      -45.6140  -17.6320   -8.8800 C.ar  201  HIS201      0.1986
    133  NE2      -45.1320  -16.4330   -8.6060 N.ar  201  HIS201     -0.2212
    134  N        -49.5220  -12.6490   -7.8210 N.3   208  PRO208     -0.2116
    135  CA       -48.3270  -12.0290   -7.2440 C.3   208  PRO208      0.1372
    136  C        -48.5850  -11.2350   -5.9580 C.2   208  PRO208      0.2244
    137  O        -47.7030  -11.1660   -5.1030 O.2   208  PRO208     -0.2868
    138  CB       -47.8340  -11.1050   -8.3660 C.3   208  PRO208      0.0268
    139  CG       -48.3240  -11.7380   -9.6070 C.3   208  PRO208      0.0207
    140  CD       -49.6670  -12.3070   -9.2490 C.3   208  PRO208      0.0892
    141  N        -48.1770  -13.4230   -3.2040 N.3   211  ALA211     -0.1231
    142  CA       -46.7720  -13.8030   -3.0680 C.3   211  ALA211      0.1694
    143  C        -45.9230  -12.7600   -2.3340 C.2   211  ALA211      0.2591
    144  O        -44.8680  -13.0860   -1.8030 O.2   211  ALA211     -0.2718
    145  CB       -46.1750  -14.0860   -4.4420 C.3   211  ALA211      0.0304
    146  N        -46.3780  -11.5090   -2.3270 N.am  212  ARG212     -0.1980
    147  CA       -45.6560  -10.4280   -1.6660 C.3   212  ARG212      0.1597
    148  C        -45.8180  -10.4570   -0.1370 C.2   212  ARG212      0.2287
    149  O        -45.0070   -9.8780    0.5850 O.2   212  ARG212     -0.2864
    150  CB       -46.1150   -9.0790   -2.2140 C.3   212  ARG212      0.0334
    151  CG       -45.7540   -8.8680   -3.6650 C.3   212  ARG212      0.0492
    152  CD       -46.4100   -7.6340   -4.2430 C.3   212  ARG212      0.2205
    153  NE       -46.1650   -7.5950   -5.6810 N.pl3 212  ARG212     -0.0865
    154  CZ       -47.0840   -7.4790   -6.6350 C.cat 212  ARG212      0.5346
    155  NH1      -48.3760   -7.3330   -6.3520 N.pl3 212  ARG212      0.1354
    156  NH2      -46.6870   -7.4810   -7.9040 N.pl3 212  ARG212      0.1354
    157  N        -44.1770  -17.1010    2.5930 N.3   217  CYS217     -0.1235
    158  CA       -42.8760  -17.6560    2.9810 C.3   217  CYS217      0.1677
    159  C        -42.8880  -18.4240    4.3040 C.2   217  CYS217      0.2270
    160  O        -42.1100  -19.3640    4.4630 O.2   217  CYS217     -0.2867
    161  CB       -41.8240  -16.5350    3.1010 C.3   217  CYS217      0.0956
    162  SG       -41.8870  -15.2390    1.8560 S.3   217  CYS217     -0.0801
    163  N        -46.0980   -3.4270   -7.2980 N.3   253  LYS253     -0.1231
    164  CA       -44.8790   -4.2040   -7.4800 C.3   253  LYS253      0.1693
    165  C        -43.8890   -3.8860   -6.3720 C.2   253  LYS253      0.2591
    166  O        -43.8930   -2.7820   -5.8210 O.2   253  LYS253     -0.2718
    167  CB       -44.2350   -3.9210   -8.8370 C.3   253  LYS253      0.0285
    168  CG       -44.9710   -4.5490  -10.0070 C.3   253  LYS253      0.0035
    169  CD       -44.1390   -4.4780  -11.2690 C.3   253  LYS253      0.0206
    170  CE       -44.8320   -5.1520  -12.4440 C.3   253  LYS253      0.1093
    171  NZ       -43.9990   -5.0060  -13.6690 N.3   253  LYS253     -0.1314
    172  N        -43.0500   -4.8640   -6.0500 N.am  254  LEU254     -0.1980
    173  CA       -42.0120   -4.6850   -5.0400 C.3   254  LEU254      0.1596
    174  C        -40.9800   -3.7130   -5.5910 C.2   254  LEU254      0.2287
    175  O        -40.1220   -4.0910   -6.3840 O.2   254  LEU254     -0.2864
    176  CB       -41.3640   -6.0220   -4.6890 C.3   254  LEU254      0.0297
    177  CG       -42.3140   -7.0510   -4.0720 C.3   254  LEU254      0.0022
    178  CD1      -41.6120   -8.4070   -3.9680 C.3   254  LEU254      0.0001
    179  CD2      -42.8310   -6.5940   -2.7100 C.3   254  LEU254      0.0001
    180  N        -40.4770  -10.8260    0.8510 N.3   265  ALA265     -0.1245
    181  CA       -40.3460  -10.6570   -0.5950 C.3   265  ALA265      0.1562
    182  C        -39.7400   -9.3020   -0.9590 C.2   265  ALA265      0.2260
    183  O        -38.9120   -9.2180   -1.8660 O.2   265  ALA265     -0.2867
    184  CB       -41.7000  -10.8410   -1.2800 C.3   265  ALA265      0.0290
    185  N        -36.7210  -10.7060   -2.5330 N.3   269  MET269     -0.1245
    186  CA       -37.0160  -10.7380   -3.9690 C.3   269  MET269      0.1570
    187  C        -37.0400   -9.2990   -4.4670 C.2   269  MET269      0.2261
    188  O        -38.0380   -8.8150   -5.0130 O.2   269  MET269     -0.2867
    189  CB       -38.3450  -11.4510   -4.2440 C.3   269  MET269      0.0387
    190  CG       -38.3000  -12.9490   -3.9600 C.3   269  MET269      0.0595
    191  SD       -39.8210  -13.7900   -4.4410 S.3   269  MET269     -0.1393
    192  CE       -39.8310  -13.4610   -6.2030 C.3   269  MET269      0.0692
    193  N        -37.0850   -6.0340   -6.2780 N.3   271  ASN271     -0.1225
    194  CA       -37.5190   -5.6910   -7.6310 C.3   271  ASN271      0.1785
    195  C        -38.0190   -6.9130   -8.4080 C.2   271  ASN271      0.2597
    196  O        -37.8920   -6.9820   -9.6300 O.2   271  ASN271     -0.2718
    197  CB       -36.3960   -4.9680   -8.3680 C.3   271  ASN271      0.1169
    198  CG       -36.0110   -3.6750   -7.6850 C.2   271  ASN271      0.2627
    199  OD1      -36.8590   -2.8150   -7.4590 O.2   271  ASN271     -0.2716
    200  ND2      -34.7390   -3.5430   -7.3190 N.am  271  ASN271     -0.0877
    201  N        -38.5920   -7.8710   -7.6770 N.am  272  GLY272     -0.1957
    202  CA       -39.2080   -9.0520   -8.2770 C.3   272  GLY272      0.1869
    203  C        -38.2480  -10.1550   -8.6710 C.2   272  GLY272      0.2309
    204  O        -38.6230  -11.0590   -9.4190 O.2   272  GLY272     -0.2863
    205  N        -36.4810  -13.4370   -8.7680 N.3   274  HIS274     -0.1241
    206  CA       -36.8960  -14.7780   -8.3550 C.3   274  HIS274      0.1621
    207  C        -35.7560  -15.6960   -7.8970 C.2   274  HIS274      0.2264
    208  O        -35.9730  -16.8930   -7.6960 O.2   274  HIS274     -0.2867
    209  CB       -37.6780  -15.4330   -9.4840 C.3   274  HIS274      0.0745
    210  CG       -39.1180  -15.0550   -9.4990 C.ar  274  HIS274      0.0817
    211  ND1      -39.5490  -13.7540   -9.6560 N.ar  274  HIS274     -0.2268
    212  CD2      -40.2300  -15.8100   -9.3600 C.ar  274  HIS274      0.1154
    213  CE1      -40.8690  -13.7280   -9.6150 C.ar  274  HIS274      0.1986
    214  NE2      -41.3040  -14.9620   -9.4330 N.ar  274  HIS274     -0.2212
    215  N        -34.0260  -15.2600   -4.7710 N.3   276  PRO276     -0.2116
    216  CA       -33.8790  -14.5040   -3.5190 C.3   276  PRO276      0.1372
    217  C        -32.5730  -14.7340   -2.7500 C.2   276  PRO276      0.2244
    218  O        -32.1390  -13.8450   -2.0160 O.2   276  PRO276     -0.2868
    219  CB       -35.0910  -14.9570   -2.6800 C.3   276  PRO276      0.0268
    220  CG       -35.5440  -16.2100   -3.2950 C.3   276  PRO276      0.0207
    221  CD       -35.2290  -16.1100   -4.7490 C.3   276  PRO276      0.0892
@<TRIPOS>BOND
     1    23    22    2
     2    22    21    1
     3    20    21    1
     4    21    24    1
     5    24    26    1
     6    24    25    1
     7    15    14    2
     8    14    13    1
     9    12    13    1
    10    25    27    1
    11    13    16    1
    12    46    47    1
    13     4     3    2
    14     3     2    1
    15    16    18    1
    16    16    17    1
    17    47    48    1
    18    47    50    1
    19    43    42    2
    20    48    49    2
    21     1     2    1
    22     2     5    1
    23    17    19    1
    24    42    41    1
    25    52    54   ar
    26    52    51   ar
    27    54    55   ar
    28    51    50    1
    29    51    53   ar
    30    55    53   ar
    31    40    41    1
    32    41    44    1
    33     5     6    1
    34    64    62   ar
    35    31    30    2
    36    70    69    1
    37    69    71    1
    38    69    66    1
    39     6     7    1
    40    44    45    1
    41    56    57    1
    42    30    29    1
    43    63    62   ar
    44    62    61    1
    45    65    66    1
    46    65    58   am
    47    66    67    1
    48    67    68    2
    49    10     9    1
    50     7     8    1
    51     9     8    2
    52     9    11    1
    53    35    37   ar
    54    35    33   ar
    55   171   170    1
    56    57    58    1
    57    57    60    1
    58    37    38   ar
    59    58    59    2
    60    29    28    1
    61    29    32    1
    62    60    61    1
    63    32    33    1
    64    33    34   ar
    65    38    39    1
    66    38    36   ar
    67   170   169    1
    68    34    36   ar
    69   113   112    1
    70   169   168    1
    71    72    73    1
    72   112   109    1
    73    76    73    1
    74    76    77    1
    75   168   167    1
    76    74    73    1
    77    74    75    2
    78   211   213   ar
    79   211   210   ar
    80   196   195    2
    81   213   214   ar
    82   139   140    1
    83   139   138    1
    84   210   209    1
    85   210   212   ar
    86   209   206    1
    87   214   212   ar
    88   204   203    2
    89    79    77   ar
    90    79    81   ar
    91   140   134    1
    92    77    78   ar
    93   109   108    1
    94   109   110    1
    95   132   133   ar
    96   132   130   ar
    97   167   164    1
    98   108    99   am
    99   205   206    1
   100   203   202    1
   101   133   131   ar
   102   195   201   am
   103   195   194    1
   104   197   198    1
   105   197   194    1
   106   138   135    1
   107   206   207    1
   108   111   110    2
   109    99    98    1
   110    99   100    2
   111   202   201    1
   112    98    97    1
   113    98   101    1
   114   130   129   ar
   115    81    80   ar
   116   156   154    1
   117   207   208    2
   118   134   135    1
   119    78    80   ar
   120   131   129   ar
   121   198   199    2
   122   198   200   am
   123   194   193    1
   124   164   163    1
   125   164   165    1
   126   129   128    1
   127   135   136    1
   128   101   102    1
   129   102   103    1
   130   127   126    2
   131   154   155    1
   132   154   153    2
   133   128   125    1
   134   175   174    2
   135   165   172   am
   136   165   166    2
   137   104   103    1
   138   104   105    2
   139   192   191    1
   140   172   173    1
   141   136   137    2
   142   107   105    1
   143   126   125    1
   144   153   152    1
   145   174   173    1
   146   105   106    1
   147   125   124    1
   148    95    94    2
   149   173   176    1
   150   188   187    2
   151    85    84    2
   152   215   221    1
   153   215   216    1
   154   221   220    1
   155   124   120   am
   156   176   177    1
   157    84    83    1
   158   114   115    1
   159   187   186    1
   160   145   142    1
   161   191   190    1
   162    94    93    1
   163   189   186    1
   164   189   190    1
   165   152   151    1
   166    86    83    1
   167    86    87    1
   168   177   178    1
   169   177   179    1
   170   186   185    1
   171   151   150    1
   172    83    82    1
   173   216   217    1
   174   216   219    1
   175   120   119    1
   176   120   121    2
   177    88    87   ar
   178    88    90   ar
   179   118   119    1
   180   118   116   am
   181   122   119    1
   182   122   123    1
   183   220   219    1
   184   141   142    1
   185   115   116    1
   186    93    92    1
   187    93    96    1
   188    87    89   ar
   189   142   143    1
   190   217   218    2
   191   116   117    2
   192   143   146   am
   193   143   144    2
   194   146   147    1
   195    90    91   ar
   196   150   147    1
   197   183   182    2
   198    89    91   ar
   199   147   148    1
   200   184   181    1
   201   182   181    1
   202   181   180    1
   203   148   149    2
   204   162   161    1
   205   157   158    1
   206   158   161    1
   207   158   159    1
   208   159   160    2
