@<TRIPOS>MOLECULE
tmp/4n4lA05.pdb
 195 187 0 0 0
SMALL
GASTEIGER

@<TRIPOS>ATOM
      1  N        -28.4520  -24.2940   -0.7400 N.3   159  GLY159     -0.1210
      2  CA       -29.1070  -23.5370    0.3150 C.3   159  GLY159      0.1956
      3  C        -30.2340  -22.6590   -0.1870 C.2   159  GLY159      0.2613
      4  O        -30.8680  -21.9560    0.6060 O.2   159  GLY159     -0.2717
      5  N        -30.4720  -22.6890   -1.5000 N.am  160  SER160     -0.1938
      6  CA       -31.5460  -21.9330   -2.1270 C.3   160  SER160      0.2055
      7  C        -32.6620  -22.8700   -2.5490 C.2   160  SER160      0.2643
      8  O        -32.5120  -24.0940   -2.5140 O.2   160  SER160     -0.2714
      9  CB       -31.0390  -21.1940   -3.3700 C.3   160  SER160      0.2130
     10  OG       -30.7940  -22.0880   -4.4470 O.3   160  SER160     -0.2179
     11  N        -33.7640  -22.2830   -2.9970 N.am  161  HIS161     -0.1973
     12  CA       -34.8740  -23.0600   -3.5580 C.3   161  HIS161      0.1656
     13  C        -34.3960  -23.9960   -4.6690 C.2   161  HIS161      0.2291
     14  O        -34.8750  -25.1120   -4.7810 O.2   161  HIS161     -0.2864
     15  CB       -35.9670  -22.1340   -4.1040 C.3   161  HIS161      0.0771
     16  CG       -36.5140  -21.1880   -3.0830 C.ar  161  HIS161      0.0820
     17  ND1      -36.9070  -19.8990   -3.3790 N.ar  161  HIS161     -0.2267
     18  CD2      -36.7030  -21.3450   -1.7540 C.ar  161  HIS161      0.1154
     19  CE1      -37.3250  -19.3070   -2.2720 C.ar  161  HIS161      0.1986
     20  NE2      -37.2020  -20.1600   -1.2720 N.ar  161  HIS161     -0.2212
     21  N        -31.9270  -25.9790   -5.2810 N.3   163  HIS163     -0.1226
     22  CA       -31.4240  -27.3210   -4.9860 C.3   163  HIS163      0.1752
     23  C        -32.0060  -27.8990   -3.6990 C.2   163  HIS163      0.2595
     24  O        -31.4740  -28.8700   -3.1600 O.2   163  HIS163     -0.2718
     25  CB       -29.8910  -27.2890   -4.9200 C.3   163  HIS163      0.0759
     26  CG       -29.2490  -26.8120   -6.1860 C.ar  163  HIS163      0.0818
     27  ND1      -29.4150  -27.4620   -7.3880 N.ar  163  HIS163     -0.2268
     28  CD2      -28.4440  -25.7520   -6.4380 C.ar  163  HIS163      0.1154
     29  CE1      -28.7450  -26.8180   -8.3290 C.ar  163  HIS163      0.1986
     30  NE2      -28.1440  -25.7790   -7.7780 N.ar  163  HIS163     -0.2212
     31  N        -33.1230  -27.3300   -3.2420 N.am  164  ALA164     -0.1980
     32  CA       -33.7220  -27.6810   -1.9540 C.3   164  ALA164      0.1597
     33  C        -33.9950  -29.1750   -1.7920 C.2   164  ALA164      0.2287
     34  O        -33.8110  -29.7290   -0.7040 O.2   164  ALA164     -0.2864
     35  CB       -35.0170  -26.8810   -1.7410 C.3   164  ALA164      0.0319
     36  N        -30.5820  -31.0700   -1.1360 N.3   168  ASN168     -0.1240
     37  CA       -30.7760  -30.9810    0.3090 C.3   168  ASN168      0.1653
     38  C        -31.9160  -31.8110    0.8920 C.2   168  ASN168      0.2266
     39  O        -32.1620  -31.7620    2.0920 O.2   168  ASN168     -0.2867
     40  CB       -30.8240  -29.5090    0.7690 C.3   168  ASN168      0.1155
     41  CG       -29.4310  -28.9360    1.0060 C.2   168  ASN168      0.2627
     42  OD1      -28.4350  -29.6640    0.9370 O.2   168  ASN168     -0.2716
     43  ND2      -29.3500  -27.6350    1.2800 N.am  168  ASN168     -0.0877
     44  N        -41.7630  -30.1330    1.5420 N.3   189  CYS189     -0.1221
     45  CA       -41.4750  -28.7220    1.7720 C.3   189  CYS189      0.1808
     46  C        -40.3390  -28.2740    0.8670 C.2   189  CYS189      0.2601
     47  O        -40.4310  -27.2450    0.1830 O.2   189  CYS189     -0.2717
     48  CB       -41.0870  -28.4590    3.2220 C.3   189  CYS189      0.0970
     49  SG       -40.6590  -26.7280    3.4950 S.3   189  CYS189     -0.0800
     50  N        -39.2730  -29.0640    0.8600 N.am  190  HIS190     -0.1975
     51  CA       -38.1050  -28.7580    0.0480 C.3   190  HIS190      0.1656
     52  C        -38.4260  -28.9060   -1.4580 C.2   190  HIS190      0.2291
     53  O        -38.0170  -28.0740   -2.2610 O.2   190  HIS190     -0.2864
     54  CB       -36.8920  -29.5940    0.5190 C.3   190  HIS190      0.0771
     55  CG       -36.1600  -28.9980    1.6950 C.ar  190  HIS190      0.0820
     56  ND1      -34.8950  -28.4650    1.5860 N.ar  190  HIS190     -0.2267
     57  CD2      -36.5150  -28.8460    2.9970 C.ar  190  HIS190      0.1154
     58  CE1      -34.5060  -27.9980    2.7610 C.ar  190  HIS190      0.1986
     59  NE2      -35.4670  -28.2210    3.6400 N.ar  190  HIS190     -0.2212
     60  N        -41.4510  -28.5770   -2.9210 N.3   192  ILE192     -0.1231
     61  CA       -42.3200  -27.4740   -3.3300 C.3   192  ILE192      0.1692
     62  C        -41.4700  -26.2640   -3.6970 C.2   192  ILE192      0.2591
     63  O        -41.7100  -25.6180   -4.7220 O.2   192  ILE192     -0.2718
     64  CB       -43.3370  -27.0760   -2.2430 C.3   192  ILE192      0.0266
     65  CG1      -44.4210  -28.1480   -2.1060 C.3   192  ILE192      0.0019
     66  CG2      -43.9850  -25.7440   -2.5950 C.3   192  ILE192      0.0020
     67  CD1      -45.2700  -28.0200   -0.8400 C.3   192  ILE192      0.0001
     68  N        -40.4690  -25.9700   -2.8650 N.am  193  ALA193     -0.1980
     69  CA       -39.5770  -24.8370   -3.1050 C.3   193  ALA193      0.1597
     70  C        -38.7900  -25.0050   -4.4060 C.2   193  ALA193      0.2287
     71  O        -38.6480  -24.0590   -5.1620 O.2   193  ALA193     -0.2864
     72  CB       -38.6140  -24.6490   -1.9220 C.3   193  ALA193      0.0319
     73  N        -45.1230  -22.1080   -4.5330 N.3   199  GLY199     -0.1210
     74  CA       -44.7900  -21.9540   -3.1150 C.3   199  GLY199      0.1956
     75  C        -45.2200  -20.6150   -2.5320 C.2   199  GLY199      0.2612
     76  O        -45.6190  -20.5400   -1.3630 O.2   199  GLY199     -0.2717
     77  N        -45.1430  -19.5610   -3.3470 N.am  200  CYS200     -0.1970
     78  CA       -45.4110  -18.1950   -2.8920 C.3   200  CYS200      0.1712
     79  C        -46.7330  -17.6630   -3.4240 C.2   200  CYS200      0.2296
     80  O        -47.5760  -17.2180   -2.6460 O.2   200  CYS200     -0.2864
     81  CB       -44.2640  -17.2780   -3.2990 C.3   200  CYS200      0.0983
     82  SG       -42.6520  -17.9310   -2.8160 S.3   200  CYS200     -0.0798
     83  N        -48.1770  -13.4230   -3.2040 N.3   211  ALA211     -0.1245
     84  CA       -46.7720  -13.8030   -3.0680 C.3   211  ALA211      0.1562
     85  C        -45.9230  -12.7600   -2.3340 C.2   211  ALA211      0.2260
     86  O        -44.8680  -13.0860   -1.8030 O.2   211  ALA211     -0.2867
     87  CB       -46.1750  -14.0860   -4.4420 C.3   211  ALA211      0.0290
     88  N        -46.6040  -15.9190    2.2220 N.3   216  ALA216     -0.1231
     89  CA       -46.0440  -16.6180    1.0740 C.3   216  ALA216      0.1694
     90  C        -44.7300  -17.3310    1.3980 C.2   216  ALA216      0.2592
     91  O        -44.2160  -18.0620    0.5560 O.2   216  ALA216     -0.2718
     92  CB       -45.8180  -15.6260   -0.0790 C.3   216  ALA216      0.0304
     93  N        -44.1770  -17.1010    2.5930 N.am  217  CYS217     -0.1970
     94  CA       -42.8760  -17.6560    2.9810 C.3   217  CYS217      0.1712
     95  C        -42.8880  -18.4240    4.3040 C.2   217  CYS217      0.2296
     96  O        -42.1100  -19.3640    4.4630 O.2   217  CYS217     -0.2864
     97  CB       -41.8240  -16.5350    3.1010 C.3   217  CYS217      0.0983
     98  SG       -41.8870  -15.2390    1.8560 S.3   217  CYS217     -0.0798
     99  N        -44.7380  -20.5880    6.0310 N.3   219  VAL219     -0.1231
    100  CA       -45.0580  -22.0120    6.1810 C.3   219  VAL219      0.1692
    101  C        -43.7630  -22.8400    6.1840 C.2   219  VAL219      0.2592
    102  O        -43.6450  -23.8350    6.9040 O.2   219  VAL219     -0.2718
    103  CB       -46.0390  -22.4770    5.0660 C.3   219  VAL219      0.0266
    104  CG1      -46.1540  -23.9840    4.9890 C.3   219  VAL219      0.0020
    105  CG2      -47.4180  -21.8600    5.3020 C.3   219  VAL219      0.0020
    106  N        -42.7830  -22.3890    5.4060 N.am  220  CYS220     -0.1956
    107  CA       -41.4960  -23.0650    5.3070 C.3   220  CYS220      0.1843
    108  C        -40.4130  -22.3860    6.1340 C.2   220  CYS220      0.2625
    109  O        -39.5760  -23.0560    6.7370 O.2   220  CYS220     -0.2714
    110  CB       -41.0590  -23.1030    3.8490 C.3   220  CYS220      0.0997
    111  SG       -42.3660  -23.6520    2.7110 S.3   220  CYS220     -0.0797
    112  N        -40.4330  -21.0560    6.1560 N.am  221  HIS221     -0.1973
    113  CA       -39.4010  -20.2680    6.8160 C.3   221  HIS221      0.1656
    114  C        -39.7610  -19.9700    8.2640 C.2   221  HIS221      0.2291
    115  O        -39.9010  -18.8120    8.6570 O.2   221  HIS221     -0.2864
    116  CB       -39.1600  -18.9730    6.0400 C.3   221  HIS221      0.0771
    117  CG       -38.3140  -19.1700    4.8270 C.ar  221  HIS221      0.0820
    118  ND1      -36.9380  -19.2070    4.8860 N.ar  221  HIS221     -0.2267
    119  CD2      -38.6430  -19.3640    3.5290 C.ar  221  HIS221      0.1154
    120  CE1      -36.4560  -19.4150    3.6750 C.ar  221  HIS221      0.1986
    121  NE2      -37.4700  -19.5080    2.8360 N.ar  221  HIS221     -0.2212
    122  N        -40.7520  -10.1420    3.6130 N.3   264  CYS264     -0.1221
    123  CA       -39.7270  -11.0880    3.1400 C.3   264  CYS264      0.1808
    124  C        -39.4170  -10.8610    1.6580 C.2   264  CYS264      0.2601
    125  O        -38.2540  -10.7240    1.2560 O.2   264  CYS264     -0.2717
    126  CB       -40.2050  -12.5380    3.3100 C.3   264  CYS264      0.0970
    127  SG       -41.2310  -12.9050    4.7490 S.3   264  CYS264     -0.0800
    128  N        -40.4770  -10.8260    0.8510 N.am  265  ALA265     -0.1979
    129  CA       -40.3460  -10.6570   -0.5950 C.3   265  ALA265      0.1597
    130  C        -39.7400   -9.3020   -0.9590 C.2   265  ALA265      0.2287
    131  O        -38.9120   -9.2180   -1.8660 O.2   265  ALA265     -0.2864
    132  CB       -41.7000  -10.8410   -1.2800 C.3   265  ALA265      0.0319
    133  N        -35.9650   -9.7070   -0.0190 N.3   268  HIS268     -0.1226
    134  CA       -35.2570  -10.8540   -0.5880 C.3   268  HIS268      0.1752
    135  C        -35.5550  -11.1170   -2.0520 C.2   268  HIS268      0.2595
    136  O        -34.7240  -11.6920   -2.7350 O.2   268  HIS268     -0.2718
    137  CB       -35.5120  -12.1030    0.2360 C.3   268  HIS268      0.0759
    138  CG       -34.9150  -12.0260    1.5980 C.ar  268  HIS268      0.0818
    139  ND1      -33.5570  -12.1180    1.8120 N.ar  268  HIS268     -0.2268
    140  CD2      -35.4770  -11.8040    2.8090 C.ar  268  HIS268      0.1154
    141  CE1      -33.3110  -11.9910    3.1030 C.ar  268  HIS268      0.1986
    142  NE2      -34.4580  -11.7910    3.7270 N.ar  268  HIS268     -0.2212
    143  N        -36.7210  -10.7060   -2.5330 N.am  269  MET269     -0.1979
    144  CA       -37.0160  -10.7380   -3.9690 C.3   269  MET269      0.1605
    145  C        -37.0400   -9.2990   -4.4670 C.2   269  MET269      0.2287
    146  O        -38.0380   -8.8150   -5.0130 O.2   269  MET269     -0.2864
    147  CB       -38.3450  -11.4510   -4.2440 C.3   269  MET269      0.0413
    148  CG       -38.3000  -12.9490   -3.9600 C.3   269  MET269      0.0598
    149  SD       -39.8210  -13.7900   -4.4410 S.3   269  MET269     -0.1393
    150  CE       -39.8310  -13.4610   -6.2030 C.3   269  MET269      0.0692
    151  N        -34.0260  -15.2600   -4.7710 N.3   276  PRO276     -0.2102
    152  CA       -33.8790  -14.5040   -3.5190 C.3   276  PRO276      0.1504
    153  C        -32.5730  -14.7340   -2.7500 C.2   276  PRO276      0.2575
    154  O        -32.1390  -13.8450   -2.0160 O.2   276  PRO276     -0.2718
    155  CB       -35.0910  -14.9570   -2.6800 C.3   276  PRO276      0.0282
    156  CG       -35.5440  -16.2100   -3.2950 C.3   276  PRO276      0.0208
    157  CD       -35.2290  -16.1100   -4.7490 C.3   276  PRO276      0.0893
    158  N        -31.9400  -15.8940   -2.9190 N.am  277  GLN277     -0.1980
    159  CA       -30.6880  -16.1650   -2.2090 C.3   277  GLN277      0.1601
    160  C        -29.5860  -15.1650   -2.5430 C.2   277  GLN277      0.2287
    161  O        -28.7590  -14.8680   -1.6900 O.2   277  GLN277     -0.2864
    162  CB       -30.1680  -17.5810   -2.4810 C.3   277  GLN277      0.0394
    163  CG       -28.8810  -17.9030   -1.7080 C.3   277  GLN277      0.0908
    164  CD       -28.2770  -19.2430   -2.0610 C.2   277  GLN277      0.2608
    165  OE1      -27.9150  -19.4960   -3.2140 O.2   277  GLN277     -0.2717
    166  NE2      -28.1450  -20.1070   -1.0620 N.am  277  GLN277     -0.0878
    167  N        -23.4020  -17.8280    1.8750 N.3   283  TYR283     -0.1241
    168  CA       -24.0850  -18.9570    2.5090 C.3   283  TYR283      0.1605
    169  C        -23.3040  -19.4470    3.7400 C.2   283  TYR283      0.2264
    170  O        -22.1070  -19.7600    3.6480 O.2   283  TYR283     -0.2867
    171  CB       -24.3240  -20.1010    1.5190 C.3   283  TYR283      0.0534
    172  CG       -25.1430  -21.2070    2.1310 C.ar  283  TYR283     -0.0201
    173  CD1      -26.5110  -21.0500    2.3340 C.ar  283  TYR283     -0.0009
    174  CD2      -24.5510  -22.3960    2.5430 C.ar  283  TYR283     -0.0009
    175  CE1      -27.2630  -22.0420    2.9200 C.ar  283  TYR283      0.0417
    176  CE2      -25.3030  -23.4010    3.1340 C.ar  283  TYR283      0.0417
    177  CZ       -26.6590  -23.2170    3.3170 C.ar  283  TYR283      0.1957
    178  OH       -27.4140  -24.2080    3.9000 O.3   283  TYR283     -0.2866
    179  N        -27.1250  -21.6160    7.4730 N.3   286  MET286     -0.1245
    180  CA       -28.1610  -21.0920    8.3640 C.3   286  MET286      0.1570
    181  C        -27.5910  -20.4080    9.6050 C.2   286  MET286      0.2261
    182  O        -28.2190  -20.4260   10.6620 O.2   286  MET286     -0.2867
    183  CB       -29.1120  -22.2100    8.7950 C.3   286  MET286      0.0387
    184  CG       -29.5700  -23.0940    7.6610 C.3   286  MET286      0.0595
    185  SD       -30.9680  -24.1160    8.1360 S.3   286  MET286     -0.1393
    186  CE       -30.2780  -25.1040    9.4550 C.3   286  MET286      0.0692
    187  N        -30.3820  -14.8720   12.7380 N.3   402  LYS402     -0.1245
    188  CA       -31.7050  -14.5670   12.1780 C.3   402  LYS402      0.1561
    189  C        -32.4210  -13.4710   12.9740 C.2   402  LYS402      0.2260
    190  O        -33.1060  -12.6320   12.3880 O.2   402  LYS402     -0.2867
    191  CB       -32.5770  -15.8220   12.1100 C.3   402  LYS402      0.0271
    192  CG       -32.0470  -16.9380   11.1960 C.3   402  LYS402      0.0035
    193  CD       -32.1080  -16.5680    9.7140 C.3   402  LYS402      0.0206
    194  CE       -31.5710  -17.6890    8.8320 C.3   402  LYS402      0.1093
    195  NZ       -32.3560  -18.9540    8.9420 N.3   402  LYS402     -0.1314
@<TRIPOS>BOND
     1    29    30   ar
     2    29    27   ar
     3    30    28   ar
     4    27    26   ar
     5    28    26   ar
     6   150   149    1
     7    26    25    1
     8    21    22    1
     9    71    70    2
    10   146   145    2
    11    22    25    1
    12    22    23    1
    13    14    13    2
    14   151   157    1
    15   151   152    1
    16   157   156    1
    17    63    62    2
    18    13    12    1
    19    73    74    1
    20   145   144    1
    21    10     9    1
    22    87    84    1
    23   149   148    1
    24    70    69    1
    25   147   144    1
    26   147   148    1
    27    15    12    1
    28    15    16    1
    29   144   143    1
    30    23    31   am
    31    23    24    2
    32    62    61    1
    33    62    68   am
    34    12    11    1
    35   152   153    1
    36   152   155    1
    37    79    78    1
    38    79    80    2
    39    17    16   ar
    40    17    19   ar
    41     9     6    1
    42    77    78    1
    43    77    75   am
    44    61    60    1
    45    61    64    1
    46    81    78    1
    47    81    82    1
    48   156   155    1
    49    31    32    1
    50   165   164    2
    51    83    84    1
    52    74    75    1
    53    69    68    1
    54    69    72    1
    55    16    18   ar
    56    84    85    1
    57    11     7   am
    58   158   153   am
    59   158   159    1
    60   153   154    2
    61   136   135    2
    62    66    64    1
    63     7     8    2
    64     7     6    1
    65   160   159    1
    66   160   161    2
    67   143   135   am
    68    75    76    2
    69   162   159    1
    70   162   163    1
    71    85    86    2
    72    19    20   ar
    73    53    52    2
    74    64    65    1
    75     6     5    1
    76    65    67    1
    77   164   163    1
    78   164   166   am
    79   135   134    1
    80    32    33    1
    81    32    35    1
    82   131   130    2
    83    33    34    2
    84    18    20   ar
    85     5     3   am
    86    52    51    1
    87   132   129    1
    88    36    37    1
    89   130   129    1
    90     1     2    1
    91   129   128    1
    92   134   133    1
    93   134   137    1
    94     3     2    1
    95     3     4    2
    96    92    89    1
    97    51    54    1
    98    51    50    1
    99    47    46    2
   100   137   138    1
   101    37    40    1
   102    37    38    1
   103    54    55    1
   104    91    90    2
   105    40    41    1
   106   128   124   am
   107    50    46   am
   108    46    45    1
   109    38    39    2
   110    42    41    2
   111    41    43   am
   112    89    90    1
   113    89    88    1
   114   125   124    2
   115    90    93   am
   116   171   172    1
   117   171   168    1
   118    44    45    1
   119    56    55   ar
   120    56    58   ar
   121   138   139   ar
   122   138   140   ar
   123   124   123    1
   124    55    57   ar
   125    45    48    1
   126   139   141   ar
   127    98    97    1
   128   167   168    1
   129   172   173   ar
   130   172   174   ar
   131   173   175   ar
   132   168   169    1
   133   174   176   ar
   134    93    94    1
   135   111   110    1
   136    58    59   ar
   137   140   142   ar
   138   121   119   ar
   139   121   120   ar
   140   175   177   ar
   141    94    97    1
   142    94    95    1
   143    57    59   ar
   144   141   142   ar
   145   176   177   ar
   146   123   126    1
   147   123   122    1
   148    48    49    1
   149   126   127    1
   150   177   178    1
   151   119   117   ar
   152   170   169    2
   153   120   118   ar
   154   110   107    1
   155    95    96    2
   156   117   118   ar
   157   117   116    1
   158   104   103    1
   159   103   105    1
   160   103   100    1
   161   107   106    1
   162   107   108    1
   163   106   101   am
   164    99   100    1
   165   116   113    1
   166   108   112   am
   167   108   109    2
   168   112   113    1
   169   100   101    1
   170   101   102    2
   171   113   114    1
   172   179   180    1
   173   184   185    1
   174   184   183    1
   175   185   186    1
   176   114   115    2
   177   180   183    1
   178   180   181    1
   179   194   195    1
   180   194   193    1
   181   181   182    2
   182   193   192    1
   183   192   191    1
   184   191   188    1
   185   188   187    1
   186   188   189    1
   187   190   189    2
