@<TRIPOS>MOLECULE
tmp/4n4lA00.pdb
 171 167 0 0 0
SMALL
GASTEIGER

@<TRIPOS>ATOM
      1  N        -46.5330  -36.2950   -6.5910 N.3    57  TRP57      -0.1241
      2  CA       -47.0000  -34.9170   -6.7980 C.3    57  TRP57       0.1605
      3  C        -45.8570  -33.9140   -6.7910 C.2    57  TRP57       0.2264
      4  O        -46.0010  -32.8190   -7.3350 O.2    57  TRP57      -0.2867
      5  CB       -48.0360  -34.5130   -5.7300 C.3    57  TRP57       0.0550
      6  CG       -49.1960  -35.4440   -5.6570 C.ar   57  TRP57       0.0003
      7  CD1      -49.3390  -36.5060   -4.8170 C.ar   57  TRP57       0.0946
      8  CD2      -50.3730  -35.4140   -6.4730 C.ar   57  TRP57       0.0152
      9  NE1      -50.5320  -37.1430   -5.0560 N.ar   57  TRP57      -0.2442
     10  CE2      -51.1860  -36.4920   -6.0700 C.ar   57  TRP57       0.0810
     11  CE3      -50.8210  -34.5760   -7.5010 C.ar   57  TRP57       0.0012
     12  CZ2      -52.4180  -36.7620   -6.6650 C.ar   57  TRP57       0.0191
     13  CZ3      -52.0480  -34.8450   -8.0920 C.ar   57  TRP57       0.0001
     14  CH2      -52.8300  -35.9300   -7.6750 C.ar   57  TRP57       0.0015
     15  N        -44.6150  -39.5570  -11.4190 N.3    64  TRP64      -0.1241
     16  CA       -46.0040  -39.3500  -11.8150 C.3    64  TRP64       0.1605
     17  C        -46.4800  -40.4460  -12.7650 C.2    64  TRP64       0.2264
     18  O        -45.7880  -40.7930  -13.7270 O.2    64  TRP64      -0.2867
     19  CB       -46.1950  -37.9880  -12.4800 C.3    64  TRP64       0.0550
     20  CG       -47.6250  -37.7220  -12.8430 C.ar   64  TRP64       0.0003
     21  CD1      -48.1670  -37.7200  -14.0950 C.ar   64  TRP64       0.0946
     22  CD2      -48.7030  -37.4590  -11.9370 C.ar   64  TRP64       0.0152
     23  NE1      -49.5140  -37.4540  -14.0280 N.ar   64  TRP64      -0.2442
     24  CE2      -49.8680  -37.2900  -12.7120 C.ar   64  TRP64       0.0810
     25  CE3      -48.7920  -37.3410  -10.5440 C.ar   64  TRP64       0.0012
     26  CZ2      -51.1060  -37.0020  -12.1450 C.ar   64  TRP64       0.0191
     27  CZ3      -50.0270  -37.0550   -9.9790 C.ar   64  TRP64       0.0001
     28  CH2      -51.1680  -36.8910  -10.7800 C.ar   64  TRP64       0.0015
     29  N        -53.4640  -42.0090  -12.6910 N.3    67  GLY67      -0.1210
     30  CA       -54.2540  -42.6400  -11.6350 C.3    67  GLY67       0.1956
     31  C        -55.6930  -42.1730  -11.6180 C.2    67  GLY67       0.2613
     32  O        -56.3480  -42.2140  -10.5790 O.2    67  GLY67      -0.2717
     33  N        -56.1880  -41.7380  -12.7740 N.am   68  SER68      -0.1938
     34  CA       -57.5400  -41.2140  -12.8910 C.3    68  SER68       0.2055
     35  C        -58.4940  -42.3050  -13.3680 C.2    68  SER68       0.2643
     36  O        -58.0910  -43.2410  -14.0610 O.2    68  SER68      -0.2714
     37  CB       -57.5620  -40.0340  -13.8610 C.3    68  SER68       0.2130
     38  OG       -58.8740  -39.5490  -14.0520 O.3    68  SER68      -0.2179
     39  N        -59.7610  -42.1780  -12.9910 N.am   69  GLN69      -0.1963
     40  CA       -60.8030  -43.1170  -13.4160 C.3    69  GLN69       0.1733
     41  C        -61.6450  -42.5400  -14.5590 C.2    69  GLN69       0.2617
     42  O        -62.4710  -43.2440  -15.1440 O.2    69  GLN69      -0.2715
     43  CB       -61.7090  -43.4830  -12.2310 C.3    69  GLN69       0.0408
     44  CG       -61.0070  -44.2820  -11.1290 C.3    69  GLN69       0.0908
     45  CD       -59.9700  -43.4670  -10.3640 C.2    69  GLN69       0.2608
     46  OE1      -58.8360  -43.9110  -10.1700 O.2    69  GLN69      -0.2717
     47  NE2      -60.3520  -42.2720   -9.9330 N.am   69  GLN69      -0.0878
     48  N        -61.4370  -41.2630  -14.8700 N.am   70  THR70      -0.1951
     49  CA       -62.2020  -40.5770  -15.9030 C.3    70  THR70       0.1897
     50  C        -61.4570  -40.6880  -17.2310 C.2    70  THR70       0.2313
     51  O        -60.2480  -40.4380  -17.2930 O.2    70  THR70      -0.2863
     52  CB       -62.4260  -39.0960  -15.5190 C.3    70  THR70       0.1794
     53  OG1      -63.1960  -39.0330  -14.3130 O.3    70  THR70      -0.2208
     54  CG2      -63.1560  -38.3340  -16.6140 C.3    70  THR70       0.0378
     55  N        -60.5630  -34.0750  -24.0270 N.3    74  PHE74      -0.1241
     56  CA       -61.4630  -32.9390  -23.8460 C.3    74  PHE74       0.1605
     57  C        -60.8280  -31.6150  -24.2530 C.2    74  PHE74       0.2264
     58  O        -59.6130  -31.4600  -24.2050 O.2    74  PHE74      -0.2867
     59  CB       -61.8820  -32.8390  -22.3780 C.3    74  PHE74       0.0534
     60  CG       -62.5710  -34.0610  -21.8540 C.ar   74  PHE74      -0.0203
     61  CD1      -63.8540  -34.3790  -22.2730 C.ar   74  PHE74      -0.0042
     62  CD2      -61.9460  -34.8860  -20.9330 C.ar   74  PHE74      -0.0042
     63  CE1      -64.5010  -35.5060  -21.7940 C.ar   74  PHE74      -0.0003
     64  CE2      -62.5880  -36.0160  -20.4430 C.ar   74  PHE74      -0.0003
     65  CZ       -63.8700  -36.3280  -20.8760 C.ar   74  PHE74      -0.0000
     66  N        -64.4840  -27.9500  -21.7650 N.3    78  GLU78      -0.1231
     67  CA       -65.0650  -29.1480  -21.1640 C.3    78  GLU78       0.1699
     68  C        -64.4190  -29.4660  -19.8120 C.2    78  GLU78       0.2592
     69  O        -65.1130  -29.8580  -18.8750 O.2    78  GLU78      -0.2718
     70  CB       -64.9520  -30.3300  -22.1290 C.3    78  GLU78       0.0402
     71  CG       -65.7800  -30.1150  -23.3950 C.3    78  GLU78       0.1161
     72  CD       -65.5190  -31.1280  -24.4920 C.2    78  GLU78       0.3649
     73  OE1      -66.4230  -31.2940  -25.3300 O.co2  78  GLU78      -0.2457
     74  OE2      -64.4320  -31.7400  -24.5400 O.co2  78  GLU78      -0.2457
     75  N        -63.1000  -29.2900  -19.7090 N.am   79  CYS79      -0.1970
     76  CA       -62.4170  -29.3780  -18.4110 C.3    79  CYS79       0.1712
     77  C        -63.1330  -28.5110  -17.3770 C.2    79  CYS79       0.2296
     78  O        -63.4180  -28.9590  -16.2690 O.2    79  CYS79      -0.2864
     79  CB       -60.9620  -28.8930  -18.4920 C.3    79  CYS79       0.0983
     80  SG       -59.9340  -29.5620  -19.7990 S.3    79  CYS79      -0.0798
     81  N        -66.9880  -29.5750  -16.2730 N.3    82  CYS82      -0.1221
     82  CA       -67.0790  -30.7150  -15.3740 C.3    82  CYS82       0.1808
     83  C        -66.4310  -30.4330  -14.0200 C.2    82  CYS82       0.2601
     84  O        -66.9760  -30.8010  -12.9830 O.2    82  CYS82      -0.2717
     85  CB       -66.4420  -31.9400  -16.0000 C.3    82  CYS82       0.0970
     86  SG       -66.7460  -33.4330  -15.0620 S.3    82  CYS82      -0.0800
     87  N        -65.2690  -29.7830  -14.0290 N.am   83  HIS83      -0.1975
     88  CA       -64.5860  -29.4510  -12.7780 C.3    83  HIS83       0.1656
     89  C        -65.2820  -28.3700  -11.9670 C.2    83  HIS83       0.2291
     90  O        -65.0180  -28.2360  -10.7760 O.2    83  HIS83      -0.2864
     91  CB       -63.1080  -29.1180  -13.0170 C.3    83  HIS83       0.0771
     92  CG       -62.2550  -30.3390  -13.0950 C.ar   83  HIS83       0.0820
     93  ND1      -61.6930  -30.9210  -11.9780 N.ar   83  HIS83      -0.2267
     94  CD2      -61.9270  -31.1320  -14.1400 C.ar   83  HIS83       0.1154
     95  CE1      -61.0380  -32.0100  -12.3370 C.ar   83  HIS83       0.1986
     96  NE2      -61.1590  -32.1550  -13.6430 N.ar   83  HIS83      -0.2212
     97  N        -66.9630  -30.9170  -10.0780 N.3    86  GLN86      -0.1231
     98  CA       -66.1310  -31.9400   -9.4320 C.3    86  GLN86       0.1698
     99  C        -65.0310  -31.4230   -8.4960 C.2    86  GLN86       0.2592
    100  O        -64.7120  -32.0830   -7.5040 O.2    86  GLN86      -0.2718
    101  CB       -65.5430  -32.8780  -10.4910 C.3    86  GLN86       0.0381
    102  CG       -66.5890  -33.8230  -11.0860 C.3    86  GLN86       0.0905
    103  CD       -67.1920  -34.7450  -10.0490 C.2    86  GLN86       0.2608
    104  OE1      -66.5000  -35.2120   -9.1430 O.2    86  GLN86      -0.2717
    105  NE2      -68.4950  -35.0060  -10.1670 N.am   86  GLN86      -0.0878
    106  N        -64.4600  -30.2630   -8.8160 N.am   87  THR87      -0.1953
    107  CA       -63.4500  -29.6140   -7.9730 C.3    87  THR87       0.1897
    108  C        -63.6580  -28.0990   -8.0510 C.2    87  THR87       0.2313
    109  O        -62.8230  -27.3870   -8.6010 O.2    87  THR87      -0.2863
    110  CB       -62.0080  -29.9570   -8.4260 C.3    87  THR87       0.1794
    111  OG1      -61.7860  -29.4570   -9.7510 O.3    87  THR87      -0.2208
    112  CG2      -61.7540  -31.4680   -8.3950 C.3    87  THR87       0.0378
    113  N        -57.1020  -25.4920  -18.3630 N.3   123  CYS123     -0.1221
    114  CA       -56.7130  -26.7200  -17.6710 C.3   123  CYS123      0.1808
    115  C        -55.8800  -27.6230  -18.5740 C.2   123  CYS123      0.2601
    116  O        -54.8680  -28.1750  -18.1430 O.2   123  CYS123     -0.2717
    117  CB       -57.9450  -27.5090  -17.1980 C.3   123  CYS123      0.0970
    118  SG       -59.2800  -26.5590  -16.4450 S.3   123  CYS123     -0.0800
    119  N        -56.3190  -27.7720  -19.8260 N.am  124  ALA124     -0.1979
    120  CA       -55.6770  -28.6810  -20.7750 C.3   124  ALA124      0.1597
    121  C        -54.3110  -28.1710  -21.2310 C.2   124  ALA124      0.2287
    122  O        -53.4280  -28.9680  -21.5670 O.2   124  ALA124     -0.2864
    123  CB       -56.5880  -28.9220  -21.9950 C.3   124  ALA124      0.0319
    124  N        -52.2350  -29.3090  -18.1780 N.3   127  HIS127     -0.1226
    125  CA       -52.3440  -30.7060  -17.7280 C.3   127  HIS127      0.1752
    126  C        -52.4940  -31.7480  -18.8360 C.2   127  HIS127      0.2597
    127  O        -52.4950  -32.9460  -18.5510 O.2   127  HIS127     -0.2718
    128  CB       -53.5220  -30.8400  -16.7630 C.3   127  HIS127      0.0759
    129  CG       -53.2980  -30.1490  -15.4590 C.ar  127  HIS127      0.0818
    130  ND1      -52.4100  -30.6200  -14.5180 N.ar  127  HIS127     -0.2268
    131  CD2      -53.8320  -29.0170  -14.9430 C.ar  127  HIS127      0.1154
    132  CE1      -52.4100  -29.8120  -13.4750 C.ar  127  HIS127      0.1986
    133  NE2      -53.2610  -28.8300  -13.7100 N.ar  127  HIS127     -0.2212
    134  N        -52.6270  -31.2990  -20.0820 N.am  128  GLY128     -0.1942
    135  CA       -52.9240  -32.1930  -21.2000 C.3   128  GLY128      0.2014
    136  C        -54.4220  -32.3360  -21.4190 C.2   128  GLY128      0.2638
    137  O        -55.2100  -31.9870  -20.5430 O.2   128  GLY128     -0.2714
    138  N        -54.7920  -32.8520  -22.5960 N.am  129  ASN129     -0.1972
    139  CA       -56.1880  -33.0010  -23.0260 C.3   129  ASN129      0.1688
    140  C        -56.7910  -34.3730  -22.7230 C.2   129  ASN129      0.2292
    141  O        -58.0080  -34.5020  -22.5980 O.2   129  ASN129     -0.2864
    142  CB       -56.2960  -32.7720  -24.5390 C.3   129  ASN129      0.1181
    143  CG       -55.9820  -31.3490  -24.9440 C.2   129  ASN129      0.2629
    144  OD1      -54.8720  -31.0500  -25.3810 O.2   129  ASN129     -0.2716
    145  ND2      -56.9630  -30.4610  -24.8070 N.am  129  ASN129     -0.0877
    146  N        -57.6000  -37.4310  -20.4480 N.3   131  HIS131     -0.1241
    147  CA       -57.7870  -37.6040  -19.0100 C.3   131  HIS131      0.1621
    148  C        -57.1110  -38.8530  -18.4380 C.2   131  HIS131      0.2264
    149  O        -57.0230  -39.0090  -17.2190 O.2   131  HIS131     -0.2867
    150  CB       -59.2670  -37.5890  -18.6400 C.3   131  HIS131      0.0745
    151  CG       -59.5270  -36.9640  -17.3070 C.ar  131  HIS131      0.0817
    152  ND1      -59.3030  -37.6220  -16.1190 N.ar  131  HIS131     -0.2268
    153  CD2      -59.9420  -35.7210  -16.9790 C.ar  131  HIS131      0.1154
    154  CE1      -59.5880  -36.8130  -15.1140 C.ar  131  HIS131      0.1986
    155  NE2      -59.9820  -35.6540  -15.6100 N.ar  131  HIS131     -0.2212
    156  N        -52.9480  -37.3850  -18.0050 N.3   134  LEU134     -0.1245
    157  CA       -52.8290  -36.0490  -17.4310 C.3   134  LEU134      0.1561
    158  C        -51.4140  -35.8430  -16.9140 C.2   134  LEU134      0.2260
    159  O        -50.7380  -36.7910  -16.5130 O.2   134  LEU134     -0.2867
    160  CB       -53.8410  -35.8280  -16.3050 C.3   134  LEU134      0.0270
    161  CG       -55.3020  -35.7940  -16.7590 C.3   134  LEU134      0.0019
    162  CD1      -56.2460  -35.9340  -15.5690 C.3   134  LEU134      0.0001
    163  CD2      -55.6150  -34.5240  -17.5480 C.3   134  LEU134      0.0001
    164  N        -48.6380  -33.6700  -14.4560 N.3   136  MET136     -0.1245
    165  CA       -48.4880  -32.9440  -13.2030 C.3   136  MET136      0.1570
    166  C        -47.1940  -32.1400  -13.3330 C.2   136  MET136      0.2261
    167  O        -46.1020  -32.7020  -13.2760 O.2   136  MET136     -0.2867
    168  CB       -48.4740  -33.9180  -12.0270 C.3   136  MET136      0.0387
    169  CG       -48.8030  -33.3060  -10.6750 C.3   136  MET136      0.0595
    170  SD       -50.2830  -32.2650  -10.6380 S.3   136  MET136     -0.1393
    171  CE       -51.5530  -33.2980  -11.3360 C.3   136  MET136      0.0692
@<TRIPOS>BOND
     1   144   143    2
     2    73    72   ar
     3   143   145   am
     4   143   142    1
     5    74    72   ar
     6   142   139    1
     7    72    71    1
     8    57    58    2
     9    57    56    1
    10    55    56    1
    11    56    59    1
    12    71    70    1
    13   139   140    1
    14   139   138    1
    15   140   141    2
    16   138   136   am
    17    59    60    1
    18    61    60   ar
    19    61    63   ar
    20    70    67    1
    21   123   120    1
    22    60    62   ar
    23    63    65   ar
    24    66    67    1
    25   122   121    2
    26   136   135    1
    27   136   137    2
    28   121   120    1
    29   135   134    1
    30    67    68    1
    31    62    64   ar
    32    65    64   ar
    33   120   119    1
    34   146   147    1
    35   134   126   am
    36   119   115   am
    37    68    75   am
    38    68    69    2
    39    80    79    1
    40    75    76    1
    41   147   150    1
    42   147   148    1
    43   126   127    2
    44   126   125    1
    45   150   151    1
    46   115   116    2
    47   115   114    1
    48    79    76    1
    49   148   149    2
    50    76    77    1
    51   113   114    1
    52   124   125    1
    53   156   157    1
    54   125   128    1
    55   114   117    1
    56   163   161    1
    57   157   158    1
    58   157   160    1
    59    77    78    2
    60   151   153   ar
    61   151   152   ar
    62    51    50    2
    63    50    49    1
    64   117   118    1
    65   153   155   ar
    66   158   159    2
    67   128   129    1
    68   161   160    1
    69   161   162    1
    70    54    52    1
    71    81    82    1
    72   152   154   ar
    73    85    82    1
    74    85    86    1
    75    49    52    1
    76    49    48    1
    77   155   154   ar
    78    52    53    1
    79   129   131   ar
    80   129   130   ar
    81    82    83    1
    82    42    41    2
    83   131   133   ar
    84    48    41   am
    85    41    40    1
    86   130   132   ar
    87   164   165    1
    88    94    96   ar
    89    94    92   ar
    90    21    23   ar
    91    21    20   ar
    92    36    35    2
    93    38    37    1
    94    87    83   am
    95    87    88    1
    96    23    24   ar
    97    83    84    2
    98    37    34    1
    99    18    17    2
   100   133   132   ar
   101    96    95   ar
   102    40    39    1
   103    40    43    1
   104    35    39   am
   105    35    34    1
   106   166   167    2
   107   166   165    1
   108   165   168    1
   109    92    91    1
   110    92    93   ar
   111    91    88    1
   112    34    33    1
   113    20    19    1
   114    20    22   ar
   115    88    89    1
   116    33    31   am
   117    17    16    1
   118    24    26   ar
   119    24    22   ar
   120    29    30    1
   121    19    16    1
   122    95    93   ar
   123    43    44    1
   124    26    28   ar
   125   168   169    1
   126    89    90    2
   127    22    25   ar
   128    16    15    1
   129    30    31    1
   130    31    32    2
   131   171   170    1
   132    44    45    1
   133   102   101    1
   134   102   103    1
   135    28    27   ar
   136   169   170    1
   137    25    27   ar
   138   101    98    1
   139    45    46    2
   140    45    47   am
   141   105   103   am
   142    97    98    1
   143   103   104    2
   144   111   110    1
   145    98    99    1
   146   106    99   am
   147   106   107    1
   148   109   108    2
   149    99   100    2
   150   110   112    1
   151   110   107    1
   152    13    14   ar
   153    13    11   ar
   154   108   107    1
   155    14    12   ar
   156    11     8   ar
   157     4     3    2
   158     2     3    1
   159     2     1    1
   160     2     5    1
   161    12    10   ar
   162     8    10   ar
   163     8     6   ar
   164    10     9   ar
   165     5     6    1
   166     6     7   ar
   167     9     7   ar
