@<TRIPOS>MOLECULE
tmp/4n4lA08.pdb
 83 80 0 0 0
SMALL
GASTEIGER

@<TRIPOS>ATOM
      1  N        -21.0000  -20.9990   21.8810 N.3   336  TRP336     -0.1241
      2  CA       -20.9590  -22.2560   21.1370 C.3   336  TRP336      0.1605
      3  C        -19.5970  -22.9340   21.3050 C.2   336  TRP336      0.2264
      4  O        -19.5250  -24.1420   21.5190 O.2   336  TRP336     -0.2867
      5  CB       -21.2770  -22.0370   19.6540 C.3   336  TRP336      0.0550
      6  CG       -20.8150  -23.1500   18.7550 C.ar  336  TRP336      0.0003
      7  CD1      -19.9910  -23.0310   17.6820 C.ar  336  TRP336      0.0946
      8  CD2      -21.1450  -24.5440   18.8550 C.ar  336  TRP336      0.0152
      9  NE1      -19.7840  -24.2570   17.1000 N.ar  336  TRP336     -0.2442
     10  CE2      -20.4800  -25.2040   17.8020 C.ar  336  TRP336      0.0810
     11  CE3      -21.9400  -25.2960   19.7280 C.ar  336  TRP336      0.0012
     12  CZ2      -20.5850  -26.5830   17.5960 C.ar  336  TRP336      0.0191
     13  CZ3      -22.0410  -26.6690   19.5270 C.ar  336  TRP336      0.0001
     14  CH2      -21.3670  -27.2980   18.4650 C.ar  336  TRP336      0.0015
     15  N        -18.9340  -26.5800   22.7350 N.3   340  ALA340     -0.1245
     16  CA       -18.2200  -27.5840   21.9440 C.3   340  ALA340      0.1562
     17  C        -17.0140  -28.1640   22.7010 C.2   340  ALA340      0.2260
     18  O        -16.7770  -29.3780   22.6760 O.2   340  ALA340     -0.2867
     19  CB       -17.7810  -26.9900   20.6060 C.3   340  ALA340      0.0290
     20  N        -16.8740  -32.1600   23.4270 N.3   344  VAL344     -0.1245
     21  CA       -15.7620  -32.9610   22.8890 C.3   344  VAL344      0.1561
     22  C        -14.8460  -33.4390   24.0270 C.2   344  VAL344      0.2260
     23  O        -14.4090  -34.5910   24.0340 O.2   344  VAL344     -0.2867
     24  CB       -14.9570  -32.1860   21.8300 C.3   344  VAL344      0.0252
     25  CG1      -13.6910  -32.9540   21.4360 C.3   344  VAL344      0.0019
     26  CG2      -15.8190  -31.9100   20.6050 C.3   344  VAL344      0.0019
     27  N        -20.9450  -37.8940   17.2300 N.3   370  SER370     -0.1202
     28  CA       -21.6800  -37.0580   16.2840 C.3   370  SER370      0.2020
     29  C        -21.0760  -35.6680   16.1180 C.2   370  SER370      0.2619
     30  O        -21.2630  -35.0320   15.0840 O.2   370  SER370     -0.2717
     31  CB       -23.1430  -36.9280   16.7200 C.3   370  SER370      0.2103
     32  OG       -23.2540  -36.2570   17.9570 O.3   370  SER370     -0.2182
     33  N        -20.3700  -35.1900   17.1410 N.am  371  LEU371     -0.1965
     34  CA       -19.7850  -33.8590   17.1050 C.3   371  LEU371      0.1728
     35  C        -18.2550  -33.9250   16.9890 C.2   371  LEU371      0.2616
     36  O        -17.5360  -33.1620   17.6260 O.2   371  LEU371     -0.2715
     37  CB       -20.2400  -33.0520   18.3250 C.3   371  LEU371      0.0311
     38  CG       -21.7580  -32.8120   18.3610 C.3   371  LEU371      0.0022
     39  CD1      -22.1930  -32.2730   19.7110 C.3   371  LEU371      0.0001
     40  CD2      -22.1770  -31.8610   17.2470 C.3   371  LEU371      0.0001
     41  N        -17.7860  -34.8530   16.1560 N.am  372  LEU372     -0.1964
     42  CA       -16.3950  -34.9190   15.7040 C.3   372  LEU372      0.1713
     43  C        -16.4100  -34.9550   14.1850 C.2   372  LEU372      0.2458
     44  O        -17.4340  -35.2920   13.5870 O.2   372  LEU372     -0.2730
     45  CB       -15.7200  -36.1960   16.2240 C.3   372  LEU372      0.0310
     46  CG       -14.6390  -36.1310   17.3060 C.3   372  LEU372      0.0022
     47  CD1      -14.8170  -34.9830   18.2900 C.3   372  LEU372      0.0001
     48  CD2      -14.5950  -37.4740   18.0270 C.3   372  LEU372      0.0001
     49  N        -15.2770  -34.6100   13.5440 N.am  373  PRO373     -0.2716
     50  CA       -15.1930  -34.7580   12.0890 C.3   373  PRO373      0.1536
     51  C        -15.5800  -36.1690   11.6360 C.2   373  PRO373      0.2599
     52  O        -15.2010  -37.1540   12.2750 O.2   373  PRO373     -0.2715
     53  CB       -13.7160  -34.4750   11.7890 C.3   373  PRO373      0.0310
     54  CG       -13.2570  -33.6270   12.9030 C.3   373  PRO373      0.0237
     55  CD       -14.0590  -34.0050   14.1120 C.3   373  PRO373      0.0939
     56  N        -16.3650  -36.2550   10.5690 N.am  374  GLY374     -0.1941
     57  CA       -16.8610  -37.5340   10.0760 C.3   374  GLY374      0.2014
     58  C        -18.1320  -38.0340   10.7530 C.2   374  GLY374      0.2639
     59  O        -18.7480  -38.9760   10.2740 O.2   374  GLY374     -0.2714
     60  N        -18.5240  -37.4170   11.8670 N.am  375  GLY375     -0.1954
     61  CA       -19.7590  -37.7960   12.5620 C.3   375  GLY375      0.1869
     62  C        -20.9850  -37.1460   11.9410 C.2   375  GLY375      0.2309
     63  O        -20.8700  -36.3580   10.9970 O.2   375  GLY375     -0.2863
     64  N        -23.8650  -34.8560   13.2280 N.3   377  PRO377     -0.2116
     65  CA       -24.5400  -34.0260   14.2200 C.3   377  PRO377      0.1372
     66  C        -26.0500  -34.2270   14.1650 C.2   377  PRO377      0.2244
     67  O        -26.6430  -34.1310   13.0920 O.2   377  PRO377     -0.2868
     68  CB       -24.1490  -32.6050   13.8100 C.3   377  PRO377      0.0268
     69  CG       -22.8250  -32.7670   13.1600 C.3   377  PRO377      0.0207
     70  CD       -22.9170  -34.0700   12.4170 C.3   377  PRO377      0.0892
     71  N        -25.9110  -25.4120   18.5340 N.3   393  ILE393     -0.1245
     72  CA       -25.3690  -24.8550   17.2960 C.3   393  ILE393      0.1561
     73  C        -26.4640  -24.5260   16.2800 C.2   393  ILE393      0.2260
     74  O        -26.4550  -23.4450   15.6870 O.2   393  ILE393     -0.2867
     75  CB       -24.2580  -25.7490   16.6640 C.3   393  ILE393      0.0252
     76  CG1      -23.6320  -25.0650   15.4410 C.3   393  ILE393      0.0019
     77  CG2      -24.7780  -27.1370   16.2990 C.3   393  ILE393      0.0019
     78  CD1      -23.1290  -23.6290   15.7070 C.3   393  ILE393      0.0001
     79  N        -21.2100  -32.2620    1.9710 N.3   489  ALA489     -0.1245
     80  CA       -19.9160  -32.8570    2.2890 C.3   489  ALA489      0.1562
     81  C        -20.0760  -34.1220    3.1280 C.2   489  ALA489      0.2260
     82  O        -19.5450  -34.2010    4.2370 O.2   489  ALA489     -0.2867
     83  CB       -19.0440  -31.8320    3.0300 C.3   489  ALA489      0.0290
@<TRIPOS>BOND
     1    79    80    1
     2    80    83    1
     3    80    81    1
     4    81    82    2
     5    57    56    1
     6    57    58    1
     7    59    58    2
     8    56    51   am
     9    58    60   am
    10    63    62    2
    11    51    50    1
    12    51    52    2
    13    53    50    1
    14    53    54    1
    15    60    61    1
    16    62    61    1
    17    50    49    1
    18    70    69    1
    19    70    64    1
    20    54    55    1
    21    67    66    2
    22    69    68    1
    23    64    65    1
    24    49    55    1
    25    49    43   am
    26    44    43    2
    27    68    65    1
    28    66    65    1
    29    43    42    1
    30    30    29    2
    31    76    78    1
    32    76    75    1
    33    74    73    2
    34    42    41    1
    35    42    45    1
    36    29    28    1
    37    29    33   am
    38    41    35   am
    39    45    46    1
    40    73    72    1
    41    28    31    1
    42    28    27    1
    43    77    75    1
    44    75    72    1
    45    31    32    1
    46    35    34    1
    47    35    36    2
    48     9     7   ar
    49     9    10   ar
    50    34    33    1
    51    34    37    1
    52    40    38    1
    53    72    71    1
    54    46    48    1
    55    46    47    1
    56    12    10   ar
    57    12    14   ar
    58     7     6   ar
    59    10     8   ar
    60    37    38    1
    61    38    39    1
    62    14    13   ar
    63     6     8   ar
    64     6     5    1
    65     8    11   ar
    66    13    11   ar
    67     5     2    1
    68    26    24    1
    69    19    16    1
    70     2     3    1
    71     2     1    1
    72     3     4    2
    73    25    24    1
    74    24    21    1
    75    16    17    1
    76    16    15    1
    77    18    17    2
    78    21    20    1
    79    21    22    1
    80    22    23    2
