@<TRIPOS>MOLECULE
tmp/4n4lA03.pdb
 210 202 0 0 0
SMALL
GASTEIGER

@<TRIPOS>ATOM
      1  N        -28.4520  -24.2940   -0.7400 N.3   159  GLY159     -0.1225
      2  CA       -29.1070  -23.5370    0.3150 C.3   159  GLY159      0.1811
      3  C        -30.2340  -22.6590   -0.1870 C.2   159  GLY159      0.2280
      4  O        -30.8680  -21.9560    0.6060 O.2   159  GLY159     -0.2866
      5  N        -30.5820  -31.0700   -1.1360 N.3   168  ASN168     -0.1225
      6  CA       -30.7760  -30.9810    0.3090 C.3   168  ASN168      0.1785
      7  C        -31.9160  -31.8110    0.8920 C.2   168  ASN168      0.2597
      8  O        -32.1620  -31.7620    2.0920 O.2   168  ASN168     -0.2718
      9  CB       -30.8240  -29.5090    0.7690 C.3   168  ASN168      0.1169
     10  CG       -29.4310  -28.9360    1.0060 C.2   168  ASN168      0.2627
     11  OD1      -28.4350  -29.6640    0.9370 O.2   168  ASN168     -0.2716
     12  ND2      -29.3500  -27.6350    1.2800 N.am  168  ASN168     -0.0877
     13  N        -32.5710  -32.6170    0.0620 N.am  169  VAL169     -0.1980
     14  CA       -33.3390  -33.7480    0.5730 C.3   169  VAL169      0.1595
     15  C        -32.5540  -35.0310    0.3180 C.2   169  VAL169      0.2287
     16  O        -32.2070  -35.7520    1.2550 O.2   169  VAL169     -0.2864
     17  CB       -34.7450  -33.8180   -0.0460 C.3   169  VAL169      0.0276
     18  CG1      -35.4230  -35.1450    0.2720 C.3   169  VAL169      0.0022
     19  CG2      -35.5750  -32.6580    0.4590 C.3   169  VAL169      0.0022
     20  N        -29.2820  -35.3590    2.2980 N.3   172  PHE172     -0.1241
     21  CA       -29.2350  -34.8610    3.6710 C.3   172  PHE172      0.1605
     22  C        -29.3540  -35.9680    4.7130 C.2   172  PHE172      0.2264
     23  O        -30.2860  -36.7820    4.6900 O.2   172  PHE172     -0.2867
     24  CB       -30.2870  -33.7730    3.9150 C.3   172  PHE172      0.0534
     25  CG       -30.1970  -33.1270    5.2810 C.ar  172  PHE172     -0.0203
     26  CD1      -28.9720  -32.7090    5.7960 C.ar  172  PHE172     -0.0042
     27  CD2      -31.3440  -32.9010    6.0320 C.ar  172  PHE172     -0.0042
     28  CE1      -28.8960  -32.1040    7.0340 C.ar  172  PHE172     -0.0003
     29  CE2      -31.2680  -32.2880    7.2690 C.ar  172  PHE172     -0.0003
     30  CZ       -30.0440  -31.8940    7.7710 C.ar  172  PHE172     -0.0000
     31  N        -30.2750  -36.1840    7.8610 N.3   174  TRP174     -0.1227
     32  CA       -31.4720  -36.3610    8.6960 C.3   174  TRP174      0.1737
     33  C        -32.6330  -36.9470    7.9130 C.2   174  TRP174      0.2595
     34  O        -33.5250  -37.5590    8.5040 O.2   174  TRP174     -0.2718
     35  CB       -31.9210  -35.0520    9.3590 C.3   174  TRP174      0.0564
     36  CG       -30.9340  -34.4750   10.3320 C.ar  174  TRP174      0.0003
     37  CD1      -29.8370  -35.0920   10.8580 C.ar  174  TRP174      0.0946
     38  CD2      -30.9700  -33.1670   10.9090 C.ar  174  TRP174      0.0152
     39  NE1      -29.1800  -34.2460   11.7170 N.ar  174  TRP174     -0.2442
     40  CE2      -29.8530  -33.0560   11.7650 C.ar  174  TRP174      0.0810
     41  CE3      -31.8390  -32.0770   10.7870 C.ar  174  TRP174      0.0012
     42  CZ2      -29.5850  -31.8990   12.5000 C.ar  174  TRP174      0.0191
     43  CZ3      -31.5670  -30.9220   11.5100 C.ar  174  TRP174      0.0001
     44  CH2      -30.4480  -30.8430   12.3530 C.ar  174  TRP174      0.0015
     45  N        -32.6270  -36.7520    6.5950 N.am  175  HIS175     -0.1975
     46  CA       -33.6470  -37.3350    5.7400 C.3   175  HIS175      0.1656
     47  C        -33.3440  -38.7960    5.3970 C.2   175  HIS175      0.2291
     48  O        -34.1900  -39.6710    5.5670 O.2   175  HIS175     -0.2864
     49  CB       -33.7970  -36.5480    4.4450 C.3   175  HIS175      0.0771
     50  CG       -35.0250  -36.9240    3.6850 C.ar  175  HIS175      0.0820
     51  ND1      -36.2500  -36.3430    3.9290 N.ar  175  HIS175     -0.2267
     52  CD2      -35.2370  -37.8750    2.7450 C.ar  175  HIS175      0.1154
     53  CE1      -37.1580  -36.9010    3.1490 C.ar  175  HIS175      0.1986
     54  NE2      -36.5700  -37.8330    2.4230 N.ar  175  HIS175     -0.2212
     55  N        -33.5810  -41.6660    8.2200 N.3   178  LYS178     -0.1245
     56  CA       -34.8640  -41.9490    8.8780 C.3   178  LYS178      0.1561
     57  C        -35.8380  -42.6800    7.9640 C.2   178  LYS178      0.2260
     58  O        -35.7630  -42.5380    6.7460 O.2   178  LYS178     -0.2867
     59  CB       -35.4980  -40.6380    9.3670 C.3   178  LYS178      0.0271
     60  CG       -34.8150  -40.0730   10.5950 C.3   178  LYS178      0.0035
     61  CD       -35.3750  -38.7230   11.0040 C.3   178  LYS178      0.0206
     62  CE       -34.9400  -38.3620   12.4140 C.3   178  LYS178      0.1093
     63  NZ       -35.6240  -39.2130   13.4320 N.3   178  LYS178     -0.1314
     64  N        -40.4370  -38.5190    7.4700 N.3   183  VAL183     -0.1245
     65  CA       -39.8770  -37.2940    6.9080 C.3   183  VAL183      0.1561
     66  C        -40.5230  -36.8610    5.5930 C.2   183  VAL183      0.2260
     67  O        -39.9580  -36.0540    4.8600 O.2   183  VAL183     -0.2867
     68  CB       -38.3340  -37.4120    6.7600 C.3   183  VAL183      0.0252
     69  CG1      -37.6990  -37.4840    8.1420 C.3   183  VAL183      0.0019
     70  CG2      -37.9430  -38.6330    5.9140 C.3   183  VAL183      0.0019
     71  N        -42.8450  -34.7430    5.0770 N.3   185  GLY185     -0.1210
     72  CA       -42.9710  -33.2880    5.0830 C.3   185  GLY185      0.1956
     73  C        -41.6820  -32.5790    4.7070 C.2   185  GLY185      0.2612
     74  O        -41.7150  -31.4920    4.1450 O.2   185  GLY185     -0.2717
     75  N        -40.5480  -33.1930    5.0310 N.am  186  CYS186     -0.1970
     76  CA       -39.2470  -32.6610    4.6180 C.3   186  CYS186      0.1712
     77  C        -39.1000  -32.6840    3.1020 C.2   186  CYS186      0.2296
     78  O        -38.7190  -31.6840    2.4870 O.2   186  CYS186     -0.2864
     79  CB       -38.1140  -33.4900    5.2270 C.3   186  CYS186      0.0983
     80  SG       -38.0230  -33.4140    7.0330 S.3   186  CYS186     -0.0798
     81  N        -41.7630  -30.1330    1.5420 N.3   189  CYS189     -0.1221
     82  CA       -41.4750  -28.7220    1.7720 C.3   189  CYS189      0.1808
     83  C        -40.3390  -28.2740    0.8670 C.2   189  CYS189      0.2601
     84  O        -40.4310  -27.2450    0.1830 O.2   189  CYS189     -0.2717
     85  CB       -41.0870  -28.4590    3.2220 C.3   189  CYS189      0.0970
     86  SG       -40.6590  -26.7280    3.4950 S.3   189  CYS189     -0.0800
     87  N        -39.2730  -29.0640    0.8600 N.am  190  HIS190     -0.1975
     88  CA       -38.1050  -28.7580    0.0480 C.3   190  HIS190      0.1656
     89  C        -38.4260  -28.9060   -1.4580 C.2   190  HIS190      0.2291
     90  O        -38.0170  -28.0740   -2.2610 O.2   190  HIS190     -0.2864
     91  CB       -36.8920  -29.5940    0.5190 C.3   190  HIS190      0.0771
     92  CG       -36.1600  -28.9980    1.6950 C.ar  190  HIS190      0.0820
     93  ND1      -34.8950  -28.4650    1.5860 N.ar  190  HIS190     -0.2267
     94  CD2      -36.5150  -28.8460    2.9970 C.ar  190  HIS190      0.1154
     95  CE1      -34.5060  -27.9980    2.7610 C.ar  190  HIS190      0.1986
     96  NE2      -35.4670  -28.2210    3.6400 N.ar  190  HIS190     -0.2212
     97  N        -44.7380  -20.5880    6.0310 N.3   219  VAL219     -0.1231
     98  CA       -45.0580  -22.0120    6.1810 C.3   219  VAL219      0.1692
     99  C        -43.7630  -22.8400    6.1840 C.2   219  VAL219      0.2592
    100  O        -43.6450  -23.8350    6.9040 O.2   219  VAL219     -0.2718
    101  CB       -46.0390  -22.4770    5.0660 C.3   219  VAL219      0.0266
    102  CG1      -46.1540  -23.9840    4.9890 C.3   219  VAL219      0.0020
    103  CG2      -47.4180  -21.8600    5.3020 C.3   219  VAL219      0.0020
    104  N        -42.7830  -22.3890    5.4060 N.am  220  CYS220     -0.1956
    105  CA       -41.4960  -23.0650    5.3070 C.3   220  CYS220      0.1843
    106  C        -40.4130  -22.3860    6.1340 C.2   220  CYS220      0.2625
    107  O        -39.5760  -23.0560    6.7370 O.2   220  CYS220     -0.2714
    108  CB       -41.0590  -23.1030    3.8490 C.3   220  CYS220      0.0997
    109  SG       -42.3660  -23.6520    2.7110 S.3   220  CYS220     -0.0797
    110  N        -40.4330  -21.0560    6.1560 N.am  221  HIS221     -0.1959
    111  CA       -39.4010  -20.2680    6.8160 C.3   221  HIS221      0.1787
    112  C        -39.7610  -19.9700    8.2640 C.2   221  HIS221      0.2620
    113  O        -39.9010  -18.8120    8.6570 O.2   221  HIS221     -0.2715
    114  CB       -39.1600  -18.9730    6.0400 C.3   221  HIS221      0.0785
    115  CG       -38.3140  -19.1700    4.8270 C.ar  221  HIS221      0.0821
    116  ND1      -36.9380  -19.2070    4.8860 N.ar  221  HIS221     -0.2267
    117  CD2      -38.6430  -19.3640    3.5290 C.ar  221  HIS221      0.1154
    118  CE1      -36.4560  -19.4150    3.6750 C.ar  221  HIS221      0.1986
    119  NE2      -37.4700  -19.5080    2.8360 N.ar  221  HIS221     -0.2212
    120  N        -39.8890  -21.0330    9.0460 N.am  222  MET222     -0.1977
    121  CA       -40.3000  -20.9290   10.4340 C.3   222  MET222      0.1605
    122  C        -39.6010  -21.9630   11.2790 C.2   222  MET222      0.2287
    123  O        -39.0220  -22.9290   10.7700 O.2   222  MET222     -0.2864
    124  CB       -41.8070  -21.1750   10.5660 C.3   222  MET222      0.0413
    125  CG       -42.2600  -22.5490   10.0550 C.3   222  MET222      0.0598
    126  SD       -43.9030  -23.0460   10.6180 S.3   222  MET222     -0.1393
    127  CE       -43.6000  -23.1700   12.3790 C.3   222  MET222      0.0692
    128  N        -35.4680  -24.5020   13.7540 N.3   225  ASP225     -0.1225
    129  CA       -34.3320  -24.6890   12.8330 C.3   225  ASP225      0.1805
    130  C        -33.9310  -23.4280   12.0640 C.2   225  ASP225      0.2597
    131  O        -32.8040  -23.3250   11.5790 O.2   225  ASP225     -0.2718
    132  CB       -34.6680  -25.7660   11.7920 C.3   225  ASP225      0.1424
    133  CG       -34.8710  -27.1290   12.4060 C.2   225  ASP225      0.3668
    134  OD1      -33.9530  -27.9770   12.2960 O.co2 225  ASP225     -0.2456
    135  OD2      -35.9500  -27.3520   13.0060 O.co2 225  ASP225     -0.2456
    136  N        -34.8760  -22.5050   11.9130 N.am  226  HIS226     -0.1975
    137  CA       -34.7100  -21.3110   11.0840 C.3   226  HIS226      0.1656
    138  C        -35.9720  -20.4740   11.2700 C.2   226  HIS226      0.2291
    139  O        -36.9540  -20.6250   10.5340 O.2   226  HIS226     -0.2864
    140  CB       -34.4980  -21.6810    9.6080 C.3   226  HIS226      0.0771
    141  CG       -35.2580  -22.8940    9.1690 C.ar  226  HIS226      0.0820
    142  ND1      -36.6350  -22.9380    9.1310 N.ar  226  HIS226     -0.2267
    143  CD2      -34.8300  -24.1080    8.7470 C.ar  226  HIS226      0.1154
    144  CE1      -37.0220  -24.1260    8.7000 C.ar  226  HIS226      0.1986
    145  NE2      -35.9460  -24.8550    8.4630 N.ar  226  HIS226     -0.2212
    146  N        -37.0030  -17.3660   11.0080 N.3   228  GLU228     -0.1245
    147  CA       -37.0630  -16.0200   10.4170 C.3   228  GLU228      0.1567
    148  C        -38.4720  -15.4090   10.3910 C.2   228  GLU228      0.2260
    149  O        -38.6060  -14.2030   10.5560 O.2   228  GLU228     -0.2867
    150  CB       -36.4020  -15.9550    9.0250 C.3   228  GLU228      0.0388
    151  CG       -36.7240  -17.1060    8.0810 C.3   228  GLU228      0.1160
    152  CD       -35.6900  -18.2250    8.1060 C.2   228  GLU228      0.3649
    153  OE1      -35.6130  -18.9820    7.1140 O.co2 228  GLU228     -0.2457
    154  OE2      -34.9610  -18.3530    9.1160 O.co2 228  GLU228     -0.2457
    155  N        -23.4020  -17.8280    1.8750 N.3   283  TYR283     -0.1241
    156  CA       -24.0850  -18.9570    2.5090 C.3   283  TYR283      0.1605
    157  C        -23.3040  -19.4470    3.7400 C.2   283  TYR283      0.2264
    158  O        -22.1070  -19.7600    3.6480 O.2   283  TYR283     -0.2867
    159  CB       -24.3240  -20.1010    1.5190 C.3   283  TYR283      0.0534
    160  CG       -25.1430  -21.2070    2.1310 C.ar  283  TYR283     -0.0201
    161  CD1      -26.5110  -21.0500    2.3340 C.ar  283  TYR283     -0.0009
    162  CD2      -24.5510  -22.3960    2.5430 C.ar  283  TYR283     -0.0009
    163  CE1      -27.2630  -22.0420    2.9200 C.ar  283  TYR283      0.0417
    164  CE2      -25.3030  -23.4010    3.1340 C.ar  283  TYR283      0.0417
    165  CZ       -26.6590  -23.2170    3.3170 C.ar  283  TYR283      0.1957
    166  OH       -27.4140  -24.2080    3.9000 O.3   283  TYR283     -0.2866
    167  N        -24.6220  -21.8840    6.1420 N.3   285  ASP285     -0.1225
    168  CA       -25.3170  -23.0240    6.7260 C.3   285  ASP285      0.1805
    169  C        -26.2630  -22.5610    7.8340 C.2   285  ASP285      0.2597
    170  O        -26.2050  -23.0350    8.9740 O.2   285  ASP285     -0.2718
    171  CB       -24.3200  -24.0790    7.2280 C.3   285  ASP285      0.1424
    172  CG       -23.6730  -24.8550    6.0890 C.2   285  ASP285      0.3668
    173  OD1      -22.5960  -24.4390    5.6110 O.co2 285  ASP285     -0.2456
    174  OD2      -24.2570  -25.8680    5.6610 O.co2 285  ASP285     -0.2456
    175  N        -27.1250  -21.6160    7.4730 N.am  286  MET286     -0.1979
    176  CA       -28.1610  -21.0920    8.3640 C.3   286  MET286      0.1605
    177  C        -27.5910  -20.4080    9.6050 C.2   286  MET286      0.2287
    178  O        -28.2190  -20.4260   10.6620 O.2   286  MET286     -0.2864
    179  CB       -29.1120  -22.2100    8.7950 C.3   286  MET286      0.0413
    180  CG       -29.5700  -23.0940    7.6610 C.3   286  MET286      0.0598
    181  SD       -30.9680  -24.1160    8.1360 S.3   286  MET286     -0.1393
    182  CE       -30.2780  -25.1040    9.4550 C.3   286  MET286      0.0692
    183  N        -24.8860  -21.3420   11.1950 N.3   288  MET288     -0.1245
    184  CA       -24.0820  -22.2750   11.9860 C.3   288  MET288      0.1570
    185  C        -22.5860  -22.0960   11.7270 C.2   288  MET288      0.2261
    186  O        -21.7700  -22.4690   12.5630 O.2   288  MET288     -0.2867
    187  CB       -24.4930  -23.7170   11.7090 C.3   288  MET288      0.0387
    188  CG       -25.8980  -24.0210   12.1690 C.3   288  MET288      0.0595
    189  SD       -26.2530  -25.7730   12.1150 S.3   288  MET288     -0.1393
    190  CE       -26.3160  -26.0470   10.3370 C.3   288  MET288      0.0692
    191  N        -30.3820  -14.8720   12.7380 N.3   402  LYS402     -0.1245
    192  CA       -31.7050  -14.5670   12.1780 C.3   402  LYS402      0.1561
    193  C        -32.4210  -13.4710   12.9740 C.2   402  LYS402      0.2260
    194  O        -33.1060  -12.6320   12.3880 O.2   402  LYS402     -0.2867
    195  CB       -32.5770  -15.8220   12.1100 C.3   402  LYS402      0.0271
    196  CG       -32.0470  -16.9380   11.1960 C.3   402  LYS402      0.0035
    197  CD       -32.1080  -16.5680    9.7140 C.3   402  LYS402      0.0206
    198  CE       -31.5710  -17.6890    8.8320 C.3   402  LYS402      0.1093
    199  NZ       -32.3560  -18.9540    8.9420 N.3   402  LYS402     -0.1314
    200  N        -23.5190  -31.9130   -0.7450 N.3   488  ARG488     -0.1245
    201  CA       -23.2150  -31.8670    0.6720 C.3   488  ARG488      0.1563
    202  C        -21.9300  -32.6510    0.9290 C.2   488  ARG488      0.2260
    203  O        -21.6250  -33.6090    0.2180 O.2   488  ARG488     -0.2867
    204  CB       -24.3560  -32.4760    1.4750 C.3   488  ARG488      0.0307
    205  CG       -25.7010  -31.8230    1.2090 C.3   488  ARG488      0.0489
    206  CD       -26.7170  -32.2000    2.2670 C.3   488  ARG488      0.2205
    207  NE       -26.3190  -31.7250    3.5860 N.pl3 488  ARG488     -0.0865
    208  CZ       -26.3900  -30.4620    3.9980 C.cat 488  ARG488      0.5346
    209  NH1      -26.8510  -29.5040    3.2020 N.pl3 488  ARG488      0.1354
    210  NH2      -25.9900  -30.1550    5.2230 N.pl3 488  ARG488      0.1354
@<TRIPOS>BOND
     1    90    89    2
     2    89    88    1
     3     5     6    1
     4   200   201    1
     5     1     2    1
     6     3     2    1
     7     3     4    2
     8    17    18    1
     9    17    19    1
    10    17    14    1
    11    88    91    1
    12    88    87    1
    13    13    14    1
    14    13     7   am
    15    84    83    2
    16   203   202    2
    17     6     9    1
    18     6     7    1
    19    15    14    1
    20    15    16    2
    21    91    92    1
    22   201   202    1
    23   201   204    1
    24     9    10    1
    25    87    83   am
    26    83    82    1
    27     7     8    2
    28    11    10    2
    29    10    12   am
    30   205   204    1
    31   205   206    1
    32   159   160    1
    33   159   156    1
    34    81    82    1
    35    93    92   ar
    36    93    95   ar
    37    92    94   ar
    38    82    85    1
    39   155   156    1
    40   160   161   ar
    41   160   162   ar
    42   206   207    1
    43    20    21    1
    44   161   163   ar
    45    54    52   ar
    46    54    53   ar
    47    78    77    2
    48   156   157    1
    49   162   164   ar
    50   109   108    1
    51    52    50   ar
    52    95    96   ar
    53   119   117   ar
    54   119   118   ar
    55   163   165   ar
    56    94    96   ar
    57    77    76    1
    58   164   165   ar
    59    53    51   ar
    60   209   208    1
    61    85    86    1
    62   165   166    1
    63   117   115   ar
    64   207   208    2
    65   158   157    2
    66    21    24    1
    67    21    22    1
    68   118   116   ar
    69    50    51   ar
    70    50    49    1
    71   108   105    1
    72    24    25    1
    73   208   210    1
    74    74    73    2
    75    49    46    1
    76    76    75    1
    77    76    79    1
    78    23    22    2
    79    73    75   am
    80    73    72    1
    81   115   116   ar
    82   115   114    1
    83    67    66    2
    84   102   101    1
    85   101   103    1
    86   101    98    1
    87    71    72    1
    88    79    80    1
    89    25    26   ar
    90    25    27   ar
    91   105   104    1
    92   105   106    1
    93    47    48    2
    94    47    46    1
    95   104    99   am
    96    66    65    1
    97   173   172   ar
    98   174   172   ar
    99    46    45    1
   100    26    28   ar
   101    70    68    1
   102    97    98    1
   103    27    29   ar
   104   114   111    1
   105   172   171    1
   106   106   110   am
   107   106   107    2
   108   167   168    1
   109   110   111    1
   110    98    99    1
   111    99   100    2
   112    45    33   am
   113   168   171    1
   114   168   169    1
   115    58    57    2
   116    68    65    1
   117    68    69    1
   118   111   112    1
   119    65    64    1
   120    28    30   ar
   121   153   152   ar
   122    29    30   ar
   123   175   169   am
   124   175   176    1
   125   180   181    1
   126   180   179    1
   127   169   170    2
   128    31    32    1
   129    33    34    2
   130    33    32    1
   131    57    56    1
   132   151   152    1
   133   151   150    1
   134   152   154   ar
   135   181   182    1
   136    55    56    1
   137   112   113    2
   138   112   120   am
   139   176   179    1
   140   176   177    1
   141   145   144   ar
   142   145   143   ar
   143    32    35    1
   144   144   142   ar
   145   143   141   ar
   146   198   199    1
   147   198   197    1
   148    56    59    1
   149   150   147    1
   150   120   121    1
   151   142   141   ar
   152   141   140    1
   153    35    36    1
   154    59    60    1
   155   177   178    2
   156   140   137    1
   157   197   196    1
   158   125   124    1
   159   125   126    1
   160    36    37   ar
   161    36    38   ar
   162   190   189    1
   163   148   147    1
   164   148   149    2
   165   147   146    1
   166   121   124    1
   167   121   122    1
   168   139   138    2
   169    60    61    1
   170   126   127    1
   171   123   122    2
   172    41    38   ar
   173    41    43   ar
   174    37    39   ar
   175    38    40   ar
   176    61    62    1
   177   137   138    1
   178   137   136    1
   179   183   184    1
   180   196   195    1
   181    43    44   ar
   182   131   130    2
   183   187   184    1
   184   187   188    1
   185    39    40   ar
   186   185   184    1
   187   185   186    2
   188    40    42   ar
   189   132   133    1
   190   132   129    1
   191   136   130   am
   192   130   129    1
   193   195   192    1
   194   189   188    1
   195   192   191    1
   196   192   193    1
   197   134   133   ar
   198    44    42   ar
   199   194   193    2
   200   133   135   ar
   201    62    63    1
   202   129   128    1
