@<TRIPOS>MOLECULE
tmp/4n4lA01.pdb
 201 197 0 0 0
SMALL
GASTEIGER

@<TRIPOS>ATOM
      1  N        -46.5330  -36.2950   -6.5910 N.3    57  TRP57      -0.1241
      2  CA       -47.0000  -34.9170   -6.7980 C.3    57  TRP57       0.1605
      3  C        -45.8570  -33.9140   -6.7910 C.2    57  TRP57       0.2264
      4  O        -46.0010  -32.8190   -7.3350 O.2    57  TRP57      -0.2867
      5  CB       -48.0360  -34.5130   -5.7300 C.3    57  TRP57       0.0550
      6  CG       -49.1960  -35.4440   -5.6570 C.ar   57  TRP57       0.0003
      7  CD1      -49.3390  -36.5060   -4.8170 C.ar   57  TRP57       0.0946
      8  CD2      -50.3730  -35.4140   -6.4730 C.ar   57  TRP57       0.0152
      9  NE1      -50.5320  -37.1430   -5.0560 N.ar   57  TRP57      -0.2442
     10  CE2      -51.1860  -36.4920   -6.0700 C.ar   57  TRP57       0.0810
     11  CE3      -50.8210  -34.5760   -7.5010 C.ar   57  TRP57       0.0012
     12  CZ2      -52.4180  -36.7620   -6.6650 C.ar   57  TRP57       0.0191
     13  CZ3      -52.0480  -34.8450   -8.0920 C.ar   57  TRP57       0.0001
     14  CH2      -52.8300  -35.9300   -7.6750 C.ar   57  TRP57       0.0015
     15  N        -63.4150  -27.2680  -17.7550 N.3    80  VAL80      -0.1245
     16  CA       -64.0080  -26.2840  -16.8480 C.3    80  VAL80       0.1561
     17  C        -65.4400  -26.6660  -16.4450 C.2    80  VAL80       0.2260
     18  O        -65.7950  -26.6100  -15.2690 O.2    80  VAL80      -0.2867
     19  CB       -63.9920  -24.8640  -17.4670 C.3    80  VAL80       0.0252
     20  CG1      -64.7800  -23.8850  -16.6050 C.3    80  VAL80       0.0019
     21  CG2      -62.5590  -24.3790  -17.6470 C.3    80  VAL80       0.0019
     22  N        -65.2690  -29.7830  -14.0290 N.3    83  HIS83      -0.1241
     23  CA       -64.5860  -29.4510  -12.7780 C.3    83  HIS83       0.1621
     24  C        -65.2820  -28.3700  -11.9670 C.2    83  HIS83       0.2264
     25  O        -65.0180  -28.2360  -10.7760 O.2    83  HIS83      -0.2867
     26  CB       -63.1080  -29.1180  -13.0170 C.3    83  HIS83       0.0745
     27  CG       -62.2550  -30.3390  -13.0950 C.ar   83  HIS83       0.0817
     28  ND1      -61.6930  -30.9210  -11.9780 N.ar   83  HIS83      -0.2268
     29  CD2      -61.9270  -31.1320  -14.1400 C.ar   83  HIS83       0.1154
     30  CE1      -61.0380  -32.0100  -12.3370 C.ar   83  HIS83       0.1986
     31  NE2      -61.1590  -32.1550  -13.6430 N.ar   83  HIS83      -0.2212
     32  N        -64.4600  -30.2630   -8.8160 N.3    87  THR87      -0.1218
     33  CA       -63.4500  -29.6140   -7.9730 C.3    87  THR87       0.1862
     34  C        -63.6580  -28.0990   -8.0510 C.2    87  THR87       0.2287
     35  O        -62.8230  -27.3870   -8.6010 O.2    87  THR87      -0.2866
     36  CB       -62.0080  -29.9570   -8.4260 C.3    87  THR87       0.1770
     37  OG1      -61.7860  -29.4570   -9.7510 O.3    87  THR87      -0.2211
     38  CG2      -61.7540  -31.4680   -8.3950 C.3    87  THR87       0.0375
     39  N        -60.9210  -25.1520   -7.6760 N.3    90  ILE90      -0.1231
     40  CA       -59.8770  -25.0920   -8.7040 C.3    90  ILE90       0.1692
     41  C        -60.3360  -24.2290   -9.8830 C.2    90  ILE90       0.2591
     42  O        -59.5880  -23.3720  -10.3640 O.2    90  ILE90      -0.2718
     43  CB       -59.4660  -26.5050   -9.1960 C.3    90  ILE90       0.0266
     44  CG1      -58.7270  -27.2480   -8.0780 C.3    90  ILE90       0.0019
     45  CG2      -58.5750  -26.4030  -10.4230 C.3    90  ILE90       0.0020
     46  CD1      -58.3330  -28.6850   -8.4100 C.3    90  ILE90       0.0001
     47  N        -61.5760  -24.4380  -10.3260 N.am   91  VAL91      -0.1980
     48  CA       -62.1570  -23.6190  -11.3910 C.3    91  VAL91       0.1595
     49  C        -62.3090  -22.1600  -10.9520 C.2    91  VAL91       0.2287
     50  O        -61.9870  -21.2470  -11.7120 O.2    91  VAL91      -0.2864
     51  CB       -63.5290  -24.1640  -11.8460 C.3    91  VAL91       0.0276
     52  CG1      -64.1960  -23.2050  -12.8280 C.3    91  VAL91       0.0022
     53  CG2      -63.3680  -25.5460  -12.4620 C.3    91  VAL91       0.0022
     54  N        -58.9540  -20.5510  -10.9630 N.3    94  TRP94      -0.1241
     55  CA       -58.5090  -20.3660  -12.3360 C.3    94  TRP94       0.1605
     56  C        -59.2460  -19.2130  -13.0400 C.2    94  TRP94       0.2264
     57  O        -58.6290  -18.4440  -13.7760 O.2    94  TRP94      -0.2867
     58  CB       -58.6550  -21.6770  -13.1120 C.3    94  TRP94       0.0550
     59  CG       -58.3780  -21.5240  -14.5660 C.ar   94  TRP94       0.0003
     60  CD1      -57.1580  -21.5350  -15.1780 C.ar   94  TRP94       0.0946
     61  CD2      -59.3480  -21.3270  -15.5950 C.ar   94  TRP94       0.0152
     62  NE1      -57.3110  -21.3580  -16.5330 N.ar   94  TRP94      -0.2442
     63  CE2      -58.6470  -21.2220  -16.8130 C.ar   94  TRP94       0.0810
     64  CE3      -60.7460  -21.2220  -15.6040 C.ar   94  TRP94       0.0012
     65  CZ2      -59.2990  -21.0210  -18.0350 C.ar   94  TRP94       0.0191
     66  CZ3      -61.3900  -21.0190  -16.8120 C.ar   94  TRP94       0.0001
     67  CH2      -60.6650  -20.9250  -18.0140 C.ar   94  TRP94       0.0015
     68  N        -54.4990  -16.2910  -16.2620 N.3    99  HIS99      -0.1241
     69  CA       -54.5590  -17.4210  -17.1940 C.3    99  HIS99       0.1621
     70  C        -55.9770  -17.6320  -17.7150 C.2    99  HIS99       0.2264
     71  O        -56.1860  -17.8550  -18.9110 O.2    99  HIS99      -0.2867
     72  CB       -54.1080  -18.7170  -16.5270 C.3    99  HIS99       0.0745
     73  CG       -52.6690  -18.7270  -16.1420 C.ar   99  HIS99       0.0817
     74  ND1      -52.2210  -19.2580  -14.9530 N.ar   99  HIS99      -0.2268
     75  CD2      -51.5760  -18.2520  -16.7810 C.ar   99  HIS99       0.1154
     76  CE1      -50.9090  -19.1150  -14.8800 C.ar   99  HIS99       0.1986
     77  NE2      -50.4950  -18.5110  -15.9780 N.ar   99  HIS99      -0.2212
     78  N        -55.2350  -19.5470  -20.9420 N.3   121  VAL121     -0.1231
     79  CA       -54.3900  -20.6960  -20.6600 C.3   121  VAL121      0.1692
     80  C        -55.2130  -21.5810  -19.7360 C.2   121  VAL121      0.2593
     81  O        -55.3800  -21.2720  -18.5560 O.2   121  VAL121     -0.2718
     82  CB       -53.0460  -20.2760  -20.0260 C.3   121  VAL121      0.0266
     83  CG1      -52.1900  -21.4990  -19.7220 C.3   121  VAL121      0.0020
     84  CG2      -52.3010  -19.3090  -20.9600 C.3   121  VAL121      0.0020
     85  N        -55.7600  -22.6560  -20.2980 N.am  122  GLY122     -0.1942
     86  CA       -56.7800  -23.4630  -19.6250 C.3   122  GLY122      0.2014
     87  C        -56.2190  -24.7130  -18.9920 C.2   122  GLY122      0.2639
     88  O        -55.0140  -24.9680  -19.0710 O.2   122  GLY122     -0.2714
     89  N        -57.1020  -25.4920  -18.3630 N.am  123  CYS123     -0.1967
     90  CA       -56.7130  -26.7200  -17.6710 C.3   123  CYS123      0.1712
     91  C        -55.8800  -27.6230  -18.5740 C.2   123  CYS123      0.2296
     92  O        -54.8680  -28.1750  -18.1430 O.2   123  CYS123     -0.2864
     93  CB       -57.9450  -27.5090  -17.1980 C.3   123  CYS123      0.0983
     94  SG       -59.2800  -26.5590  -16.4450 S.3   123  CYS123     -0.0798
     95  N        -52.1150  -26.7510  -19.3900 N.3   126  CYS126     -0.1221
     96  CA       -51.1370  -27.1170  -18.3670 C.3   126  CYS126      0.1808
     97  C        -51.1180  -28.6040  -18.0010 C.2   126  CYS126      0.2601
     98  O        -50.0890  -29.1040  -17.5660 O.2   126  CYS126     -0.2717
     99  CB       -51.3660  -26.2840  -17.1100 C.3   126  CYS126      0.0970
    100  SG       -51.0370  -24.5160  -17.3360 S.3   126  CYS126     -0.0800
    101  N        -52.2350  -29.3090  -18.1780 N.am  127  HIS127     -0.1975
    102  CA       -52.3440  -30.7060  -17.7280 C.3   127  HIS127      0.1656
    103  C        -52.4940  -31.7480  -18.8360 C.2   127  HIS127      0.2291
    104  O        -52.4950  -32.9460  -18.5510 O.2   127  HIS127     -0.2864
    105  CB       -53.5220  -30.8400  -16.7630 C.3   127  HIS127      0.0771
    106  CG       -53.2980  -30.1490  -15.4590 C.ar  127  HIS127      0.0820
    107  ND1      -52.4100  -30.6200  -14.5180 N.ar  127  HIS127     -0.2267
    108  CD2      -53.8320  -29.0170  -14.9430 C.ar  127  HIS127      0.1154
    109  CE1      -52.4100  -29.8120  -13.4750 C.ar  127  HIS127      0.1986
    110  NE2      -53.2610  -28.8300  -13.7100 N.ar  127  HIS127     -0.2212
    111  N        -48.6380  -33.6700  -14.4560 N.3   136  MET136     -0.1231
    112  CA       -48.4880  -32.9440  -13.2030 C.3   136  MET136      0.1687
    113  C        -47.1940  -32.1400  -13.3330 C.2   136  MET136      0.2434
    114  O        -46.1020  -32.7020  -13.2760 O.2   136  MET136     -0.2733
    115  CB       -48.4740  -33.9180  -12.0270 C.3   136  MET136      0.0400
    116  CG       -48.8030  -33.3060  -10.6750 C.3   136  MET136      0.0596
    117  SD       -50.2830  -32.2650  -10.6380 S.3   136  MET136     -0.1393
    118  CE       -51.5530  -33.2980  -11.3360 C.3   136  MET136      0.0692
    119  N        -47.3180  -30.8210  -13.5610 N.am  137  PRO137     -0.2718
    120  CA       -46.1670  -30.0320  -13.9810 C.3   137  PRO137      0.1535
    121  C        -45.1620  -29.6580  -12.8950 C.2   137  PRO137      0.2599
    122  O        -45.4280  -29.7900  -11.6870 O.2   137  PRO137     -0.2715
    123  CB       -46.8020  -28.7510  -14.5460 C.3   137  PRO137      0.0310
    124  CG       -48.2510  -29.0220  -14.6520 C.3   137  PRO137      0.0237
    125  CD       -48.5540  -30.0260  -13.6120 C.3   137  PRO137      0.0939
    126  N        -43.9990  -29.2080  -13.3610 N.am  138  THR138     -0.1951
    127  CA       -43.0000  -28.5550  -12.5330 C.3   138  THR138      0.1897
    128  C        -42.7630  -27.1810  -13.1570 C.2   138  THR138      0.2313
    129  O        -43.4990  -26.7790  -14.0620 O.2   138  THR138     -0.2863
    130  CB       -41.6870  -29.3490  -12.5330 C.3   138  THR138      0.1794
    131  OG1      -41.1390  -29.3600  -13.8550 O.3   138  THR138     -0.2208
    132  CG2      -41.9280  -30.7870  -12.0640 C.3   138  THR138      0.0378
    133  N        -42.8640  -26.6110  -17.1850 N.3   141  LEU141     -0.1231
    134  CA       -44.0330  -26.0810  -17.9010 C.3   141  LEU141      0.1693
    135  C        -44.0400  -24.5570  -17.9220 C.2   141  LEU141      0.2592
    136  O        -44.1470  -23.9450  -18.9830 O.2   141  LEU141     -0.2718
    137  CB       -45.3420  -26.5830  -17.2690 C.3   141  LEU141      0.0284
    138  CG       -46.6460  -25.9240  -17.7380 C.3   141  LEU141      0.0019
    139  CD1      -46.9490  -26.2800  -19.1910 C.3   141  LEU141      0.0001
    140  CD2      -47.8110  -26.3020  -16.8330 C.3   141  LEU141      0.0001
    141  N        -43.9360  -23.9490  -16.7440 N.am  142  CYS142     -0.1970
    142  CA       -44.0230  -22.4970  -16.6280 C.3   142  CYS142      0.1712
    143  C        -42.9610  -21.8190  -17.4900 C.2   142  CYS142      0.2296
    144  O        -43.2060  -20.7540  -18.0450 O.2   142  CYS142     -0.2864
    145  CB       -43.8860  -22.0490  -15.1680 C.3   142  CYS142      0.0983
    146  SG       -44.8340  -23.0360  -13.9660 S.3   142  CYS142     -0.0798
    147  N        -41.6090  -26.5300   -7.9330 N.3   196  ARG196     -0.1231
    148  CA       -42.8370  -25.8130   -8.2390 C.3   196  ARG196      0.1694
    149  C        -42.6390  -24.3150   -8.3020 C.2   196  ARG196      0.2592
    150  O        -41.5970  -23.7740   -7.9030 O.2   196  ARG196     -0.2718
    151  CB       -43.9110  -26.1340   -7.2070 C.3   196  ARG196      0.0321
    152  CG       -44.1610  -27.6210   -7.0400 C.3   196  ARG196      0.0489
    153  CD       -45.3250  -27.8600   -6.0980 C.3   196  ARG196      0.2205
    154  NE       -45.9190  -29.1730   -6.2810 N.pl3 196  ARG196     -0.0865
    155  CZ       -46.9420  -29.6350   -5.5700 C.cat 196  ARG196      0.5346
    156  NH1      -47.4900  -28.8960   -4.6120 N.pl3 196  ARG196      0.1354
    157  NH2      -47.4150  -30.8470   -5.8170 N.pl3 196  ARG196      0.1354
    158  N        -43.6680  -23.6690   -8.8310 N.am  197  CYS197     -0.1956
    159  CA       -43.7520  -22.2280   -8.9430 C.3   197  CYS197      0.1843
    160  C        -44.9400  -21.7150   -8.1300 C.2   197  CYS197      0.2626
    161  O        -45.3770  -20.5780   -8.3030 O.2   197  CYS197     -0.2714
    162  CB       -43.9130  -21.8500  -10.4170 C.3   197  CYS197      0.0997
    163  SG       -42.4040  -22.0820  -11.3910 S.3   197  CYS197     -0.0797
    164  N        -45.4360  -22.5520   -7.2240 N.am  198  SER198     -0.1950
    165  CA       -46.6420  -22.2520   -6.4570 C.3   198  SER198      0.1924
    166  C        -46.3870  -22.0900   -4.9520 C.2   198  SER198      0.2314
    167  O        -47.3310  -21.9460   -4.1800 O.2   198  SER198     -0.2863
    168  CB       -47.6650  -23.3580   -6.6890 C.3   198  SER198      0.2116
    169  OG       -47.1010  -24.6180   -6.3690 O.3   198  SER198     -0.2180
    170  N        -51.2780  -22.0600   -6.5520 N.3   203  ARG203     -0.1231
    171  CA       -52.2680  -22.4410   -7.5400 C.3   203  ARG203      0.1694
    172  C        -53.6570  -22.2950   -6.8970 C.2   203  ARG203      0.2592
    173  O        -53.7780  -22.3850   -5.6730 O.2   203  ARG203     -0.2718
    174  CB       -52.0440  -23.8820   -8.0180 C.3   203  ARG203      0.0321
    175  CG       -52.3720  -24.9430   -6.9760 C.3   203  ARG203      0.0489
    176  CD       -52.0720  -26.3480   -7.4480 C.3   203  ARG203      0.2205
    177  NE       -52.4890  -27.3060   -6.4340 N.pl3 203  ARG203     -0.0865
    178  CZ       -51.7600  -27.7050   -5.3920 C.cat 203  ARG203      0.5346
    179  NH1      -50.5170  -27.2710   -5.2100 N.pl3 203  ARG203      0.1354
    180  NH2      -52.2840  -28.5650   -4.5230 N.pl3 203  ARG203      0.1354
    181  N        -54.7030  -22.0550   -7.6850 N.am  204  HIS204     -0.1976
    182  CA       -54.6290  -21.8540   -9.1300 C.3   204  HIS204      0.1656
    183  C        -54.7940  -20.3860   -9.5200 C.2   204  HIS204      0.2291
    184  O        -54.9020  -20.0710  -10.7020 O.2   204  HIS204     -0.2864
    185  CB       -55.6970  -22.7110   -9.8230 C.3   204  HIS204      0.0771
    186  CG       -55.2670  -24.1190  -10.0750 C.ar  204  HIS204      0.0820
    187  ND1      -55.3700  -25.1170   -9.1280 N.ar  204  HIS204     -0.2267
    188  CD2      -54.7330  -24.6960  -11.1740 C.ar  204  HIS204      0.1154
    189  CE1      -54.9140  -26.2480   -9.6370 C.ar  204  HIS204      0.1986
    190  NE2      -54.5240  -26.0200  -10.8780 N.ar  204  HIS204     -0.2212
    191  N        -52.4670  -18.0320   -8.8500 N.3   206  PHE206     -0.1241
    192  CA       -51.1250  -17.5310   -9.1830 C.3   206  PHE206      0.1605
    193  C        -51.0500  -16.0080   -9.0810 C.2   206  PHE206      0.2264
    194  O        -50.6640  -15.3240  -10.0280 O.2   206  PHE206     -0.2867
    195  CB       -50.7050  -18.0040  -10.5770 C.3   206  PHE206      0.0534
    196  CG       -50.6820  -19.5000  -10.7280 C.ar  206  PHE206     -0.0203
    197  CD1      -49.7290  -20.2600  -10.0740 C.ar  206  PHE206     -0.0042
    198  CD2      -51.6110  -20.1480  -11.5350 C.ar  206  PHE206     -0.0042
    199  CE1      -49.7030  -21.6520  -10.2190 C.ar  206  PHE206     -0.0003
    200  CE2      -51.5850  -21.5280  -11.6870 C.ar  206  PHE206     -0.0003
    201  CZ       -50.6340  -22.2770  -11.0250 C.ar  206  PHE206     -0.0000
@<TRIPOS>BOND
     1    84    82    1
     2    78    79    1
     3    79    82    1
     4    79    80    1
     5    85    80   am
     6    85    86    1
     7    82    83    1
     8    80    81    2
     9    86    87    1
    10    95    96    1
    11   139   138    1
    12    88    87    2
    13    87    89   am
    14   136   135    2
    15    71    70    2
    16   103   104    2
    17   103   102    1
    18    91    92    2
    19    91    90    1
    20    96    97    1
    21    96    99    1
    22    89    90    1
    23   101    97   am
    24   101   102    1
    25   144   143    2
    26    65    67   ar
    27    65    63   ar
    28    67    66   ar
    29    97    98    2
    30   135   134    1
    31   135   141   am
    32   134   137    1
    33   134   133    1
    34    15    16    1
    35   138   137    1
    36   138   140    1
    37   102   105    1
    38    70    69    1
    39    90    93    1
    40    21    19    1
    41   143   142    1
    42    19    16    1
    43    19    20    1
    44   100    99    1
    45    93    94    1
    46    69    72    1
    47    69    68    1
    48    16    17    1
    49    63    62   ar
    50    63    61   ar
    51    66    64   ar
    52    75    73   ar
    53    75    77   ar
    54   105   106    1
    55   141   142    1
    56   142   145    1
    57    62    60   ar
    58    72    73    1
    59    17    18    2
    60    73    74   ar
    61    77    76   ar
    62    64    61   ar
    63    61    59   ar
    64   106   108   ar
    65   106   107   ar
    66    60    59   ar
    67   145   146    1
    68    74    76   ar
    69   108   110   ar
    70   124   123    1
    71   124   125    1
    72    59    58    1
    73   123   120    1
    74   107   109   ar
    75   111   112    1
    76    29    31   ar
    77    29    27   ar
    78   129   128    2
    79    22    23    1
    80   120   119    1
    81   120   121    1
    82   131   130    1
    83    57    56    2
    84   110   109   ar
    85    31    30   ar
    86   125   119    1
    87   119   113   am
    88   126   121   am
    89   126   127    1
    90   113   114    2
    91   113   112    1
    92   112   115    1
    93   128   127    1
    94    58    55    1
    95    27    26    1
    96    27    28   ar
    97    56    55    1
    98    26    23    1
    99   121   122    2
   100    52    51    1
   101    23    24    1
   102   127   130    1
   103   130   132    1
   104    53    51    1
   105    30    28   ar
   106    55    54    1
   107   115   116    1
   108    24    25    2
   109    51    48    1
   110    50    49    2
   111   200   198   ar
   112   200   201   ar
   113   198   196   ar
   114    48    49    1
   115    48    47    1
   116   163   162    1
   117   118   117    1
   118   188   190   ar
   119   188   186   ar
   120   201   199   ar
   121   190   189   ar
   122   196   195    1
   123   196   197   ar
   124   184   183    2
   125   116   117    1
   126   195   192    1
   127    45    43    1
   128   162   159    1
   129    42    41    2
   130    47    41   am
   131   199   197   ar
   132   186   185    1
   133   186   187   ar
   134   194   193    2
   135    41    40    1
   136   185   182    1
   137    37    36    1
   138   189   187   ar
   139   183   182    1
   140    43    40    1
   141    43    44    1
   142   192   193    1
   143   192   191    1
   144   182   181    1
   145   159   158    1
   146   159   160    1
   147   158   149   am
   148    32    33    1
   149    40    39    1
   150    35    34    2
   151    36    38    1
   152    36    33    1
   153    46    44    1
   154   161   160    2
   155   149   148    1
   156   149   150    2
   157   148   147    1
   158   148   151    1
   159   160   164   am
   160    13    14   ar
   161    13    11   ar
   162    34    33    1
   163   174   171    1
   164   174   175    1
   165   181   172   am
   166    14    12   ar
   167   171   172    1
   168   171   170    1
   169    11     8   ar
   170   176   175    1
   171   176   177    1
   172     4     3    2
   173   164   165    1
   174   151   152    1
   175   152   153    1
   176   172   173    2
   177     2     3    1
   178     2     1    1
   179     2     5    1
   180   168   165    1
   181   168   169    1
   182    12    10   ar
   183     8    10   ar
   184     8     6   ar
   185   165   166    1
   186   177   178    2
   187   154   153    1
   188   154   155    2
   189    10     9   ar
   190   157   155    1
   191     5     6    1
   192     6     7   ar
   193   155   156    1
   194   178   179    1
   195   178   180    1
   196     9     7   ar
   197   166   167    2
