@<TRIPOS>MOLECULE
tmp/4n4lA07.pdb
 187 183 0 0 0
SMALL
GASTEIGER

@<TRIPOS>ATOM
      1  N        -40.4190   -4.6020   14.5970 N.3   236  ILE236     -0.1231
      2  CA       -41.3910   -3.5430   14.3680 C.3   236  ILE236      0.1692
      3  C        -41.9360   -3.6210   12.9340 C.2   236  ILE236      0.2592
      4  O        -43.1110   -3.3480   12.7030 O.2   236  ILE236     -0.2718
      5  CB       -40.8090   -2.1630   14.7330 C.3   236  ILE236      0.0266
      6  CG1      -40.6710   -2.0730   16.2620 C.3   236  ILE236      0.0019
      7  CG2      -41.7080   -1.0440   14.2090 C.3   236  ILE236      0.0020
      8  CD1      -39.7050   -0.9880   16.7720 C.3   236  ILE236      0.0001
      9  N        -41.1020   -4.0350   11.9830 N.am  237  HIS237     -0.1976
     10  CA       -41.5900   -4.2890   10.6180 C.3   237  HIS237      0.1656
     11  C        -42.7550   -5.2710   10.6230 C.2   237  HIS237      0.2291
     12  O        -43.7720   -5.0420    9.9630 O.2   237  HIS237     -0.2864
     13  CB       -40.5100   -4.8820    9.7200 C.3   237  HIS237      0.0771
     14  CG       -39.3250   -4.0000    9.5080 C.ar  237  HIS237      0.0820
     15  ND1      -38.0500   -4.5040    9.3860 N.ar  237  HIS237     -0.2267
     16  CD2      -39.2140   -2.6590    9.3820 C.ar  237  HIS237      0.1154
     17  CE1      -37.2020   -3.5110    9.1980 C.ar  237  HIS237      0.1986
     18  NE2      -37.8810   -2.3810    9.1930 N.ar  237  HIS237     -0.2212
     19  N        -45.9290   -3.8530   12.1330 N.3   240  LEU240     -0.1245
     20  CA       -46.5440   -2.9430   11.1560 C.3   240  LEU240      0.1561
     21  C        -47.1870   -3.7020    9.9900 C.2   240  LEU240      0.2260
     22  O        -48.2230   -3.2820    9.4660 O.2   240  LEU240     -0.2867
     23  CB       -45.5280   -1.9190   10.6460 C.3   240  LEU240      0.0270
     24  CG       -45.0660   -0.8580   11.6470 C.3   240  LEU240      0.0019
     25  CD1      -44.0750    0.0930   10.9920 C.3   240  LEU240      0.0001
     26  CD2      -46.2450   -0.0810   12.2260 C.3   240  LEU240      0.0001
     27  N        -44.0240    0.6340   -0.9250 N.3   259  TYR259     -0.1227
     28  CA       -44.4100    0.0450    0.3600 C.3   259  TYR259      0.1736
     29  C        -43.8650    0.8270    1.5400 C.2   259  TYR259      0.2595
     30  O        -42.7220    1.2800    1.5190 O.2   259  TYR259     -0.2718
     31  CB       -43.9340   -1.4170    0.4450 C.3   259  TYR259      0.0548
     32  CG       -44.7730   -2.3190   -0.4150 C.ar  259  TYR259     -0.0200
     33  CD1      -45.9350   -2.8940    0.0830 C.ar  259  TYR259     -0.0009
     34  CD2      -44.4460   -2.5440   -1.7490 C.ar  259  TYR259     -0.0009
     35  CE1      -46.7350   -3.6910   -0.7110 C.ar  259  TYR259      0.0417
     36  CE2      -45.2440   -3.3370   -2.5540 C.ar  259  TYR259      0.0417
     37  CZ       -46.3880   -3.9080   -2.0290 C.ar  259  TYR259      0.1957
     38  OH       -47.1960   -4.6920   -2.8170 O.3   259  TYR259     -0.2866
     39  N        -44.6950    0.9800    2.5710 N.am  260  ARG260     -0.1966
     40  CA       -44.2240    1.4760    3.8610 C.3   260  ARG260      0.1729
     41  C        -43.5580    0.3560    4.6550 C.2   260  ARG260      0.2616
     42  O        -42.5060    0.5560    5.2530 O.2   260  ARG260     -0.2715
     43  CB       -45.3710    2.0480    4.6990 C.3   260  ARG260      0.0348
     44  CG       -44.8910    2.5180    6.0680 C.3   260  ARG260      0.0492
     45  CD       -45.9540    3.1840    6.8970 C.3   260  ARG260      0.2205
     46  NE       -45.3320    3.8860    8.0260 N.pl3 260  ARG260     -0.0865
     47  CZ       -45.6930    3.7860    9.3040 C.cat 260  ARG260      0.5346
     48  NH1      -46.7060    3.0040    9.6940 N.pl3 260  ARG260      0.1354
     49  NH2      -45.0290    4.4910   10.2070 N.pl3 260  ARG260      0.1354
     50  N        -44.2080   -0.8050    4.6870 N.am  261  VAL261     -0.1964
     51  CA       -43.7660   -1.9420    5.4810 C.3   261  VAL261      0.1712
     52  C        -43.0770   -2.9540    4.5740 C.2   261  VAL261      0.2458
     53  O        -43.6760   -3.4040    3.5930 O.2   261  VAL261     -0.2730
     54  CB       -44.9610   -2.6320    6.1630 C.3   261  VAL261      0.0289
     55  CG1      -44.5020   -3.8710    6.9570 C.3   261  VAL261      0.0023
     56  CG2      -45.6930   -1.6460    7.0650 C.3   261  VAL261      0.0023
     57  N        -41.8170   -3.3080    4.8880 N.am  262  PRO262     -0.2727
     58  CA       -41.1090   -4.3070    4.1040 C.3   262  PRO262      0.1402
     59  C        -41.5160   -5.7160    4.5200 C.2   262  PRO262      0.2269
     60  O        -41.6870   -5.9800    5.7070 O.2   262  PRO262     -0.2865
     61  CB       -39.6460   -4.0560    4.4730 C.3   262  PRO262      0.0296
     62  CG       -39.7190   -3.6180    5.9100 C.3   262  PRO262      0.0237
     63  CD       -41.0080   -2.8400    6.0310 C.3   262  PRO262      0.0939
     64  N        -40.1390   -8.2500   -0.2520 N.3   266  TYR266     -0.1227
     65  CA       -39.5900   -6.9120   -0.5100 C.3   266  TYR266      0.1736
     66  C        -38.0670   -6.8930   -0.3840 C.2   266  TYR266      0.2595
     67  O        -37.3700   -6.3410   -1.2390 O.2   266  TYR266     -0.2718
     68  CB       -40.1950   -5.8870    0.4380 C.3   266  TYR266      0.0548
     69  CG       -39.8240   -4.4620    0.1200 C.ar  266  TYR266     -0.0200
     70  CD1      -40.6750   -3.6480   -0.6240 C.ar  266  TYR266     -0.0009
     71  CD2      -38.6200   -3.9230    0.5580 C.ar  266  TYR266     -0.0009
     72  CE1      -40.3370   -2.3370   -0.9160 C.ar  266  TYR266      0.0417
     73  CE2      -38.2710   -2.6100    0.2580 C.ar  266  TYR266      0.0417
     74  CZ       -39.1340   -1.8260   -0.4720 C.ar  266  TYR266      0.1957
     75  OH       -38.7910   -0.5240   -0.7630 O.3   266  TYR266     -0.2866
     76  N        -37.5540   -7.5080    0.6750 N.am  267  CYS267     -0.1970
     77  CA       -36.1200   -7.4770    0.9560 C.3   267  CYS267      0.1712
     78  C        -35.3300   -8.5720    0.2630 C.2   267  CYS267      0.2296
     79  O        -34.1430   -8.3990    0.0110 O.2   267  CYS267     -0.2864
     80  CB       -35.8770   -7.5670    2.4590 C.3   267  CYS267      0.0983
     81  SG       -36.4750   -6.1420    3.3880 S.3   267  CYS267     -0.0798
     82  N        -27.0870   -4.0360    1.0140 N.3   305  TRP305     -0.1241
     83  CA       -28.1080   -4.1020    2.0650 C.3   305  TRP305      0.1605
     84  C        -28.4170   -2.7240    2.6340 C.2   305  TRP305      0.2264
     85  O        -29.5740   -2.3750    2.8200 O.2   305  TRP305     -0.2867
     86  CB       -27.7050   -5.0700    3.1840 C.3   305  TRP305      0.0550
     87  CG       -27.9980   -6.4730    2.8290 C.ar  305  TRP305      0.0003
     88  CD1      -27.0990   -7.4810    2.6560 C.ar  305  TRP305      0.0946
     89  CD2      -29.2890   -7.0320    2.5660 C.ar  305  TRP305      0.0152
     90  NE1      -27.7530   -8.6400    2.3100 N.ar  305  TRP305     -0.2442
     91  CE2      -29.0990   -8.3880    2.2440 C.ar  305  TRP305      0.0810
     92  CE3      -30.5890   -6.5150    2.5740 C.ar  305  TRP305      0.0012
     93  CZ2      -30.1620   -9.2380    1.9340 C.ar  305  TRP305      0.0191
     94  CZ3      -31.6410   -7.3560    2.2590 C.ar  305  TRP305      0.0001
     95  CH2      -31.4210   -8.7020    1.9430 C.ar  305  TRP305      0.0015
     96  N        -30.6460   -0.9770    0.2950 N.3   308  LEU308     -0.1231
     97  CA       -31.9990   -1.5340    0.3830 C.3   308  LEU308      0.1693
     98  C        -32.7580   -0.9030    1.5590 C.2   308  LEU308      0.2592
     99  O        -33.8820   -0.4150    1.3940 O.2   308  LEU308     -0.2718
    100  CB       -31.9350   -3.0670    0.5000 C.3   308  LEU308      0.0284
    101  CG       -33.2140   -3.8900    0.7270 C.3   308  LEU308      0.0019
    102  CD1      -33.7030   -3.7550    2.1680 C.3   308  LEU308      0.0001
    103  CD2      -34.3200   -3.5350   -0.2700 C.3   308  LEU308      0.0001
    104  N        -32.1330   -0.8920    2.7350 N.am  309  CYS309     -0.1970
    105  CA       -32.7460   -0.2850    3.9220 C.3   309  CYS309      0.1712
    106  C        -33.0200    1.2000    3.7000 C.2   309  CYS309      0.2296
    107  O        -33.9950    1.7390    4.2320 O.2   309  CYS309     -0.2864
    108  CB       -31.8530   -0.4420    5.1590 C.3   309  CYS309      0.0983
    109  SG       -31.2950   -2.1020    5.5340 S.3   309  CYS309     -0.0798
    110  N        -34.2450    2.6540    1.2760 N.3   311  ASP311     -0.1225
    111  CA       -35.5890    2.9100    0.7520 C.3   311  ASP311      0.1805
    112  C        -36.4310    3.6510    1.7870 C.2   311  ASP311      0.2598
    113  O        -37.2860    4.4660    1.4280 O.2   311  ASP311     -0.2718
    114  CB       -36.3160    1.6120    0.3940 C.3   311  ASP311      0.1424
    115  CG       -35.7730    0.9420   -0.8550 C.2   311  ASP311      0.3668
    116  OD1      -36.3120   -0.1250   -1.2100 O.co2 311  ASP311     -0.2456
    117  OD2      -34.8190    1.4600   -1.4770 O.co2 311  ASP311     -0.2456
    118  N        -36.2020    3.3530    3.0680 N.am  312  CYS312     -0.1956
    119  CA       -37.0540    3.8750    4.1390 C.3   312  CYS312      0.1843
    120  C        -36.3160    4.3840    5.3720 C.2   312  CYS312      0.2625
    121  O        -36.9560    4.6700    6.3870 O.2   312  CYS312     -0.2714
    122  CB       -38.0240    2.7780    4.5820 C.3   312  CYS312      0.0997
    123  SG       -38.7220    1.8080    3.2180 S.3   312  CYS312     -0.0797
    124  N        -34.9920    4.5060    5.2870 N.am  313  HIS313     -0.1973
    125  CA       -34.1530    4.8510    6.4300 C.3   313  HIS313      0.1656
    126  C        -32.8950    5.5980    6.0300 C.2   313  HIS313      0.2291
    127  O        -32.4600    5.5400    4.8900 O.2   313  HIS313     -0.2864
    128  CB       -33.6560    3.5970    7.1390 C.3   313  HIS313      0.0771
    129  CG       -34.7180    2.8460    7.8620 C.ar  313  HIS313      0.0820
    130  ND1      -35.4120    3.3770    8.9280 N.ar  313  HIS313     -0.2267
    131  CD2      -35.1810    1.5860    7.6930 C.ar  313  HIS313      0.1154
    132  CE1      -36.2710    2.4790    9.3740 C.ar  313  HIS313      0.1986
    133  NE2      -36.1480    1.3850    8.6430 N.ar  313  HIS313     -0.2212
    134  N        -28.1570    4.7770    9.9260 N.3   317  PHE317     -0.1227
    135  CA       -28.9820    3.9360   10.7930 C.3   317  PHE317      0.1736
    136  C        -28.9170    2.4680   10.3720 C.2   317  PHE317      0.2595
    137  O        -28.6730    1.5840   11.1990 O.2   317  PHE317     -0.2718
    138  CB       -30.4240    4.4340   10.7830 C.3   317  PHE317      0.0547
    139  CG       -31.3460    3.6200   11.6360 C.ar  317  PHE317     -0.0202
    140  CD1      -31.1340    3.5140   13.0040 C.ar  317  PHE317     -0.0042
    141  CD2      -32.4230    2.9480   11.0710 C.ar  317  PHE317     -0.0042
    142  CE1      -31.9830    2.7540   13.7920 C.ar  317  PHE317     -0.0003
    143  CE2      -33.2750    2.1960   11.8520 C.ar  317  PHE317     -0.0003
    144  CZ       -33.0580    2.0970   13.2140 C.ar  317  PHE317     -0.0000
    145  N        -29.1100    2.2190    9.0780 N.am  318  ALA318     -0.1980
    146  CA       -29.0420    0.8670    8.5260 C.3   318  ALA318      0.1597
    147  C        -27.6810    0.2270    8.7870 C.2   318  ALA318      0.2287
    148  O        -27.6010   -0.9170    9.2380 O.2   318  ALA318     -0.2864
    149  CB       -29.3370    0.8910    7.0220 C.3   318  ALA318      0.0319
    150  N        -27.3420   -0.8230   12.3390 N.3   321  LYS321     -0.1231
    151  CA       -28.1420   -2.0010   12.6450 C.3   321  LYS321      0.1693
    152  C        -27.4870   -3.2950   12.1780 C.2   321  LYS321      0.2591
    153  O        -27.5570   -4.3160   12.8670 O.2   321  LYS321     -0.2718
    154  CB       -29.5500   -1.8660   12.0610 C.3   321  LYS321      0.0285
    155  CG       -30.4410   -0.9320   12.8520 C.3   321  LYS321      0.0035
    156  CD       -30.7600   -1.5200   14.2130 C.3   321  LYS321      0.0206
    157  CE       -30.8560   -0.4760   15.2690 C.3   321  LYS321      0.1093
    158  NZ       -31.0500   -1.1210   16.5920 N.3   321  LYS321     -0.1314
    159  N        -26.8420   -3.2490   11.0180 N.am  322  LEU322     -0.1980
    160  CA       -26.1670   -4.4170   10.4760 C.3   322  LEU322      0.1596
    161  C        -24.8320   -4.6660   11.2040 C.2   322  LEU322      0.2287
    162  O        -24.3980   -5.8120   11.3370 O.2   322  LEU322     -0.2864
    163  CB       -25.9960   -4.2760    8.9590 C.3   322  LEU322      0.0297
    164  CG       -27.3270   -4.1720    8.2060 C.3   322  LEU322      0.0022
    165  CD1      -27.1310   -3.7170    6.7630 C.3   322  LEU322      0.0001
    166  CD2      -28.0710   -5.5070    8.2630 C.3   322  LEU322      0.0001
    167  N        -30.5920  -10.1770   12.0140 N.3   405  ALA405     -0.1245
    168  CA       -30.8400   -9.8460   10.6160 C.3   405  ALA405      0.1562
    169  C        -32.2340   -9.2520   10.4270 C.2   405  ALA405      0.2260
    170  O        -32.4440   -8.4300    9.5320 O.2   405  ALA405     -0.2867
    171  CB       -30.6640  -11.0890    9.7320 C.3   405  ALA405      0.0290
    172  N        -34.1560   -7.7300   12.9930 N.3   407  MET407     -0.1245
    173  CA       -34.4270   -6.6230   13.9100 C.3   407  MET407      0.1570
    174  C        -35.3780   -7.0010   15.0600 C.2   407  MET407      0.2261
    175  O        -36.1290   -6.1600   15.5510 O.2   407  MET407     -0.2867
    176  CB       -34.9440   -5.3970   13.1370 C.3   407  MET407      0.0387
    177  CG       -34.1330   -5.0560   11.8620 C.3   407  MET407      0.0595
    178  SD       -32.4060   -4.6750   12.2150 S.3   407  MET407     -0.1393
    179  CE       -31.5620   -5.3680   10.7810 C.3   407  MET407      0.0692
    180  N        -35.6580   -7.3220   18.5750 N.3   409  MET409     -0.1245
    181  CA       -34.9890   -6.9480   19.8150 C.3   409  MET409      0.1570
    182  C        -35.1560   -8.0400   20.8560 C.2   409  MET409      0.2261
    183  O        -34.1980   -8.4060   21.5430 O.2   409  MET409     -0.2867
    184  CB       -35.5510   -5.6320   20.3540 C.3   409  MET409      0.0387
    185  CG       -35.2700   -4.4330   19.4730 C.3   409  MET409      0.0595
    186  SD       -35.9410   -2.8950   20.1260 S.3   409  MET409     -0.1393
    187  CE       -37.6870   -3.1690   19.9490 C.3   409  MET409      0.0692
@<TRIPOS>BOND
     1    38    37    1
     2    36    37   ar
     3    36    34   ar
     4    37    35   ar
     5    34    32   ar
     6   117   115   ar
     7    67    66    2
     8   116   115   ar
     9    27    28    1
    10    72    70   ar
    11    72    74   ar
    12   115   114    1
    13    75    74    1
    14    35    33   ar
    15    70    69   ar
    16    65    66    1
    17    65    64    1
    18    65    68    1
    19    74    73   ar
    20    32    33   ar
    21    32    31    1
    22    66    76   am
    23   103   101    1
    24    79    78    2
    25    69    68    1
    26    69    71   ar
    27    73    71   ar
    28    78    77    1
    29    96    97    1
    30    28    31    1
    31    28    29    1
    32    97   100    1
    33    97    98    1
    34   114   111    1
    35   100   101    1
    36    76    77    1
    37   101   102    1
    38   111   110    1
    39   111   112    1
    40    77    80    1
    41    82    83    1
    42    99    98    2
    43   113   112    2
    44    30    29    2
    45    29    39   am
    46    98   104   am
    47   112   118   am
    48    93    95   ar
    49    93    91   ar
    50    95    94   ar
    51    83    84    1
    52    83    86    1
    53    91    90   ar
    54    91    89   ar
    55    94    92   ar
    56    90    88   ar
    57    80    81    1
    58    89    92   ar
    59    89    87   ar
    60    39    40    1
    61    84    85    2
    62    88    87   ar
    63   104   105    1
    64    87    86    1
    65   118   119    1
    66   123   122    1
    67    53    52    2
    68   106   105    1
    69   106   107    2
    70    40    41    1
    71    40    43    1
    72   105   108    1
    73    58    61    1
    74    58    59    1
    75    58    57    1
    76   119   122    1
    77   119   120    1
    78    61    62    1
    79    59    60    2
    80    52    57   am
    81    52    51    1
    82    41    50   am
    83    41    42    2
    84    50    51    1
    85    43    44    1
    86    57    63    1
    87   127   126    2
    88   108   109    1
    89   124   120   am
    90   124   125    1
    91   120   121    2
    92    51    54    1
    93    62    63    1
    94   126   125    1
    95    44    45    1
    96    54    55    1
    97    54    56    1
    98   125   128    1
    99   165   164    1
   100    45    46    1
   101   149   146    1
   102   128   129    1
   103   131   129   ar
   104   131   133   ar
   105   129   130   ar
   106    46    47    2
   107   164   166    1
   108   164   163    1
   109   146   147    1
   110   146   145    1
   111   133   132   ar
   112   147   148    2
   113   130   132   ar
   114   163   160    1
   115   145   136   am
   116    18    17   ar
   117    18    16   ar
   118    17    15   ar
   119    47    48    1
   120    47    49    1
   121    16    14   ar
   122    15    14   ar
   123    22    21    2
   124    14    13    1
   125   170   169    2
   126    13    10    1
   127   171   168    1
   128   134   135    1
   129    12    11    2
   130    21    20    1
   131   136   135    1
   132   136   137    2
   133   169   168    1
   134   160   159    1
   135   160   161    1
   136   168   167    1
   137    10    11    1
   138    10     9    1
   139    23    20    1
   140    23    24    1
   141   179   178    1
   142   138   135    1
   143   138   139    1
   144    25    24    1
   145   159   152   am
   146   141   139   ar
   147   141   143   ar
   148    20    19    1
   149   161   162    2
   150   139   140   ar
   151    24    26    1
   152   143   144   ar
   153   177   178    1
   154   177   176    1
   155     9     3   am
   156   154   151    1
   157   154   155    1
   158   152   151    1
   159   152   153    2
   160   150   151    1
   161     4     3    2
   162   155   156    1
   163     3     2    1
   164   172   173    1
   165   140   142   ar
   166   176   173    1
   167   144   142   ar
   168   173   174    1
   169     7     5    1
   170   156   157    1
   171     2     1    1
   172     2     5    1
   173     5     6    1
   174   174   175    2
   175   157   158    1
   176     6     8    1
   177   180   181    1
   178   185   186    1
   179   185   184    1
   180   181   184    1
   181   181   182    1
   182   187   186    1
   183   182   183    2
