@<TRIPOS>MOLECULE
tmp/4n4nA05.pdb
 212 203 0 0 0
SMALL
GASTEIGER

@<TRIPOS>ATOM
      1  N         46.0650   67.0930   24.4430 N.3   190  MET190     -0.1245
      2  CA        45.1200   66.7160   25.4990 C.3   190  MET190      0.1570
      3  C         45.4200   67.4480   26.8020 C.2   190  MET190      0.2261
      4  O         45.8230   66.8480   27.8040 O.2   190  MET190     -0.2867
      5  CB        45.0720   65.1930   25.7070 C.3   190  MET190      0.0387
      6  CG        43.9290   64.7020   26.6080 C.3   190  MET190      0.0595
      7  SD        42.2630   65.0390   25.9890 S.3   190  MET190     -0.1393
      8  CE        41.9410   66.6910   26.6130 C.3   190  MET190      0.0692
      9  N         46.5890   63.3500   29.0480 N.3   201  ARG201     -0.1231
     10  CA        45.7690   62.1880   29.3890 C.3   201  ARG201      0.1679
     11  C         44.2710   62.5150   29.4460 C.2   201  ARG201      0.2434
     12  O         43.8990   63.6370   29.7890 O.2   201  ARG201     -0.2733
     13  CB        46.2450   61.5840   30.7130 C.3   201  ARG201      0.0321
     14  CG        47.4460   60.6540   30.5490 C.3   201  ARG201      0.0489
     15  CD        48.1830   60.4390   31.8520 C.3   201  ARG201      0.2205
     16  NE        47.3490   59.8140   32.8790 N.pl3 201  ARG201     -0.0865
     17  CZ        47.7330   59.6280   34.1400 C.cat 201  ARG201      0.5346
     18  NH1       48.9430   60.0210   34.5330 N.pl3 201  ARG201      0.1354
     19  NH2       46.9100   59.0490   35.0100 N.pl3 201  ARG201      0.1354
     20  N         43.4070   61.5380   29.0970 N.am  202  PRO202     -0.2718
     21  CA        43.7560   60.1860   28.6380 C.3   202  PRO202      0.1535
     22  C         44.2140   60.1480   27.1800 C.2   202  PRO202      0.2599
     23  O         43.7770   60.9690   26.3630 O.2   202  PRO202     -0.2715
     24  CB        42.4480   59.3980   28.8120 C.3   202  PRO202      0.0310
     25  CG        41.5290   60.2990   29.6150 C.3   202  PRO202      0.0237
     26  CD        41.9520   61.6820   29.2700 C.3   202  PRO202      0.0939
     27  N         45.1000   59.2020   26.8720 N.am  203  SER203     -0.1936
     28  CA        45.6520   59.0510   25.5280 C.3   203  SER203      0.2055
     29  C         46.3660   57.7180   25.3760 C.2   203  SER203      0.2643
     30  O         46.6550   57.0380   26.3680 O.2   203  SER203     -0.2714
     31  CB        46.6390   60.1860   25.2240 C.3   203  SER203      0.2130
     32  OG        47.7730   60.1110   26.0750 O.3   203  SER203     -0.2179
     33  N         46.6610   57.3560   24.1310 N.am  204  HIS204     -0.1973
     34  CA        47.4790   56.1830   23.8550 C.3   204  HIS204      0.1656
     35  C         48.9620   56.4620   24.1210 C.2   204  HIS204      0.2291
     36  O         49.7090   55.5560   24.5010 O.2   204  HIS204     -0.2864
     37  CB        47.2350   55.6690   22.4330 C.3   204  HIS204      0.0771
     38  CG        45.8530   55.1200   22.2160 C.ar  204  HIS204      0.0820
     39  ND1       45.1370   55.3420   21.0590 N.ar  204  HIS204     -0.2267
     40  CD2       45.0500   54.3760   23.0170 C.ar  204  HIS204      0.1154
     41  CE1       43.9590   54.7460   21.1500 C.ar  204  HIS204      0.1986
     42  NE2       43.8780   54.1530   22.3300 N.ar  204  HIS204     -0.2212
     43  N         49.3000   55.7390   28.0040 N.3   207  ASP207     -0.1239
     44  CA        48.5090   54.6590   28.6050 C.3   207  ASP207      0.1674
     45  C         49.3150   53.7990   29.5790 C.2   207  ASP207      0.2266
     46  O         48.7900   53.3730   30.6090 O.2   207  ASP207     -0.2867
     47  CB        47.7760   53.8040   27.5460 C.3   207  ASP207      0.1410
     48  CG        48.7140   53.0600   26.6050 C.2   207  ASP207      0.3668
     49  OD1       49.9170   53.3760   26.5420 O.co2 207  ASP207     -0.2456
     50  OD2       48.2290   52.1430   25.9070 O.co2 207  ASP207     -0.2456
     51  N         50.0840   55.9870   32.7080 N.3   210  ALA210     -0.1245
     52  CA        48.8680   56.0270   33.5220 C.3   210  ALA210      0.1562
     53  C         48.6830   54.7300   34.3100 C.2   210  ALA210      0.2260
     54  O         48.2710   54.7560   35.4710 O.2   210  ALA210     -0.2867
     55  CB        47.6590   56.3080   32.6610 C.3   210  ALA210      0.0290
     56  N         48.3990   44.7910   29.9040 N.3   231  MET231     -0.1230
     57  CA        48.1800   44.3080   28.5400 C.3   231  MET231      0.1702
     58  C         47.2490   45.2030   27.7150 C.2   231  MET231      0.2592
     59  O         47.3430   45.2320   26.4840 O.2   231  MET231     -0.2718
     60  CB        47.6840   42.8570   28.5560 C.3   231  MET231      0.0401
     61  CG        48.7650   41.8520   28.9520 C.3   231  MET231      0.0596
     62  SD        48.2310   40.1340   28.9530 S.3   231  MET231     -0.1393
     63  CE        47.8760   39.8660   27.2160 C.3   231  MET231      0.0692
     64  N         46.3670   45.9280   28.4020 N.am  232  CYS232     -0.1956
     65  CA        45.4830   46.9120   27.7740 C.3   232  CYS232      0.1843
     66  C         46.1180   48.2990   27.6930 C.2   232  CYS232      0.2625
     67  O         45.5520   49.2080   27.0920 O.2   232  CYS232     -0.2714
     68  CB        44.1870   47.0450   28.5720 C.3   232  CYS232      0.0997
     69  SG        43.0150   45.6920   28.4190 S.3   232  CYS232     -0.0797
     70  N         47.2840   48.4580   28.3060 N.am  233  HIS233     -0.1959
     71  CA        47.8960   49.7720   28.4610 C.3   233  HIS233      0.1787
     72  C         49.3290   49.8140   27.8790 C.2   233  HIS233      0.2621
     73  O         50.2280   50.3980   28.4810 O.2   233  HIS233     -0.2715
     74  CB        47.8930   50.1640   29.9520 C.3   233  HIS233      0.0785
     75  CG        46.5630   50.6340   30.4780 C.ar  233  HIS233      0.0821
     76  ND1       46.2880   51.9650   30.7090 N.ar  233  HIS233     -0.2267
     77  CD2       45.4520   49.9520   30.8610 C.ar  233  HIS233      0.1154
     78  CE1       45.0620   52.0860   31.1950 C.ar  233  HIS233      0.1986
     79  NE2       44.5290   50.8790   31.2980 N.ar  233  HIS233     -0.2212
     80  N         49.5330   49.2150   26.7030 N.am  234  THR234     -0.1937
     81  CA        50.8800   49.0970   26.1140 C.3   234  THR234      0.2028
     82  C         51.1620   49.9620   24.8760 C.2   234  THR234      0.2642
     83  O         52.2980   49.9750   24.3820 O.2   234  THR234     -0.2714
     84  CB        51.2240   47.6330   25.7500 C.3   234  THR234      0.1808
     85  OG1       50.1780   47.0820   24.9470 O.3   234  THR234     -0.2208
     86  CG2       51.4190   46.7800   27.0010 C.3   234  THR234      0.0379
     87  N         50.1490   50.6680   24.3710 N.am  235  ASN235     -0.1971
     88  CA        50.2930   51.4710   23.1480 C.3   235  ASN235      0.1688
     89  C         51.4680   52.4400   23.1830 C.2   235  ASN235      0.2292
     90  O         52.1440   52.6390   22.1710 O.2   235  ASN235     -0.2864
     91  CB        49.0050   52.2370   22.8400 C.3   235  ASN235      0.1181
     92  CG        47.8380   51.3200   22.5620 C.2   235  ASN235      0.2629
     93  OD1       47.9140   50.4470   21.6960 O.2   235  ASN235     -0.2716
     94  ND2       46.7460   51.5110   23.2980 N.am  235  ASN235     -0.0877
     95  N         49.1640   47.0410   18.6110 N.3   241  ASN241     -0.1225
     96  CA        47.8980   46.6700   19.2640 C.3   241  ASN241      0.1785
     97  C         46.6530   46.8050   18.3830 C.2   241  ASN241      0.2597
     98  O         45.6680   46.1020   18.6000 O.2   241  ASN241     -0.2718
     99  CB        47.7070   47.4210   20.5850 C.3   241  ASN241      0.1169
    100  CG        48.6800   46.9730   21.6610 C.2   241  ASN241      0.2627
    101  OD1       49.0090   45.7900   21.7690 O.2   241  ASN241     -0.2716
    102  ND2       49.1450   47.9220   22.4690 N.am  241  ASN241     -0.0877
    103  N         46.6980   47.7080   17.4030 N.am  242  CYS242     -0.1970
    104  CA        45.5930   47.8790   16.4600 C.3   242  CYS242      0.1712
    105  C         45.9000   47.1690   15.1450 C.2   242  CYS242      0.2296
    106  O         45.0940   46.3600   14.6750 O.2   242  CYS242     -0.2864
    107  CB        45.2860   49.3610   16.2300 C.3   242  CYS242      0.0983
    108  SG        44.8380   50.2670   17.7350 S.3   242  CYS242     -0.0798
    109  N         43.5220   47.3900   11.3450 N.3   253  SER253     -0.1217
    110  CA        43.4340   48.4410   12.3630 C.3   253  SER253      0.1889
    111  C         42.2390   49.3770   12.1670 C.2   253  SER253      0.2288
    112  O         41.8270   50.0550   13.1030 O.2   253  SER253     -0.2866
    113  CB        44.7320   49.2520   12.4260 C.3   253  SER253      0.2089
    114  OG        45.0480   49.8060   11.1640 O.3   253  SER253     -0.2183
    115  N         39.5400   45.7710   16.1010 N.3   258  ALA258     -0.1231
    116  CA        40.9110   46.1370   16.4900 C.3   258  ALA258      0.1694
    117  C         40.9980   46.8690   17.8350 C.2   258  ALA258      0.2592
    118  O         42.0180   46.7820   18.5270 O.2   258  ALA258     -0.2718
    119  CB        41.5820   46.9720   15.3870 C.3   258  ALA258      0.0304
    120  N         39.9330   47.5820   18.1950 N.am  259  CYS259     -0.1970
    121  CA        39.8920   48.3740   19.4340 C.3   259  CYS259      0.1712
    122  C         39.2210   47.6400   20.5930 C.2   259  CYS259      0.2296
    123  O         39.2310   48.1310   21.7230 O.2   259  CYS259     -0.2864
    124  CB        39.1270   49.6850   19.2040 C.3   259  CYS259      0.0983
    125  SG        39.3320   50.4210   17.5830 S.3   259  CYS259     -0.0798
    126  N         39.4430   44.5590   22.3510 N.3   261  THR261     -0.1203
    127  CA        40.0750   43.8780   23.4810 C.3   261  THR261      0.1994
    128  C         40.3360   44.8340   24.6600 C.2   261  THR261      0.2618
    129  O         40.2020   44.4540   25.8290 O.2   261  THR261     -0.2717
    130  CB        41.3790   43.1510   23.0340 C.3   261  THR261      0.1784
    131  OG1       41.1110   42.3630   21.8640 O.3   261  THR261     -0.2211
    132  CG2       41.9090   42.2360   24.1320 C.3   261  THR261      0.0376
    133  N         40.6780   46.0790   24.3410 N.am  262  CYS262     -0.1955
    134  CA        40.9740   47.0870   25.3490 C.3   262  CYS262      0.1843
    135  C         39.7620   47.9480   25.6890 C.2   262  CYS262      0.2625
    136  O         39.4960   48.2190   26.8630 O.2   262  CYS262     -0.2714
    137  CB        42.1160   47.9850   24.8790 C.3   262  CYS262      0.0997
    138  SG        43.6070   47.1130   24.3310 S.3   262  CYS262     -0.0797
    139  N         39.0340   48.3790   24.6630 N.am  263  HIS263     -0.1973
    140  CA        37.8970   49.2720   24.8540 C.3   263  HIS263      0.1656
    141  C         36.5880   48.4980   25.0280 C.2   263  HIS263      0.2291
    142  O         35.6650   48.5870   24.2090 O.2   263  HIS263     -0.2864
    143  CB        37.8150   50.2810   23.7140 C.3   263  HIS263      0.0771
    144  CG        38.9070   51.3030   23.7400 C.ar  263  HIS263      0.0820
    145  ND1       38.8790   52.3980   24.5760 N.ar  263  HIS263     -0.2267
    146  CD2       40.0600   51.3940   23.0360 C.ar  263  HIS263      0.1154
    147  CE1       39.9690   53.1220   24.3860 C.ar  263  HIS263      0.1986
    148  NE2       40.7030   52.5350   23.4570 N.ar  263  HIS263     -0.2212
    149  N         34.8410   52.8490   14.9030 N.3   310  CYS310     -0.1221
    150  CA        35.6830   53.4380   15.9570 C.3   310  CYS310      0.1808
    151  C         36.7450   54.3660   15.3650 C.2   310  CYS310      0.2601
    152  O         36.8400   55.5360   15.7410 O.2   310  CYS310     -0.2717
    153  CB        36.3850   52.3560   16.7830 C.3   310  CYS310      0.0970
    154  SG        35.4390   50.8790   17.1690 S.3   310  CYS310     -0.0800
    155  N         37.5330   53.8310   14.4320 N.am  311  ALA311     -0.1979
    156  CA        38.6520   54.5610   13.8300 C.3   311  ALA311      0.1597
    157  C         38.2150   55.8000   13.0420 C.2   311  ALA311      0.2287
    158  O         38.8210   56.8630   13.1810 O.2   311  ALA311     -0.2864
    159  CB        39.4890   53.6260   12.9500 C.3   311  ALA311      0.0319
    160  N         36.9720   58.4820   15.7020 N.3   314  HIS314     -0.1226
    161  CA        37.9120   58.9450   16.7160 C.3   314  HIS314      0.1752
    162  C         39.2750   59.4220   16.1970 C.2   314  HIS314      0.2595
    163  O         39.9440   60.2060   16.8700 O.2   314  HIS314     -0.2718
    164  CB        38.0620   57.8940   17.8170 C.3   314  HIS314      0.0759
    165  CG        36.8560   57.7810   18.6980 C.ar  314  HIS314      0.0818
    166  ND1       36.5880   58.6850   19.7010 N.ar  314  HIS314     -0.2268
    167  CD2       35.8400   56.8820   18.7190 C.ar  314  HIS314      0.1154
    168  CE1       35.4650   58.3470   20.3080 C.ar  314  HIS314      0.1986
    169  NE2       34.9910   57.2530   19.7360 N.ar  314  HIS314     -0.2212
    170  N         39.6780   58.9650   15.0120 N.am  315  MET315     -0.1979
    171  CA        40.8990   59.4740   14.3720 C.3   315  MET315      0.1605
    172  C         40.6380   60.6930   13.4750 C.2   315  MET315      0.2287
    173  O         41.5790   61.3680   13.0400 O.2   315  MET315     -0.2864
    174  CB        41.6270   58.3690   13.5990 C.3   315  MET315      0.0413
    175  CG        42.4330   57.4300   14.4920 C.3   315  MET315      0.0598
    176  SD        43.1690   56.0310   13.6300 S.3   315  MET315     -0.1393
    177  CE        44.4470   56.7950   12.6450 C.3   315  MET315      0.0692
    178  N         44.0690   60.7060   18.8150 N.3   325  ILE325     -0.1231
    179  CA        42.6430   60.4430   19.0650 C.3   325  ILE325      0.1692
    180  C         42.0300   61.2670   20.2040 C.2   325  ILE325      0.2592
    181  O         40.9910   60.8870   20.7510 O.2   325  ILE325     -0.2718
    182  CB        42.3620   58.9150   19.3060 C.3   325  ILE325      0.0266
    183  CG1       43.4060   58.2710   20.2290 C.3   325  ILE325      0.0019
    184  CG2       42.3320   58.1650   17.9940 C.3   325  ILE325      0.0020
    185  CD1       43.3130   58.6570   21.7050 C.3   325  ILE325      0.0001
    186  N         42.6570   62.3940   20.5420 N.am  326  THR326     -0.1953
    187  CA        42.3110   63.1430   21.7580 C.3   326  THR326      0.1897
    188  C         41.6030   64.4860   21.5580 C.2   326  THR326      0.2313
    189  O         41.0780   65.0520   22.5210 O.2   326  THR326     -0.2863
    190  CB        43.5660   63.4360   22.6090 C.3   326  THR326      0.1794
    191  OG1       44.4400   64.3170   21.8860 O.3   326  THR326     -0.2208
    192  CG2       44.2990   62.1530   22.9650 C.3   326  THR326      0.0378
    193  N         37.7880   65.0830   22.5890 N.3   329  THR329     -0.1218
    194  CA        37.3980   64.4970   23.8740 C.3   329  THR329      0.1862
    195  C         36.8010   65.5270   24.8330 C.2   329  THR329      0.2287
    196  O         37.4430   66.5300   25.1590 O.2   329  THR329     -0.2866
    197  CB        38.5890   63.7940   24.5600 C.3   329  THR329      0.1770
    198  OG1       39.0780   62.7440   23.7170 O.3   329  THR329     -0.2211
    199  CG2       38.1690   63.2050   25.9150 C.3   329  THR329      0.0375
    200  N         35.3990   62.0970   28.4100 N.3   332  ALA332     -0.1231
    201  CA        36.4840   61.2030   28.8190 C.3   332  ALA332      0.1694
    202  C         36.0010   60.0390   29.7020 C.2   332  ALA332      0.2592
    203  O         36.6000   59.7290   30.7340 O.2   332  ALA332     -0.2718
    204  CB        37.6330   61.9960   29.4910 C.3   332  ALA332      0.0304
    205  N         34.8940   59.4260   29.2790 N.am  333  ASN333     -0.1974
    206  CA        34.3560   58.1830   29.8500 C.3   333  ASN333      0.1688
    207  C         33.7490   58.2340   31.2520 C.2   333  ASN333      0.2292
    208  O         32.6410   57.7420   31.4470 O.2   333  ASN333     -0.2864
    209  CB        35.3790   57.0430   29.7780 C.3   333  ASN333      0.1181
    210  CG        34.7620   55.6880   30.0690 C.2   333  ASN333      0.2629
    211  OD1       34.0660   55.1210   29.2300 O.2   333  ASN333     -0.2716
    212  ND2       35.0190   55.1620   31.2610 N.am  333  ASN333     -0.0877
@<TRIPOS>BOND
     1   114   113    1
     2   109   110    1
     3   111   110    1
     4   111   112    2
     5   110   113    1
     6   177   176    1
     7   159   156    1
     8   173   172    2
     9   157   158    2
    10   157   156    1
    11   172   171    1
    12   174   171    1
    13   174   175    1
    14   176   175    1
    15   156   155    1
    16   171   170    1
    17   155   151   am
    18   106   105    2
    19   149   150    1
    20   170   162   am
    21   105   104    1
    22   151   152    2
    23   151   150    1
    24   119   116    1
    25   160   161    1
    26   150   153    1
    27   115   116    1
    28   162   161    1
    29   162   163    2
    30   107   104    1
    31   107   108    1
    32   104   103    1
    33   116   117    1
    34   161   164    1
    35   153   154    1
    36   103    97   am
    37   125   124    1
    38   164   165    1
    39   117   120   am
    40   117   118    2
    41   184   182    1
    42   120   121    1
    43    97    98    2
    44    97    96    1
    45    95    96    1
    46   165   167   ar
    47   165   166   ar
    48   167   169   ar
    49   178   179    1
    50   179   182    1
    51   179   180    1
    52   124   121    1
    53    96    99    1
    54   182   183    1
    55   121   122    1
    56   166   168   ar
    57   169   168   ar
    58   180   186   am
    59   180   181    2
    60   183   185    1
    61   186   187    1
    62    99   100    1
    63   122   123    2
    64    39    41   ar
    65    39    38   ar
    66    41    42   ar
    67   188   187    1
    68   188   189    2
    69   100   101    2
    70   100   102   am
    71    93    92    2
    72   187   190    1
    73   131   130    1
    74   191   190    1
    75    90    89    2
    76    38    37    1
    77    38    40   ar
    78    42    40   ar
    79   126   127    1
    80    37    34    1
    81    92    91    1
    82    92    94   am
    83   193   194    1
    84   190   192    1
    85    91    88    1
    86   130   127    1
    87   130   132    1
    88   146   148   ar
    89   146   144   ar
    90    88    89    1
    91    88    87    1
    92   148   147   ar
    93   127   128    1
    94   143   144    1
    95   143   140    1
    96   198   197    1
    97   144   145   ar
    98    34    35    1
    99    34    33    1
   100   194   197    1
   101   194   195    1
   102    35    36    2
   103    33    29   am
   104   142   141    2
   105   138   137    1
   106   133   128   am
   107   133   134    1
   108    87    82   am
   109    83    82    2
   110   147   145   ar
   111     1     2    1
   112   197   199    1
   113   128   129    2
   114   139   140    1
   115   139   135   am
   116   195   196    2
   117   140   141    1
   118    82    81    1
   119   137   134    1
   120    85    84    1
   121    31    28    1
   122    31    32    1
   123   134   135    1
   124    29    28    1
   125    29    30    2
   126     2     5    1
   127     2     3    1
   128    28    27    1
   129   135   136    2
   130     5     6    1
   131    84    81    1
   132    84    86    1
   133    50    48   ar
   134     7     6    1
   135     7     8    1
   136    81    80    1
   137    23    22    2
   138    59    58    2
   139    49    48   ar
   140    48    47    1
   141    80    72   am
   142     3     4    2
   143    27    22   am
   144    67    66    2
   145    22    21    1
   146    63    62    1
   147    47    44    1
   148    66    65    1
   149    66    70   am
   150    58    64   am
   151    58    57    1
   152    65    64    1
   153    65    68    1
   154    72    71    1
   155    72    73    2
   156    43    44    1
   157    70    71    1
   158   200   201    1
   159    69    68    1
   160    71    74    1
   161    57    60    1
   162    57    56    1
   163    60    61    1
   164    44    45    1
   165    21    24    1
   166    21    20    1
   167    24    25    1
   168   201   204    1
   169   201   202    1
   170    61    62    1
   171     9    10    1
   172    20    26    1
   173    20    11   am
   174   211   210    2
   175    26    25    1
   176   205   202   am
   177   205   206    1
   178    10    11    1
   179    10    13    1
   180    11    12    2
   181    45    46    2
   182   202   203    2
   183   209   206    1
   184   209   210    1
   185   206   207    1
   186    74    75    1
   187   210   212   am
   188    75    76   ar
   189    75    77   ar
   190    14    13    1
   191    14    15    1
   192    76    78   ar
   193    77    79   ar
   194    78    79   ar
   195   207   208    2
   196    15    16    1
   197    55    52    1
   198    51    52    1
   199    16    17    2
   200    52    53    1
   201    17    18    1
   202    17    19    1
   203    53    54    2
