@<TRIPOS>MOLECULE
tmp/4n4nA08.pdb
 209 206 0 0 0
SMALL
GASTEIGER

@<TRIPOS>ATOM
      1  N         42.0820   66.0700   34.1300 N.3   197  TRP197     -0.1241
      2  CA        42.9900   64.9370   34.0610 C.3   197  TRP197      0.1605
      3  C         44.4070   65.4890   33.9200 C.2   197  TRP197      0.2264
      4  O         44.5750   66.6340   33.4830 O.2   197  TRP197     -0.2867
      5  CB        42.6790   64.0860   32.8310 C.3   197  TRP197      0.0550
      6  CG        41.3570   63.3940   32.8330 C.ar  197  TRP197      0.0003
      7  CD1       40.1650   63.8960   32.3920 C.ar  197  TRP197      0.0946
      8  CD2       41.0950   62.0540   33.2610 C.ar  197  TRP197      0.0152
      9  NE1       39.1730   62.9550   32.5310 N.ar  197  TRP197     -0.2442
     10  CE2       39.7160   61.8140   33.0630 C.ar  197  TRP197      0.0810
     11  CE3       41.8900   61.0330   33.8000 C.ar  197  TRP197      0.0012
     12  CZ2       39.1150   60.5950   33.3820 C.ar  197  TRP197      0.0191
     13  CZ3       41.2890   59.8210   34.1230 C.ar  197  TRP197      0.0001
     14  CH2       39.9170   59.6120   33.9100 C.ar  197  TRP197      0.0015
     15  N         46.5890   63.3500   29.0480 N.3   201  ARG201     -0.1231
     16  CA        45.7690   62.1880   29.3890 C.3   201  ARG201      0.1679
     17  C         44.2710   62.5150   29.4460 C.2   201  ARG201      0.2434
     18  O         43.8990   63.6370   29.7890 O.2   201  ARG201     -0.2733
     19  CB        46.2450   61.5840   30.7130 C.3   201  ARG201      0.0321
     20  CG        47.4460   60.6540   30.5490 C.3   201  ARG201      0.0489
     21  CD        48.1830   60.4390   31.8520 C.3   201  ARG201      0.2205
     22  NE        47.3490   59.8140   32.8790 N.pl3 201  ARG201     -0.0865
     23  CZ        47.7330   59.6280   34.1400 C.cat 201  ARG201      0.5346
     24  NH1       48.9430   60.0210   34.5330 N.pl3 201  ARG201      0.1354
     25  NH2       46.9100   59.0490   35.0100 N.pl3 201  ARG201      0.1354
     26  N         43.4070   61.5380   29.0970 N.am  202  PRO202     -0.2729
     27  CA        43.7560   60.1860   28.6380 C.3   202  PRO202      0.1401
     28  C         44.2140   60.1480   27.1800 C.2   202  PRO202      0.2269
     29  O         43.7770   60.9690   26.3630 O.2   202  PRO202     -0.2865
     30  CB        42.4480   59.3980   28.8120 C.3   202  PRO202      0.0296
     31  CG        41.5290   60.2990   29.6150 C.3   202  PRO202      0.0237
     32  CD        41.9520   61.6820   29.2700 C.3   202  PRO202      0.0939
     33  N         50.0840   55.9870   32.7080 N.3   210  ALA210     -0.1231
     34  CA        48.8680   56.0270   33.5220 C.3   210  ALA210      0.1694
     35  C         48.6830   54.7300   34.3100 C.2   210  ALA210      0.2592
     36  O         48.2710   54.7560   35.4710 O.2   210  ALA210     -0.2718
     37  CB        47.6590   56.3080   32.6610 C.3   210  ALA210      0.0304
     38  N         49.0090   53.6100   33.6670 N.am  211  ASN211     -0.1974
     39  CA        48.9390   52.2830   34.2720 C.3   211  ASN211      0.1688
     40  C         49.8790   52.1260   35.4760 C.2   211  ASN211      0.2292
     41  O         49.4440   51.7410   36.5650 O.2   211  ASN211     -0.2864
     42  CB        49.2340   51.2250   33.2020 C.3   211  ASN211      0.1181
     43  CG        49.3020   49.8160   33.7560 C.2   211  ASN211      0.2629
     44  OD1       50.3790   49.2240   33.8320 O.2   211  ASN211     -0.2716
     45  ND2       48.1550   49.2660   34.1330 N.am  211  ASN211     -0.0877
     46  N         49.2220   54.2580   38.6750 N.3   214  THR214     -0.1218
     47  CA        48.0410   53.9030   39.4530 C.3   214  THR214      0.1862
     48  C         48.4920   53.1590   40.7050 C.2   214  THR214      0.2287
     49  O         49.1080   52.0940   40.6120 O.2   214  THR214     -0.2866
     50  CB        47.0740   53.0280   38.6210 C.3   214  THR214      0.1770
     51  OG1       46.6630   53.7500   37.4500 O.3   214  THR214     -0.2211
     52  CG2       45.8440   52.6270   39.4370 C.3   214  THR214      0.0375
     53  N         47.2090   51.2430   43.2010 N.3   216  VAL216     -0.1231
     54  CA        46.8780   49.8320   43.4260 C.3   216  VAL216      0.1692
     55  C         47.6400   48.8850   42.4880 C.2   216  VAL216      0.2592
     56  O         48.0430   47.8020   42.9080 O.2   216  VAL216     -0.2718
     57  CB        45.3350   49.5580   43.4040 C.3   216  VAL216      0.0266
     58  CG1       44.7580   49.6680   41.9970 C.3   216  VAL216      0.0020
     59  CG2       45.0100   48.1950   44.0340 C.3   216  VAL216      0.0020
     60  N         47.8460   49.2990   41.2370 N.am  217  TRP217     -0.1976
     61  CA        48.6470   48.5160   40.2920 C.3   217  TRP217      0.1640
     62  C         50.0480   48.2720   40.8440 C.2   217  TRP217      0.2290
     63  O         50.5630   47.1560   40.7740 O.2   217  TRP217     -0.2864
     64  CB        48.7510   49.2040   38.9220 C.3   217  TRP217      0.0576
     65  CG        49.4930   48.3550   37.9210 C.ar  217  TRP217      0.0006
     66  CD1       48.9530   47.4280   37.0800 C.ar  217  TRP217      0.0946
     67  CD2       50.9110   48.3300   37.6900 C.ar  217  TRP217      0.0152
     68  NE1       49.9380   46.8380   36.3280 N.ar  217  TRP217     -0.2442
     69  CE2       51.1510   47.3700   36.6830 C.ar  217  TRP217      0.0810
     70  CE3       51.9990   49.0330   38.2300 C.ar  217  TRP217      0.0012
     71  CZ2       52.4390   47.0890   36.2030 C.ar  217  TRP217      0.0191
     72  CZ3       53.2780   48.7550   37.7530 C.ar  217  TRP217      0.0001
     73  CH2       53.4870   47.7890   36.7510 C.ar  217  TRP217      0.0015
     74  N         49.5060   46.3360   44.8170 N.3   220  MET220     -0.1245
     75  CA        48.8990   45.0120   45.0140 C.3   220  MET220      0.1570
     76  C         49.9150   43.8840   44.8290 C.2   220  MET220      0.2261
     77  O         50.8480   44.0200   44.0360 O.2   220  MET220     -0.2867
     78  CB        47.6630   44.8120   44.1130 C.3   220  MET220      0.0387
     79  CG        47.9370   44.7680   42.6070 C.3   220  MET220      0.0595
     80  SD        46.4380   44.9010   41.5980 S.3   220  MET220     -0.1393
     81  CE        45.6430   43.3240   41.9270 C.3   220  MET220      0.0692
     82  N         47.4710   42.0490   33.7130 N.3   228  GLY228     -0.1210
     83  CA        46.2920   42.0710   32.8550 C.3   228  GLY228      0.1956
     84  C         45.8770   43.4950   32.5370 C.2   228  GLY228      0.2612
     85  O         45.4810   43.7930   31.4130 O.2   228  GLY228     -0.2717
     86  N         45.9740   44.3780   33.5300 N.am  229  CYS229     -0.1970
     87  CA        45.7680   45.8050   33.3020 C.3   229  CYS229      0.1712
     88  C         46.8020   46.3270   32.3030 C.2   229  CYS229      0.2296
     89  O         46.4570   47.0550   31.3700 O.2   229  CYS229     -0.2864
     90  CB        45.8400   46.5860   34.6150 C.3   229  CYS229      0.0983
     91  SG        44.6710   46.0020   35.8680 S.3   229  CYS229     -0.0798
     92  N         46.3670   45.9280   28.4020 N.3   232  CYS232     -0.1221
     93  CA        45.4830   46.9120   27.7740 C.3   232  CYS232      0.1808
     94  C         46.1180   48.2990   27.6930 C.2   232  CYS232      0.2601
     95  O         45.5520   49.2080   27.0920 O.2   232  CYS232     -0.2717
     96  CB        44.1870   47.0450   28.5720 C.3   232  CYS232      0.0970
     97  SG        43.0150   45.6920   28.4190 S.3   232  CYS232     -0.0800
     98  N         47.2840   48.4580   28.3060 N.am  233  HIS233     -0.1975
     99  CA        47.8960   49.7720   28.4610 C.3   233  HIS233      0.1656
    100  C         49.3290   49.8140   27.8790 C.2   233  HIS233      0.2291
    101  O         50.2280   50.3980   28.4810 O.2   233  HIS233     -0.2864
    102  CB        47.8930   50.1640   29.9520 C.3   233  HIS233      0.0771
    103  CG        46.5630   50.6340   30.4780 C.ar  233  HIS233      0.0820
    104  ND1       46.2880   51.9650   30.7090 N.ar  233  HIS233     -0.2267
    105  CD2       45.4520   49.9520   30.8610 C.ar  233  HIS233      0.1154
    106  CE1       45.0620   52.0860   31.1950 C.ar  233  HIS233      0.1986
    107  NE2       44.5290   50.8790   31.2980 N.ar  233  HIS233     -0.2212
    108  N         39.4430   44.5590   22.3510 N.3   261  THR261     -0.1203
    109  CA        40.0750   43.8780   23.4810 C.3   261  THR261      0.1994
    110  C         40.3360   44.8340   24.6600 C.2   261  THR261      0.2618
    111  O         40.2020   44.4540   25.8290 O.2   261  THR261     -0.2717
    112  CB        41.3790   43.1510   23.0340 C.3   261  THR261      0.1784
    113  OG1       41.1110   42.3630   21.8640 O.3   261  THR261     -0.2211
    114  CG2       41.9090   42.2360   24.1320 C.3   261  THR261      0.0376
    115  N         40.6780   46.0790   24.3410 N.am  262  CYS262     -0.1955
    116  CA        40.9740   47.0870   25.3490 C.3   262  CYS262      0.1843
    117  C         39.7620   47.9480   25.6890 C.2   262  CYS262      0.2625
    118  O         39.4960   48.2190   26.8630 O.2   262  CYS262     -0.2714
    119  CB        42.1160   47.9850   24.8790 C.3   262  CYS262      0.0997
    120  SG        43.6070   47.1130   24.3310 S.3   262  CYS262     -0.0797
    121  N         39.0340   48.3790   24.6630 N.am  263  HIS263     -0.1959
    122  CA        37.8970   49.2720   24.8540 C.3   263  HIS263      0.1787
    123  C         36.5880   48.4980   25.0280 C.2   263  HIS263      0.2620
    124  O         35.6650   48.5870   24.2090 O.2   263  HIS263     -0.2715
    125  CB        37.8150   50.2810   23.7140 C.3   263  HIS263      0.0785
    126  CG        38.9070   51.3030   23.7400 C.ar  263  HIS263      0.0821
    127  ND1       38.8790   52.3980   24.5760 N.ar  263  HIS263     -0.2267
    128  CD2       40.0600   51.3940   23.0360 C.ar  263  HIS263      0.1154
    129  CE1       39.9690   53.1220   24.3860 C.ar  263  HIS263      0.1986
    130  NE2       40.7030   52.5350   23.4570 N.ar  263  HIS263     -0.2212
    131  N         36.5370   47.7330   26.1110 N.am  264  SER264     -0.1950
    132  CA        35.3730   46.9390   26.4770 C.3   264  SER264      0.1924
    133  C         35.3590   46.7580   27.9900 C.2   264  SER264      0.2314
    134  O         36.3120   47.1290   28.6740 O.2   264  SER264     -0.2863
    135  CB        35.4290   45.5710   25.7970 C.3   264  SER264      0.2116
    136  OG        36.6450   44.9020   26.1030 O.3   264  SER264     -0.2180
    137  N         33.7140   48.9780   32.9980 N.3   267  ASP267     -0.1225
    138  CA        33.8780   50.4140   33.2540 C.3   267  ASP267      0.1805
    139  C         34.0850   51.2780   32.0020 C.2   267  ASP267      0.2597
    140  O         34.3830   52.4710   32.1040 O.2   267  ASP267     -0.2718
    141  CB        34.9790   50.6680   34.2990 C.3   267  ASP267      0.1424
    142  CG        36.3620   50.2770   33.8150 C.2   267  ASP267      0.3668
    143  OD1       36.4810   49.3910   32.9430 O.co2 267  ASP267     -0.2456
    144  OD2       37.3440   50.8580   34.3230 O.co2 267  ASP267     -0.2456
    145  N         33.9290   50.6640   30.8320 N.am  268  HIS268     -0.1975
    146  CA        33.9360   51.3560   29.5370 C.3   268  HIS268      0.1656
    147  C         33.5990   50.3460   28.4470 C.2   268  HIS268      0.2291
    148  O         34.4910   49.7920   27.8010 O.2   268  HIS268     -0.2864
    149  CB        35.2820   52.0490   29.2470 C.3   268  HIS268      0.0771
    150  CG        36.4790   51.2640   29.6830 C.ar  268  HIS268      0.0820
    151  ND1       36.8890   50.1120   29.0450 N.ar  268  HIS268     -0.2267
    152  CD2       37.3570   51.4670   30.6940 C.ar  268  HIS268      0.1154
    153  CE1       37.9670   49.6390   29.6440 C.ar  268  HIS268      0.1986
    154  NE2       38.2700   50.4410   30.6500 N.ar  268  HIS268     -0.2212
    155  N         32.6260   50.1990   25.3730 N.3   270  ASN270     -0.1240
    156  CA        32.5480   50.8100   24.0470 C.3   270  ASN270      0.1653
    157  C         32.2690   49.8130   22.9190 C.2   270  ASN270      0.2266
    158  O         31.4220   50.0660   22.0650 O.2   270  ASN270     -0.2867
    159  CB        33.8050   51.6430   23.7560 C.3   270  ASN270      0.1155
    160  CG        34.1080   52.6480   24.8550 C.2   270  ASN270      0.2627
    161  OD1       34.5040   52.2750   25.9600 O.2   270  ASN270     -0.2716
    162  ND2       33.9260   53.9310   24.5550 N.am  270  ASN270     -0.0877
    163  N         35.3990   62.0970   28.4100 N.3   332  ALA332     -0.1231
    164  CA        36.4840   61.2030   28.8190 C.3   332  ALA332      0.1694
    165  C         36.0010   60.0390   29.7020 C.2   332  ALA332      0.2592
    166  O         36.6000   59.7290   30.7340 O.2   332  ALA332     -0.2718
    167  CB        37.6330   61.9960   29.4910 C.3   332  ALA332      0.0304
    168  N         34.8940   59.4260   29.2790 N.am  333  ASN333     -0.1960
    169  CA        34.3560   58.1830   29.8500 C.3   333  ASN333      0.1819
    170  C         33.7490   58.2340   31.2520 C.2   333  ASN333      0.2621
    171  O         32.6410   57.7420   31.4470 O.2   333  ASN333     -0.2715
    172  CB        35.3790   57.0430   29.7780 C.3   333  ASN333      0.1195
    173  CG        34.7620   55.6880   30.0690 C.2   333  ASN333      0.2630
    174  OD1       34.0660   55.1210   29.2300 O.2   333  ASN333     -0.2716
    175  ND2       35.0190   55.1620   31.2610 N.am  333  ASN333     -0.0877
    176  N         34.4830   58.7940   32.2160 N.am  334  TYR334     -0.1974
    177  CA        34.0560   58.8280   33.6210 C.3   334  TYR334      0.1639
    178  C         33.4650   60.2010   33.9860 C.2   334  TYR334      0.2290
    179  O         34.2070   61.1170   34.3520 O.2   334  TYR334     -0.2864
    180  CB        35.2300   58.4940   34.5590 C.3   334  TYR334      0.0560
    181  CG        35.9210   57.1650   34.2900 C.ar  334  TYR334     -0.0198
    182  CD1       35.4840   55.9880   34.9080 C.ar  334  TYR334     -0.0009
    183  CD2       37.0180   57.0890   33.4300 C.ar  334  TYR334     -0.0009
    184  CE1       36.1210   54.7620   34.6670 C.ar  334  TYR334      0.0417
    185  CE2       37.6640   55.8680   33.1790 C.ar  334  TYR334      0.0417
    186  CZ        37.2110   54.7130   33.8020 C.ar  334  TYR334      0.1957
    187  OH        37.8430   53.5140   33.5580 O.3   334  TYR334     -0.2866
    188  N         39.7900   54.0460   44.1630 N.3   424  PHE424     -0.1241
    189  CA        40.0020   53.0750   43.0860 C.3   424  PHE424      0.1605
    190  C         40.6250   51.7640   43.5750 C.2   424  PHE424      0.2264
    191  O         40.2770   50.6860   43.0940 O.2   424  PHE424     -0.2867
    192  CB        40.8600   53.6860   41.9700 C.3   424  PHE424      0.0534
    193  CG        41.0570   52.7750   40.7920 C.ar  424  PHE424     -0.0203
    194  CD1       40.0820   52.6730   39.8040 C.ar  424  PHE424     -0.0042
    195  CD2       42.2160   52.0120   40.6700 C.ar  424  PHE424     -0.0042
    196  CE1       40.2580   51.8190   38.7120 C.ar  424  PHE424     -0.0003
    197  CE2       42.4010   51.1600   39.5820 C.ar  424  PHE424     -0.0003
    198  CZ        41.4200   51.0680   38.6020 C.ar  424  PHE424     -0.0000
    199  N         40.4480   46.6540   43.3650 N.3   428  PHE428     -0.1241
    200  CA        41.4810   45.6510   43.0900 C.3   428  PHE428      0.1605
    201  C         42.1640   45.1020   44.3420 C.2   428  PHE428      0.2264
    202  O         42.9850   44.1810   44.2590 O.2   428  PHE428     -0.2867
    203  CB        42.5080   46.2000   42.0900 C.3   428  PHE428      0.0534
    204  CG        42.0280   46.1740   40.6710 C.ar  428  PHE428     -0.0203
    205  CD1       42.3680   45.1210   39.8300 C.ar  428  PHE428     -0.0042
    206  CD2       41.2080   47.1890   40.1820 C.ar  428  PHE428     -0.0042
    207  CE1       41.9110   45.0850   38.5120 C.ar  428  PHE428     -0.0003
    208  CE2       40.7470   47.1620   38.8690 C.ar  428  PHE428     -0.0003
    209  CZ        41.0990   46.1040   38.0340 C.ar  428  PHE428     -0.0000
@<TRIPOS>BOND
     1   113   112    1
     2   158   157    2
     3   108   109    1
     4   157   156    1
     5   112   109    1
     6   112   114    1
     7   128   130   ar
     8   128   126   ar
     9   130   129   ar
    10   109   110    1
    11   125   126    1
    12   125   122    1
    13   126   127   ar
    14   159   156    1
    15   159   160    1
    16   156   155    1
    17   124   123    2
    18   120   119    1
    19   115   110   am
    20   115   116    1
    21   129   127   ar
    22   162   160   am
    23   110   111    2
    24   121   122    1
    25   121   117   am
    26   122   123    1
    27   160   161    2
    28   119   116    1
    29   123   131   am
    30   116   117    1
    31   117   118    2
    32   135   136    1
    33   135   132    1
    34   131   132    1
    35    29    28    2
    36   132   133    1
    37    95    94    2
    38    28    27    1
    39    94    93    1
    40    94    98   am
    41    93    92    1
    42    93    96    1
    43   148   147    2
    44   100    99    1
    45   100   101    2
    46   133   134    2
    47    98    99    1
    48   163   164    1
    49    97    96    1
    50   147   146    1
    51    99   102    1
    52    27    30    1
    53    27    26    1
    54    30    31    1
    55   164   167    1
    56   164   165    1
    57   151   153   ar
    58   151   150   ar
    59    15    16    1
    60    26    32    1
    61    26    17   am
    62   174   173    2
    63   149   146    1
    64   149   150    1
    65    32    31    1
    66   168   165   am
    67   168   169    1
    68    16    17    1
    69    16    19    1
    70    17    18    2
    71   146   145    1
    72   153   154   ar
    73   150   152   ar
    74   165   166    2
    75   172   169    1
    76   172   173    1
    77   169   170    1
    78   102   103    1
    79   173   175   am
    80   103   104   ar
    81   103   105   ar
    82    20    19    1
    83    20    21    1
    84   154   152   ar
    85   104   106   ar
    86   145   139   am
    87   105   107   ar
    88   106   107   ar
    89   170   171    2
    90   170   176   am
    91    89    88    2
    92    85    84    2
    93    21    22    1
    94   139   140    2
    95   139   138    1
    96   176   177    1
    97    88    87    1
    98     7     9   ar
    99     7     6   ar
   100     9    10   ar
   101    84    83    1
   102    84    86   am
   103    37    34    1
   104    33    34    1
   105     5     6    1
   106     5     2    1
   107     6     8   ar
   108    83    82    1
   109    22    23    2
   110   143   142   ar
   111   137   138    1
   112    10     8   ar
   113    10    12   ar
   114   185   183   ar
   115   185   186   ar
   116    42    43    1
   117    42    39    1
   118   138   141    1
   119     8    11   ar
   120    87    86    1
   121    87    90    1
   122    12    14   ar
   123   183   181   ar
   124     4     3    2
   125    34    35    1
   126   187   186    1
   127   177   178    1
   128   177   180    1
   129    38    39    1
   130    38    35   am
   131    43    44    2
   132    43    45   am
   133    11    13   ar
   134   186   184   ar
   135   142   141    1
   136   142   144   ar
   137    14    13   ar
   138     3     2    1
   139   178   179    2
   140     2     1    1
   141    23    24    1
   142    23    25    1
   143    39    40    1
   144   181   180    1
   145   181   182   ar
   146    35    36    2
   147    90    91    1
   148   184   182   ar
   149    40    41    2
   150    71    69   ar
   151    71    73   ar
   152    68    69   ar
   153    68    66   ar
   154    69    67   ar
   155    73    72   ar
   156    66    65   ar
   157    51    50    1
   158    67    65   ar
   159    67    70   ar
   160    72    70   ar
   161    65    64    1
   162   209   207   ar
   163   209   208   ar
   164   207   205   ar
   165   198   196   ar
   166   198   197   ar
   167    50    52    1
   168    50    47    1
   169    46    47    1
   170   196   194   ar
   171   208   206   ar
   172    64    61    1
   173    47    48    1
   174   197   195   ar
   175   194   193   ar
   176   205   204   ar
   177   206   204   ar
   178    61    62    1
   179    61    60    1
   180    49    48    2
   181   195   193   ar
   182   204   203    1
   183    63    62    2
   184   193   192    1
   185    60    55   am
   186    80    81    1
   187    80    79    1
   188   192   189    1
   189    58    57    1
   190   203   200    1
   191    55    56    2
   192    55    54    1
   193    79    78    1
   194   189   190    1
   195   189   188    1
   196   200   199    1
   197   200   201    1
   198   191   190    2
   199    53    54    1
   200    57    54    1
   201    57    59    1
   202    77    76    2
   203    78    75    1
   204   202   201    2
   205    74    75    1
   206    76    75    1
