@<TRIPOS>MOLECULE
tmp/4n4nA04.pdb
 231 229 0 0 0
SMALL
GASTEIGER

@<TRIPOS>ATOM
      1  N         36.5380   47.7920   13.5730 N.3   256  PRO256     -0.2116
      2  CA        36.1430   48.0330   14.9640 C.3   256  PRO256      0.1372
      3  C         36.6790   46.9990   15.9540 C.2   256  PRO256      0.2244
      4  O         36.9770   47.3430   17.1030 O.2   256  PRO256     -0.2868
      5  CB        34.6140   47.9640   14.9060 C.3   256  PRO256      0.0268
      6  CG        34.2840   48.3700   13.5200 C.3   256  PRO256      0.0207
      7  CD        35.3690   47.7920   12.6720 C.3   256  PRO256      0.0892
      8  N         39.9330   47.5820   18.1950 N.3   259  CYS259     -0.1235
      9  CA        39.8920   48.3740   19.4340 C.3   259  CYS259      0.1677
     10  C         39.2210   47.6400   20.5930 C.2   259  CYS259      0.2270
     11  O         39.2310   48.1310   21.7230 O.2   259  CYS259     -0.2867
     12  CB        39.1270   49.6850   19.2040 C.3   259  CYS259      0.0956
     13  SG        39.3320   50.4210   17.5830 S.3   259  CYS259     -0.0801
     14  N         39.0340   48.3790   24.6630 N.3   263  HIS263     -0.1241
     15  CA        37.8970   49.2720   24.8540 C.3   263  HIS263      0.1621
     16  C         36.5880   48.4980   25.0280 C.2   263  HIS263      0.2264
     17  O         35.6650   48.5870   24.2090 O.2   263  HIS263     -0.2867
     18  CB        37.8150   50.2810   23.7140 C.3   263  HIS263      0.0745
     19  CG        38.9070   51.3030   23.7400 C.ar  263  HIS263      0.0817
     20  ND1       38.8790   52.3980   24.5760 N.ar  263  HIS263     -0.2268
     21  CD2       40.0600   51.3940   23.0360 C.ar  263  HIS263      0.1154
     22  CE1       39.9690   53.1220   24.3860 C.ar  263  HIS263      0.1986
     23  NE2       40.7030   52.5350   23.4570 N.ar  263  HIS263     -0.2212
     24  N         32.6260   50.1990   25.3730 N.3   270  ASN270     -0.1225
     25  CA        32.5480   50.8100   24.0470 C.3   270  ASN270      0.1785
     26  C         32.2690   49.8130   22.9190 C.2   270  ASN270      0.2597
     27  O         31.4220   50.0660   22.0650 O.2   270  ASN270     -0.2718
     28  CB        33.8050   51.6430   23.7560 C.3   270  ASN270      0.1169
     29  CG        34.1080   52.6480   24.8550 C.2   270  ASN270      0.2627
     30  OD1       34.5040   52.2750   25.9600 O.2   270  ASN270     -0.2716
     31  ND2       33.9260   53.9310   24.5550 N.am  270  ASN270     -0.0877
     32  N         32.9710   48.6810   22.9350 N.am  271  TRP271     -0.1976
     33  CA        32.7360   47.6030   21.9680 C.3   271  TRP271      0.1640
     34  C         31.3100   47.0650   22.0460 C.2   271  TRP271      0.2290
     35  O         30.6630   46.8740   21.0180 O.2   271  TRP271     -0.2864
     36  CB        33.7330   46.4580   22.1780 C.3   271  TRP271      0.0576
     37  CG        33.3950   45.2010   21.4160 C.ar  271  TRP271      0.0006
     38  CD1       32.9610   44.0180   21.9420 C.ar  271  TRP271      0.0946
     39  CD2       33.4620   45.0080   19.9950 C.ar  271  TRP271      0.0152
     40  NE1       32.7630   43.0970   20.9410 N.ar  271  TRP271     -0.2442
     41  CE2       33.0640   43.6760   19.7360 C.ar  271  TRP271      0.0810
     42  CE3       33.8340   45.8260   18.9160 C.ar  271  TRP271      0.0012
     43  CZ2       33.0150   43.1420   18.4400 C.ar  271  TRP271      0.0191
     44  CZ3       33.7860   45.2930   17.6230 C.ar  271  TRP271      0.0001
     45  CH2       33.3790   43.9630   17.4020 C.ar  271  TRP271      0.0015
     46  N         28.8130   50.0330   20.9460 N.3   274  TYR274     -0.1241
     47  CA        28.9300   50.2560   19.5050 C.3   274  TYR274      0.1605
     48  C         28.3220   49.1430   18.6580 C.2   274  TYR274      0.2264
     49  O         27.5680   49.4280   17.7230 O.2   274  TYR274     -0.2867
     50  CB        30.3900   50.4820   19.0880 C.3   274  TYR274      0.0534
     51  CG        30.5910   50.4540   17.5900 C.ar  274  TYR274     -0.0201
     52  CD1       30.2030   51.5330   16.8010 C.ar  274  TYR274     -0.0009
     53  CD2       31.1530   49.3390   16.9570 C.ar  274  TYR274     -0.0009
     54  CE1       30.3690   51.5110   15.4280 C.ar  274  TYR274      0.0417
     55  CE2       31.3240   49.3120   15.5780 C.ar  274  TYR274      0.0417
     56  CZ        30.9320   50.4050   14.8230 C.ar  274  TYR274      0.1957
     57  OH        31.0950   50.4000   13.4540 O.3   274  TYR274     -0.2866
     58  N         24.5930   51.6490   14.1850 N.3   279  HIS279     -0.1241
     59  CA        25.9020   51.8910   13.5750 C.3   279  HIS279      0.1621
     60  C         26.7150   50.6000   13.4940 C.2   279  HIS279      0.2264
     61  O         27.1930   50.2270   12.4170 O.2   279  HIS279     -0.2867
     62  CB        26.6880   52.9610   14.3530 C.3   279  HIS279      0.0745
     63  CG        26.1560   54.3550   14.1960 C.ar  279  HIS279      0.0817
     64  ND1       26.3500   55.3320   15.1500 N.ar  279  HIS279     -0.2268
     65  CD2       25.4530   54.9420   13.1970 C.ar  279  HIS279      0.1154
     66  CE1       25.7950   56.4600   14.7430 C.ar  279  HIS279      0.1986
     67  NE2       25.2390   56.2510   13.5630 N.ar  279  HIS279     -0.2212
     68  N         29.4220   54.3040   10.4690 N.3   308  PRO308     -0.2102
     69  CA        30.6730   54.7490   11.0920 C.3   308  PRO308      0.1504
     70  C         31.3510   53.6670   11.9330 C.2   308  PRO308      0.2576
     71  O         30.7040   52.7090   12.3610 O.2   308  PRO308     -0.2718
     72  CB        30.2230   55.9120   11.9780 C.3   308  PRO308      0.0282
     73  CG        28.8380   55.5390   12.3870 C.3   308  PRO308      0.0208
     74  CD        28.2400   54.8030   11.1980 C.3   308  PRO308      0.0893
     75  N         32.6510   53.8330   12.1570 N.am  309  THR309     -0.1939
     76  CA        33.4650   52.8600   12.8820 C.3   309  THR309      0.2028
     77  C         34.3000   53.5890   13.9360 C.2   309  THR309      0.2642
     78  O         34.4400   54.8110   13.8730 O.2   309  THR309     -0.2714
     79  CB        34.4000   52.1040   11.9200 C.3   309  THR309      0.1808
     80  OG1       35.1320   53.0520   11.1350 O.3   309  THR309     -0.2208
     81  CG2       33.6010   51.1820   10.9880 C.3   309  THR309      0.0379
     82  N         34.8410   52.8490   14.9030 N.am  310  CYS310     -0.1967
     83  CA        35.6830   53.4380   15.9570 C.3   310  CYS310      0.1712
     84  C         36.7450   54.3660   15.3650 C.2   310  CYS310      0.2296
     85  O         36.8400   55.5360   15.7410 O.2   310  CYS310     -0.2864
     86  CB        36.3850   52.3560   16.7830 C.3   310  CYS310      0.0983
     87  SG        35.4390   50.8790   17.1690 S.3   310  CYS310     -0.0798
     88  N         35.5540   57.6380   13.3950 N.3   313  CYS313     -0.1221
     89  CA        35.0220   58.6860   14.2630 C.3   313  CYS313      0.1808
     90  C         36.1000   59.3150   15.1420 C.2   313  CYS313      0.2601
     91  O         36.1410   60.5390   15.3060 O.2   313  CYS313     -0.2717
     92  CB        33.8790   58.1590   15.1360 C.3   313  CYS313      0.0970
     93  SG        32.2230   58.1880   14.3750 S.3   313  CYS313     -0.0800
     94  N         36.9720   58.4820   15.7020 N.am  314  HIS314     -0.1975
     95  CA        37.9120   58.9450   16.7160 C.3   314  HIS314      0.1656
     96  C         39.2750   59.4220   16.1970 C.2   314  HIS314      0.2291
     97  O         39.9440   60.2060   16.8700 O.2   314  HIS314     -0.2864
     98  CB        38.0620   57.8940   17.8170 C.3   314  HIS314      0.0771
     99  CG        36.8560   57.7810   18.6980 C.ar  314  HIS314      0.0820
    100  ND1       36.5880   58.6850   19.7010 N.ar  314  HIS314     -0.2267
    101  CD2       35.8400   56.8820   18.7190 C.ar  314  HIS314      0.1154
    102  CE1       35.4650   58.3470   20.3080 C.ar  314  HIS314      0.1986
    103  NE2       34.9910   57.2530   19.7360 N.ar  314  HIS314     -0.2212
    104  N         44.0690   60.7060   18.8150 N.3   325  ILE325     -0.1245
    105  CA        42.6430   60.4430   19.0650 C.3   325  ILE325      0.1561
    106  C         42.0300   61.2670   20.2040 C.2   325  ILE325      0.2260
    107  O         40.9910   60.8870   20.7510 O.2   325  ILE325     -0.2867
    108  CB        42.3620   58.9150   19.3060 C.3   325  ILE325      0.0252
    109  CG1       43.4060   58.2710   20.2290 C.3   325  ILE325      0.0019
    110  CG2       42.3320   58.1650   17.9940 C.3   325  ILE325      0.0019
    111  CD1       43.3130   58.6570   21.7050 C.3   325  ILE325      0.0001
    112  N         37.7880   65.0830   22.5890 N.3   329  THR329     -0.1203
    113  CA        37.3980   64.4970   23.8740 C.3   329  THR329      0.1994
    114  C         36.8010   65.5270   24.8330 C.2   329  THR329      0.2618
    115  O         37.4430   66.5300   25.1590 O.2   329  THR329     -0.2717
    116  CB        38.5890   63.7940   24.5600 C.3   329  THR329      0.1784
    117  OG1       39.0780   62.7440   23.7170 O.3   329  THR329     -0.2211
    118  CG2       38.1690   63.2050   25.9150 C.3   329  THR329      0.0376
    119  N         35.5790   65.2570   25.2900 N.am  330  ARG330     -0.1965
    120  CA        34.8560   66.1600   26.1910 C.3   330  ARG330      0.1729
    121  C         34.5440   65.4970   27.5310 C.2   330  ARG330      0.2616
    122  O         34.8240   66.0600   28.5970 O.2   330  ARG330     -0.2715
    123  CB        33.5580   66.6460   25.5300 C.3   330  ARG330      0.0348
    124  CG        33.7750   67.4100   24.2270 C.3   330  ARG330      0.0492
    125  CD        32.5090   67.5280   23.3880 C.3   330  ARG330      0.2205
    126  NE        31.4840   68.3860   23.9880 N.pl3 330  ARG330     -0.0865
    127  CZ        30.3480   67.9430   24.5220 C.cat 330  ARG330      0.5346
    128  NH1       30.0780   66.6420   24.5520 N.pl3 330  ARG330      0.1354
    129  NH2       29.4760   68.8050   25.0290 N.pl3 330  ARG330      0.1354
    130  N         33.9670   64.2970   27.4730 N.am  331  TRP331     -0.1960
    131  CA        33.5120   63.6040   28.6750 C.3   331  TRP331      0.1771
    132  C         34.5740   62.6890   29.2780 C.2   331  TRP331      0.2620
    133  O         34.6300   62.5180   30.4990 O.2   331  TRP331     -0.2715
    134  CB        32.2390   62.8110   28.3840 C.3   331  TRP331      0.0590
    135  CG        30.9850   63.6350   28.4460 C.ar  331  TRP331      0.0006
    136  CD1       30.2160   64.0420   27.3880 C.ar  331  TRP331      0.0946
    137  CD2       30.3480   64.1450   29.6240 C.ar  331  TRP331      0.0152
    138  NE1       29.1440   64.7730   27.8380 N.ar  331  TRP331     -0.2442
    139  CE2       29.2010   64.8550   29.2050 C.ar  331  TRP331      0.0810
    140  CE3       30.6380   64.0750   30.9950 C.ar  331  TRP331      0.0012
    141  CZ2       28.3380   65.4930   30.1080 C.ar  331  TRP331      0.0191
    142  CZ3       29.7820   64.7130   31.8940 C.ar  331  TRP331      0.0001
    143  CH2       28.6430   65.4110   31.4420 C.ar  331  TRP331      0.0015
    144  N         35.3990   62.0970   28.4100 N.am  332  ALA332     -0.1963
    145  CA        36.4840   61.2030   28.8190 C.3   332  ALA332      0.1728
    146  C         36.0010   60.0390   29.7020 C.2   332  ALA332      0.2616
    147  O         36.6000   59.7290   30.7340 O.2   332  ALA332     -0.2715
    148  CB        37.6330   61.9960   29.4910 C.3   332  ALA332      0.0334
    149  N         34.8940   59.4260   29.2790 N.am  333  ASN333     -0.1972
    150  CA        34.3560   58.1830   29.8500 C.3   333  ASN333      0.1688
    151  C         33.7490   58.2340   31.2520 C.2   333  ASN333      0.2292
    152  O         32.6410   57.7420   31.4470 O.2   333  ASN333     -0.2864
    153  CB        35.3790   57.0430   29.7780 C.3   333  ASN333      0.1181
    154  CG        34.7620   55.6880   30.0690 C.2   333  ASN333      0.2629
    155  OD1       34.0660   55.1210   29.2300 O.2   333  ASN333     -0.2716
    156  ND2       35.0190   55.1620   31.2610 N.am  333  ASN333     -0.0877
    157  N         32.8630   67.3130   16.6740 N.3   356  TRP356     -0.1241
    158  CA        32.0760   66.0730   16.6250 C.3   356  TRP356      0.1605
    159  C         30.9410   66.1660   15.6070 C.2   356  TRP356      0.2264
    160  O         30.7370   65.2530   14.8080 O.2   356  TRP356     -0.2867
    161  CB        31.5170   65.7000   18.0040 C.3   356  TRP356      0.0550
    162  CG        32.4490   64.8660   18.8370 C.ar  356  TRP356      0.0003
    163  CD1       32.9880   65.2030   20.0420 C.ar  356  TRP356      0.0946
    164  CD2       32.9450   63.5520   18.5290 C.ar  356  TRP356      0.0152
    165  NE1       33.7930   64.1900   20.5030 N.ar  356  TRP356     -0.2442
    166  CE2       33.7880   63.1650   19.5940 C.ar  356  TRP356      0.0810
    167  CE3       32.7670   62.6710   17.4530 C.ar  356  TRP356      0.0012
    168  CZ2       34.4500   61.9300   19.6200 C.ar  356  TRP356      0.0191
    169  CZ3       33.4270   61.4420   17.4770 C.ar  356  TRP356      0.0001
    170  CH2       34.2600   61.0860   18.5540 C.ar  356  TRP356      0.0015
    171  N         32.0780   65.5640   12.1630 N.3   359  THR359     -0.1203
    172  CA        32.2430   64.1150   11.9890 C.3   359  THR359      0.1994
    173  C         30.9290   63.4260   11.6100 C.2   359  THR359      0.2618
    174  O         30.8890   62.6430   10.6600 O.2   359  THR359     -0.2717
    175  CB        32.8010   63.4500   13.2780 C.3   359  THR359      0.1784
    176  OG1       33.9940   64.1240   13.6930 O.3   359  THR359     -0.2211
    177  CG2       33.1010   61.9670   13.0570 C.3   359  THR359      0.0376
    178  N         29.8660   63.7300   12.3540 N.am  360  CYS360     -0.1969
    179  CA        28.5460   63.1340   12.1190 C.3   360  CYS360      0.1712
    180  C         27.9410   63.5210   10.7710 C.2   360  CYS360      0.2296
    181  O         27.2500   62.7030   10.1480 O.2   360  CYS360     -0.2864
    182  CB        27.5710   63.5100   13.2360 C.3   360  CYS360      0.0983
    183  SG        28.1610   63.1800   14.9010 S.3   360  CYS360     -0.0798
    184  N         23.4670   64.7140   20.2470 N.3   373  LEU373     -0.1245
    185  CA        24.5870   65.0040   21.1470 C.3   373  LEU373      0.1561
    186  C         24.1250   65.7930   22.3720 C.2   373  LEU373      0.2260
    187  O         24.6890   65.6490   23.4580 O.2   373  LEU373     -0.2867
    188  CB        25.7440   65.6960   20.4080 C.3   373  LEU373      0.0270
    189  CG        26.4510   64.8540   19.3320 C.3   373  LEU373      0.0019
    190  CD1       27.3090   65.7160   18.4160 C.3   373  LEU373      0.0001
    191  CD2       27.2740   63.7050   19.9340 C.3   373  LEU373      0.0001
    192  N         22.8410   63.1540   24.5540 N.3   376  MET376     -0.1245
    193  CA        23.9820   62.4730   25.1720 C.3   376  MET376      0.1570
    194  C         24.5000   63.2330   26.3930 C.2   376  MET376      0.2261
    195  O         24.7130   62.6390   27.4530 O.2   376  MET376     -0.2867
    196  CB        25.1080   62.2650   24.1490 C.3   376  MET376      0.0387
    197  CG        26.4080   61.6910   24.7260 C.3   376  MET376      0.0595
    198  SD        27.8570   61.9720   23.6740 S.3   376  MET376     -0.1393
    199  CE        28.0930   63.7400   23.8860 C.3   376  MET376      0.0692
    200  N         27.0340   56.5370   30.1210 N.3   454  HIS454     -0.1241
    201  CA        27.5970   57.5120   29.1900 C.3   454  HIS454      0.1621
    202  C         28.0720   56.8610   27.8900 C.2   454  HIS454      0.2264
    203  O         27.8160   57.3880   26.8130 O.2   454  HIS454     -0.2867
    204  CB        28.7480   58.3110   29.8040 C.3   454  HIS454      0.0745
    205  CG        29.5110   59.1010   28.7870 C.ar  454  HIS454      0.0817
    206  ND1       28.9800   60.2090   28.1630 N.ar  454  HIS454     -0.2268
    207  CD2       30.7320   58.9070   28.2370 C.ar  454  HIS454      0.1154
    208  CE1       29.8510   60.6790   27.2890 C.ar  454  HIS454      0.1986
    209  NE2       30.9230   59.9070   27.3140 N.ar  454  HIS454     -0.2212
    210  N         26.8420   57.8750   24.2770 N.3   458  ALA458     -0.1231
    211  CA        27.8220   58.3240   23.2870 C.3   458  ALA458      0.1694
    212  C         27.8230   57.4680   22.0160 C.2   458  ALA458      0.2592
    213  O         28.0360   57.9870   20.9200 O.2   458  ALA458     -0.2718
    214  CB        29.2230   58.3840   23.8970 C.3   458  ALA458      0.0304
    215  N         27.5690   56.1710   22.1630 N.am  459  HIS459     -0.1962
    216  CA        27.6680   55.2460   21.0260 C.3   459  HIS459      0.1787
    217  C         26.3170   54.7240   20.5020 C.2   459  HIS459      0.2620
    218  O         26.2680   53.7920   19.6950 O.2   459  HIS459     -0.2715
    219  CB        28.7060   54.1550   21.3230 C.3   459  HIS459      0.0785
    220  CG        30.0810   54.7130   21.5500 C.ar  459  HIS459      0.0821
    221  ND1       30.5280   55.1200   22.7900 N.ar  459  HIS459     -0.2267
    222  CD2       31.0770   55.0000   20.6800 C.ar  459  HIS459      0.1154
    223  CE1       31.7560   55.5990   22.6770 C.ar  459  HIS459      0.1986
    224  NE2       32.1120   55.5450   21.4040 N.ar  459  HIS459     -0.2212
    225  N         25.2340   55.3600   20.9570 N.am  460  VAL460     -0.1977
    226  CA        23.8890   55.2260   20.3710 C.3   460  VAL460      0.1596
    227  C         23.2580   53.8280   20.5260 C.2   460  VAL460      0.2287
    228  O         22.5660   53.3360   19.6320 O.2   460  VAL460     -0.2864
    229  CB        23.8370   55.7140   18.8790 C.3   460  VAL460      0.0276
    230  CG1       22.4100   56.0090   18.4660 C.3   460  VAL460      0.0022
    231  CG2       24.6980   56.9670   18.6750 C.3   460  VAL460      0.0022
@<TRIPOS>BOND
     1   181   180    2
     2    68    69    1
     3    68    74    1
     4   174   173    2
     5   180   179    1
     6    81    79    1
     7    69    70    1
     8    69    72    1
     9    80    79    1
    10    74    73    1
    11   173   172    1
    12   173   178   am
    13    79    76    1
    14    70    75   am
    15    70    71    2
    16    72    73    1
    17   172   171    1
    18   172   175    1
    19   179   178    1
    20   179   182    1
    21    75    76    1
    22    61    60    2
    23     7     6    1
    24     7     1    1
    25    76    77    1
    26   177   175    1
    27    65    67   ar
    28    65    63   ar
    29   182   183    1
    30   175   176    1
    31    88    89    1
    32    57    56    1
    33    60    59    1
    34     6     5    1
    35    67    66   ar
    36     1     2    1
    37    59    58    1
    38    59    62    1
    39    78    77    2
    40    77    82   am
    41    63    62    1
    42    63    64   ar
    43    89    92    1
    44    89    90    1
    45    93    92    1
    46    66    64   ar
    47   160   159    2
    48    56    54   ar
    49    56    55   ar
    50    82    83    1
    51     5     2    1
    52     2     3    1
    53    90    91    2
    54    90    94   am
    55    84    85    2
    56    84    83    1
    57    54    52   ar
    58    55    53   ar
    59   159   158    1
    60    94    95    1
    61     3     4    2
    62    83    86    1
    63    96    95    1
    64    96    97    2
    65   158   157    1
    66   158   161    1
    67    95    98    1
    68    86    87    1
    69    52    51   ar
    70    53    51   ar
    71    45    44   ar
    72    45    43   ar
    73   167   169   ar
    74   167   164   ar
    75   169   170   ar
    76    13    12    1
    77    51    50    1
    78    44    42   ar
    79    49    48    2
    80    98    99    1
    81   110   108    1
    82   161   162    1
    83     8     9    1
    84   190   189    1
    85    43    41   ar
    86   230   229    1
    87   164   162   ar
    88   164   166   ar
    89   170   168   ar
    90    48    47    1
    91   231   229    1
    92    99   101   ar
    93    99   100   ar
    94   101   103   ar
    95   104   105    1
    96   162   163   ar
    97   229   226    1
    98    42    39   ar
    99   105   108    1
   100   105   106    1
   101    50    47    1
   102    12     9    1
   103   108   109    1
   104   189   191    1
   105   189   188    1
   106     9    10    1
   107    47    46    1
   108   166   168   ar
   109   166   165   ar
   110   228   227    2
   111   218   217    2
   112   100   102   ar
   113    41    39   ar
   114    41    40   ar
   115   103   102   ar
   116    39    37   ar
   117   163   165   ar
   118   106   107    2
   119   109   111    1
   120   184   185    1
   121   226   227    1
   122   226   225    1
   123   188   185    1
   124   217   225   am
   125   217   216    1
   126    10    11    2
   127   222   224   ar
   128   222   220   ar
   129   213   212    2
   130    40    38   ar
   131    35    34    2
   132   216   219    1
   133   216   215    1
   134   185   186    1
   135   219   220    1
   136   224   223   ar
   137    37    38   ar
   138    37    36    1
   139   220   221   ar
   140    33    34    1
   141    33    36    1
   142    33    32    1
   143   212   215   am
   144   212   211    1
   145    27    26    2
   146   186   187    2
   147   112   113    1
   148   223   221   ar
   149    26    32   am
   150    26    25    1
   151    21    23   ar
   152    21    19   ar
   153   211   214    1
   154   211   210    1
   155   125   126    1
   156   125   124    1
   157    23    22   ar
   158   198   199    1
   159   198   197    1
   160    18    19    1
   161    18    15    1
   162   117   116    1
   163    19    20   ar
   164    28    25    1
   165    28    29    1
   166   113   116    1
   167   113   114    1
   168   126   127    2
   169    25    24    1
   170   196   197    1
   171   196   193    1
   172    17    16    2
   173   124   123    1
   174    22    20   ar
   175   127   128    1
   176   127   129    1
   177   192   193    1
   178    31    29   am
   179   116   118    1
   180    14    15    1
   181   114   115    2
   182   114   119   am
   183    15    16    1
   184    29    30    2
   185   193   194    1
   186   119   120    1
   187   123   120    1
   188   120   121    1
   189   194   195    2
   190   203   202    2
   191   208   209   ar
   192   208   206   ar
   193   209   207   ar
   194   136   138   ar
   195   136   135   ar
   196   130   121   am
   197   130   131    1
   198   121   122    2
   199   138   139   ar
   200   202   201    1
   201   206   205   ar
   202   207   205   ar
   203   134   135    1
   204   134   131    1
   205   144   145    1
   206   144   132   am
   207   135   137   ar
   208   131   132    1
   209   205   204    1
   210   145   148    1
   211   145   146    1
   212   201   204    1
   213   201   200    1
   214   139   137   ar
   215   139   141   ar
   216   155   154    2
   217   132   133    2
   218   149   146   am
   219   149   150    1
   220   137   140   ar
   221   146   147    2
   222   153   150    1
   223   153   154    1
   224   150   151    1
   225   154   156   am
   226   141   143   ar
   227   140   142   ar
   228   151   152    2
   229   143   142   ar
