@<TRIPOS>MOLECULE
tmp/4n4nA00.pdb
 242 229 0 0 0
SMALL
GASTEIGER

@<TRIPOS>ATOM
      1  N         48.1040   55.8630   -2.5240 N.3   116  TYR116     -0.1227
      2  CA        48.6360   56.7010   -1.4440 C.3   116  TYR116      0.1736
      3  C         49.8540   56.0820   -0.7460 C.2   116  TYR116      0.2595
      4  O         50.7010   56.8030   -0.2070 O.2   116  TYR116     -0.2718
      5  CB        47.5340   57.0330   -0.4210 C.3   116  TYR116      0.0548
      6  CG        47.2650   55.9360    0.5890 C.ar  116  TYR116     -0.0200
      7  CD1       46.3760   54.9010    0.3000 C.ar  116  TYR116     -0.0009
      8  CD2       47.9030   55.9320    1.8320 C.ar  116  TYR116     -0.0009
      9  CE1       46.1310   53.8910    1.2170 C.ar  116  TYR116      0.0417
     10  CE2       47.6660   54.9220    2.7610 C.ar  116  TYR116      0.0417
     11  CZ        46.7760   53.9030    2.4440 C.ar  116  TYR116      0.1957
     12  OH        46.5280   52.8980    3.3500 O.3   116  TYR116     -0.2866
     13  N         49.9280   54.7490   -0.7670 N.am  117  LYS117     -0.1980
     14  CA        51.0120   53.9920   -0.1330 C.3   117  LYS117      0.1596
     15  C         52.3800   54.2450   -0.7690 C.2   117  LYS117      0.2287
     16  O         53.3980   54.2190   -0.0750 O.2   117  LYS117     -0.2864
     17  CB        50.6960   52.4910   -0.1430 C.3   117  LYS117      0.0298
     18  CG        49.6930   52.0450    0.9210 C.3   117  LYS117      0.0038
     19  CD        48.8190   50.9120    0.4040 C.3   117  LYS117      0.0206
     20  CE        48.5040   49.8740    1.4750 C.3   117  LYS117      0.1093
     21  NZ        47.8940   50.4140    2.7210 N.3   117  LYS117     -0.1314
     22  N         53.7210   57.2480    0.8090 N.3   120  LYS120     -0.1245
     23  CA        54.1250   56.9160    2.1780 C.3   120  LYS120      0.1561
     24  C         55.4910   56.2320    2.2310 C.2   120  LYS120      0.2260
     25  O         56.2890   56.5070    3.1250 O.2   120  LYS120     -0.2867
     26  CB        53.0620   56.0550    2.8710 C.3   120  LYS120      0.0271
     27  CG        51.8290   56.8280    3.3070 C.3   120  LYS120      0.0035
     28  CD        51.0130   56.0440    4.3260 C.3   120  LYS120      0.0206
     29  CE        49.9280   56.9050    4.9560 C.3   120  LYS120      0.1093
     30  NZ        50.4830   58.0730    5.7080 N.3   120  LYS120     -0.1314
     31  N         57.8340   51.9120   20.1130 N.3   169  ALA169     -0.1245
     32  CA        57.2420   53.0000   19.3170 C.3   169  ALA169      0.1562
     33  C         58.2810   53.8150   18.5480 C.2   169  ALA169      0.2260
     34  O         58.0460   54.2000   17.4010 O.2   169  ALA169     -0.2867
     35  CB        56.3810   53.9100   20.1820 C.3   169  ALA169      0.0290
     36  N         59.5400   51.7580   15.3170 N.3   172  CYS172     -0.1221
     37  CA        58.6070   51.9830   14.2120 C.3   172  CYS172      0.1808
     38  C         58.7250   53.4230   13.7130 C.2   172  CYS172      0.2601
     39  O         58.7080   53.6740   12.5060 O.2   172  CYS172     -0.2717
     40  CB        57.1640   51.7150   14.6570 C.3   172  CYS172      0.0970
     41  SG        56.8580   50.1030   15.4220 S.3   172  CYS172     -0.0800
     42  N         58.8620   54.3490   14.6630 N.am  173  GLY173     -0.1957
     43  CA        58.9220   55.7820   14.3910 C.3   173  GLY173      0.1869
     44  C         60.1500   56.2600   13.6340 C.2   173  GLY173      0.2309
     45  O         60.1510   57.3710   13.1000 O.2   173  GLY173     -0.2863
     46  N         58.3360   55.4460   10.3000 N.3   176  HIS176     -0.1241
     47  CA        56.9990   56.0290   10.3230 C.3   176  HIS176      0.1621
     48  C         56.9460   57.2530   11.2450 C.2   176  HIS176      0.2264
     49  O         56.2150   57.2760   12.2480 O.2   176  HIS176     -0.2867
     50  CB        55.9570   54.9660   10.7200 C.3   176  HIS176      0.0745
     51  CG        55.9170   53.7750    9.8050 C.ar  176  HIS176      0.0817
     52  ND1       55.7390   53.8850    8.4410 N.ar  176  HIS176     -0.2268
     53  CD2       56.0020   52.4460   10.0630 C.ar  176  HIS176      0.1154
     54  CE1       55.7260   52.6790    7.8990 C.ar  176  HIS176      0.1986
     55  NE2       55.8790   51.7850    8.8610 N.ar  176  HIS176     -0.2212
     56  N         53.3160   59.1130   11.7480 N.3   179  GLU179     -0.1231
     57  CA        52.4040   58.4080   12.6530 C.3   179  GLU179      0.1699
     58  C         52.8580   58.4670   14.1140 C.2   179  GLU179      0.2592
     59  O         52.0460   58.6940   15.0080 O.2   179  GLU179     -0.2718
     60  CB        52.2160   56.9580   12.2000 C.3   179  GLU179      0.0402
     61  CG        51.4270   56.8070   10.8930 C.3   179  GLU179      0.1161
     62  CD        52.2700   56.9920    9.6250 C.2   179  GLU179      0.3649
     63  OE1       53.5060   57.1790    9.7140 O.co2 179  GLU179     -0.2457
     64  OE2       51.6810   56.9400    8.5230 O.co2 179  GLU179     -0.2457
     65  N         54.1600   58.2820   14.3340 N.am  180  PHE180     -0.1976
     66  CA        54.7690   58.3650   15.6630 C.3   180  PHE180      0.1639
     67  C         54.6120   59.7680   16.2590 C.2   180  PHE180      0.2290
     68  O         54.2290   59.9140   17.4220 O.2   180  PHE180     -0.2864
     69  CB        56.2460   57.9600   15.5770 C.3   180  PHE180      0.0560
     70  CG        57.0060   58.0820   16.8710 C.ar  180  PHE180     -0.0200
     71  CD1       56.5690   57.4360   18.0300 C.ar  180  PHE180     -0.0042
     72  CD2       58.1950   58.8060   16.9190 C.ar  180  PHE180     -0.0042
     73  CE1       57.2890   57.5380   19.2240 C.ar  180  PHE180     -0.0003
     74  CE2       58.9240   58.9130   18.1080 C.ar  180  PHE180     -0.0003
     75  CZ        58.4670   58.2800   19.2650 C.ar  180  PHE180     -0.0000
     76  N         50.9580   60.4230   17.0800 N.3   183  ARG183     -0.1245
     77  CA        50.6640   59.7170   18.3200 C.3   183  ARG183      0.1563
     78  C         51.2010   60.4980   19.5120 C.2   183  ARG183      0.2260
     79  O         50.4710   60.7490   20.4730 O.2   183  ARG183     -0.2867
     80  CB        51.2660   58.3050   18.2850 C.3   183  ARG183      0.0307
     81  CG        50.5710   57.2800   19.1760 C.3   183  ARG183      0.0489
     82  CD        50.8220   57.4880   20.6730 C.3   183  ARG183      0.2205
     83  NE        52.2280   57.3540   21.0640 N.pl3 183  ARG183     -0.0865
     84  CZ        52.8430   56.1960   21.2970 C.cat 183  ARG183      0.5346
     85  NH1       52.1900   55.0480   21.1670 N.pl3 183  ARG183      0.1354
     86  NH2       54.1210   56.1790   21.6530 N.pl3 183  ARG183      0.1354
     87  N         46.6610   57.3560   24.1310 N.3   204  HIS204     -0.1241
     88  CA        47.4790   56.1830   23.8550 C.3   204  HIS204      0.1621
     89  C         48.9620   56.4620   24.1210 C.2   204  HIS204      0.2264
     90  O         49.7090   55.5560   24.5010 O.2   204  HIS204     -0.2867
     91  CB        47.2350   55.6690   22.4330 C.3   204  HIS204      0.0745
     92  CG        45.8530   55.1200   22.2160 C.ar  204  HIS204      0.0817
     93  ND1       45.1370   55.3420   21.0590 N.ar  204  HIS204     -0.2268
     94  CD2       45.0500   54.3760   23.0170 C.ar  204  HIS204      0.1154
     95  CE1       43.9590   54.7460   21.1500 C.ar  204  HIS204      0.1986
     96  NE2       43.8780   54.1530   22.3300 N.ar  204  HIS204     -0.2212
     97  N         50.1490   50.6680   24.3710 N.3   235  ASN235     -0.1240
     98  CA        50.2930   51.4710   23.1480 C.3   235  ASN235      0.1653
     99  C         51.4680   52.4400   23.1830 C.2   235  ASN235      0.2266
    100  O         52.1440   52.6390   22.1710 O.2   235  ASN235     -0.2867
    101  CB        49.0050   52.2370   22.8400 C.3   235  ASN235      0.1155
    102  CG        47.8380   51.3200   22.5620 C.2   235  ASN235      0.2627
    103  OD1       47.9140   50.4470   21.6960 O.2   235  ASN235     -0.2716
    104  ND2       46.7460   51.5110   23.2980 N.am  235  ASN235     -0.0877
    105  N         54.5500   49.9610   22.5080 N.3   238  LYS238     -0.1231
    106  CA        54.5910   49.2460   21.2270 C.3   238  LYS238      0.1693
    107  C         53.4160   49.5960   20.3080 C.2   238  LYS238      0.2592
    108  O         52.3070   49.8800   20.7740 O.2   238  LYS238     -0.2718
    109  CB        54.7230   47.7300   21.4320 C.3   238  LYS238      0.0285
    110  CG        53.6100   47.0810   22.2400 C.3   238  LYS238      0.0035
    111  CD        53.9740   45.6420   22.5970 C.3   238  LYS238      0.0206
    112  CE        52.7980   44.8980   23.2130 C.3   238  LYS238      0.1093
    113  NZ        51.6870   44.6950   22.2410 N.3   238  LYS238     -0.1314
    114  N         53.6820   49.5590   19.0030 N.am  239  CYS239     -0.1970
    115  CA        52.7430   50.0220   17.9820 C.3   239  CYS239      0.1712
    116  C         51.9170   48.9110   17.3230 C.2   239  CYS239      0.2296
    117  O         51.3180   49.1370   16.2690 O.2   239  CYS239     -0.2864
    118  CB        53.5030   50.7980   16.8980 C.3   239  CYS239      0.0983
    119  SG        54.1560   52.4090   17.4020 S.3   239  CYS239     -0.0798
    120  N         49.1640   47.0410   18.6110 N.3   241  ASN241     -0.1225
    121  CA        47.8980   46.6700   19.2640 C.3   241  ASN241      0.1785
    122  C         46.6530   46.8050   18.3830 C.2   241  ASN241      0.2597
    123  O         45.6680   46.1020   18.6000 O.2   241  ASN241     -0.2718
    124  CB        47.7070   47.4210   20.5850 C.3   241  ASN241      0.1169
    125  CG        48.6800   46.9730   21.6610 C.2   241  ASN241      0.2627
    126  OD1       49.0090   45.7900   21.7690 O.2   241  ASN241     -0.2716
    127  ND2       49.1450   47.9220   22.4690 N.am  241  ASN241     -0.0877
    128  N         46.6980   47.7080   17.4030 N.am  242  CYS242     -0.1956
    129  CA        45.5930   47.8790   16.4600 C.3   242  CYS242      0.1843
    130  C         45.9000   47.1690   15.1450 C.2   242  CYS242      0.2625
    131  O         45.0940   46.3600   14.6750 O.2   242  CYS242     -0.2714
    132  CB        45.2860   49.3610   16.2300 C.3   242  CYS242      0.0997
    133  SG        44.8380   50.2670   17.7350 S.3   242  CYS242     -0.0797
    134  N         47.0550   47.4900   14.5540 N.am  243  HIS243     -0.1973
    135  CA        47.6250   46.6960   13.4650 C.3   243  HIS243      0.1656
    136  C         48.6810   45.7400   14.0380 C.2   243  HIS243      0.2291
    137  O         49.8130   46.1470   14.3200 O.2   243  HIS243     -0.2864
    138  CB        48.1730   47.5610   12.2970 C.3   243  HIS243      0.0771
    139  CG        48.6750   48.9220   12.6960 C.ar  243  HIS243      0.0820
    140  ND1       49.8150   49.1090   13.4460 N.ar  243  HIS243     -0.2267
    141  CD2       48.2130   50.1630   12.4020 C.ar  243  HIS243      0.1154
    142  CE1       50.0180   50.4040   13.6210 C.ar  243  HIS243      0.1986
    143  NE2       49.0620   51.0690   12.9960 N.ar  243  HIS243     -0.2212
    144  N         47.0570   47.7640    7.8210 N.3   250  ALA250     -0.1245
    145  CA        46.2860   48.9840    8.0610 C.3   250  ALA250      0.1562
    146  C         44.7800   48.7180    8.0070 C.2   250  ALA250      0.2260
    147  O         44.0140   49.3100    8.7740 O.2   250  ALA250     -0.2867
    148  CB        46.6730   50.0700    7.0610 C.3   250  ALA250      0.0290
    149  N         43.5220   47.3900   11.3450 N.3   253  SER253     -0.1202
    150  CA        43.4340   48.4410   12.3630 C.3   253  SER253      0.2020
    151  C         42.2390   49.3770   12.1670 C.2   253  SER253      0.2618
    152  O         41.8270   50.0550   13.1030 O.2   253  SER253     -0.2717
    153  CB        44.7320   49.2520   12.4260 C.3   253  SER253      0.2103
    154  OG        45.0480   49.8060   11.1640 O.3   253  SER253     -0.2182
    155  N         41.6950   49.4150   10.9500 N.am  254  ARG254     -0.1979
    156  CA        40.5160   50.2300   10.6520 C.3   254  ARG254      0.1597
    157  C         39.2140   49.5500   11.0760 C.2   254  ARG254      0.2287
    158  O         38.1800   50.2050   11.1990 O.2   254  ARG254     -0.2864
    159  CB        40.4590   50.5870    9.1640 C.3   254  ARG254      0.0334
    160  CG        41.5490   51.5410    8.7150 C.3   254  ARG254      0.0492
    161  CD        41.4680   51.8250    7.2220 C.3   254  ARG254      0.2205
    162  NE        42.6710   52.5160    6.7570 N.pl3 254  ARG254     -0.0865
    163  CZ        43.5660   52.0040    5.9160 C.cat 254  ARG254      0.5346
    164  NH1       43.4020   50.7870    5.4050 N.pl3 254  ARG254      0.1354
    165  NH2       44.6250   52.7240    5.5710 N.pl3 254  ARG254      0.1354
    166  N         39.9330   47.5820   18.1950 N.3   259  CYS259     -0.1235
    167  CA        39.8920   48.3740   19.4340 C.3   259  CYS259      0.1677
    168  C         39.2210   47.6400   20.5930 C.2   259  CYS259      0.2270
    169  O         39.2310   48.1310   21.7230 O.2   259  CYS259     -0.2867
    170  CB        39.1270   49.6850   19.2040 C.3   259  CYS259      0.0956
    171  SG        39.3320   50.4210   17.5830 S.3   259  CYS259     -0.0801
    172  N         42.4330   54.2830    2.5850 N.3   295  ARG295     -0.1231
    173  CA        42.7090   55.1000    3.7630 C.3   295  ARG295      0.1694
    174  C         41.4180   55.6750    4.3370 C.2   295  ARG295      0.2592
    175  O         40.4340   55.8510    3.6120 O.2   295  ARG295     -0.2718
    176  CB        43.7210   56.2090    3.4480 C.3   295  ARG295      0.0321
    177  CG        43.2910   57.1760    2.3610 C.3   295  ARG295      0.0489
    178  CD        44.3570   58.2270    2.0970 C.3   295  ARG295      0.2205
    179  NE        43.8940   59.1950    1.1080 N.pl3 295  ARG295     -0.0865
    180  CZ        44.2690   60.4720    1.0590 C.cat 295  ARG295      0.5346
    181  NH1       45.1220   60.9640    1.9520 N.pl3 295  ARG295      0.1354
    182  NH2       43.7770   61.2630    0.1130 N.pl3 295  ARG295      0.1354
    183  N         41.4280   55.9600    5.6380 N.am  296  LEU296     -0.1966
    184  CA        40.2500   56.4830    6.3340 C.3   296  LEU296      0.1728
    185  C         39.6280   57.6900    5.6270 C.2   296  LEU296      0.2616
    186  O         38.4090   57.8470    5.6250 O.2   296  LEU296     -0.2715
    187  CB        40.5850   56.8370    7.7880 C.3   296  LEU296      0.0311
    188  CG        40.8470   55.6830    8.7660 C.3   296  LEU296      0.0022
    189  CD1       41.3420   56.2170   10.1010 C.3   296  LEU296      0.0001
    190  CD2       39.6090   54.8180    8.9600 C.3   296  LEU296      0.0001
    191  N         40.4700   58.5230    5.0160 N.am  297  LYS297     -0.1977
    192  CA        39.9980   59.7010    4.2950 C.3   297  LYS297      0.1596
    193  C         39.1940   59.3500    3.0370 C.2   297  LYS297      0.2287
    194  O         38.3430   60.1300    2.6090 O.2   297  LYS297     -0.2864
    195  CB        41.1590   60.6440    3.9570 C.3   297  LYS297      0.0298
    196  CG        40.6960   62.0640    3.6620 C.3   297  LYS297      0.0038
    197  CD        41.8390   63.0470    3.6070 C.3   297  LYS297      0.0206
    198  CE        41.3230   64.4410    3.2900 C.3   297  LYS297      0.1093
    199  NZ        42.4290   65.4260    3.2530 N.3   297  LYS297     -0.1314
    200  N         37.5330   53.8310   14.4320 N.3   311  ALA311     -0.1245
    201  CA        38.6520   54.5610   13.8300 C.3   311  ALA311      0.1562
    202  C         38.2150   55.8000   13.0420 C.2   311  ALA311      0.2260
    203  O         38.8210   56.8630   13.1810 O.2   311  ALA311     -0.2867
    204  CB        39.4890   53.6260   12.9500 C.3   311  ALA311      0.0290
    205  N         39.6780   58.9650   15.0120 N.3   315  MET315     -0.1245
    206  CA        40.8990   59.4740   14.3720 C.3   315  MET315      0.1570
    207  C         40.6380   60.6930   13.4750 C.2   315  MET315      0.2261
    208  O         41.5790   61.3680   13.0400 O.2   315  MET315     -0.2867
    209  CB        41.6270   58.3690   13.5990 C.3   315  MET315      0.0387
    210  CG        42.4330   57.4300   14.4920 C.3   315  MET315      0.0595
    211  SD        43.1690   56.0310   13.6300 S.3   315  MET315     -0.1393
    212  CE        44.4470   56.7950   12.6450 C.3   315  MET315      0.0692
    213  N         42.5990   62.8360    9.0880 N.3   321  TYR321     -0.1241
    214  CA        42.7730   61.6530    9.9210 C.3   321  TYR321      0.1605
    215  C         44.2190   61.5090   10.3820 C.2   321  TYR321      0.2264
    216  O         45.1410   61.5360    9.5660 O.2   321  TYR321     -0.2867
    217  CB        42.3140   60.4030    9.1590 C.3   321  TYR321      0.0534
    218  CG        40.8430   60.4290    8.8090 C.ar  321  TYR321     -0.0201
    219  CD1       40.3860   61.1060    7.6740 C.ar  321  TYR321     -0.0009
    220  CD2       39.9010   59.7940    9.6220 C.ar  321  TYR321     -0.0009
    221  CE1       39.0350   61.1480    7.3560 C.ar  321  TYR321      0.0417
    222  CE2       38.5470   59.8170    9.3030 C.ar  321  TYR321      0.0417
    223  CZ        38.1220   60.5010    8.1710 C.ar  321  TYR321      0.1957
    224  OH        36.7840   60.5360    7.8520 O.3   321  TYR321     -0.2866
    225  N         46.8550   59.7090   13.8530 N.3   323  HIS323     -0.1241
    226  CA        46.9640   58.7680   14.9740 C.3   323  HIS323      0.1621
    227  C         46.6910   59.4330   16.3330 C.2   323  HIS323      0.2264
    228  O         46.7660   58.7810   17.3750 O.2   323  HIS323     -0.2867
    229  CB        48.3380   58.0690   14.9750 C.3   323  HIS323      0.0745
    230  CG        48.3920   56.8140   14.1490 C.ar  323  HIS323      0.0817
    231  ND1       48.2750   56.8170   12.7770 N.ar  323  HIS323     -0.2268
    232  CD2       48.5680   55.5180   14.5060 C.ar  323  HIS323      0.1154
    233  CE1       48.3710   55.5780   12.3250 C.ar  323  HIS323      0.1986
    234  NE2       48.5530   54.7680   13.3530 N.ar  323  HIS323     -0.2212
    235  N         44.0690   60.7060   18.8150 N.3   325  ILE325     -0.1245
    236  CA        42.6430   60.4430   19.0650 C.3   325  ILE325      0.1561
    237  C         42.0300   61.2670   20.2040 C.2   325  ILE325      0.2260
    238  O         40.9910   60.8870   20.7510 O.2   325  ILE325     -0.2867
    239  CB        42.3620   58.9150   19.3060 C.3   325  ILE325      0.0252
    240  CG1       43.4060   58.2710   20.2290 C.3   325  ILE325      0.0019
    241  CG2       42.3320   58.1650   17.9940 C.3   325  ILE325      0.0019
    242  CD1       43.3130   58.6570   21.7050 C.3   325  ILE325      0.0001
@<TRIPOS>BOND
     1     1     2    1
     2     2     3    1
     3     2     5    1
     4    15    14    1
     5    15    16    2
     6    13     3   am
     7    13    14    1
     8     3     4    2
     9     5     6    1
    10    17    14    1
    11    17    18    1
    12   182   180    1
    13     7     6   ar
    14     7     9   ar
    15    19    18    1
    16    19    20    1
    17     6     8   ar
    18    22    23    1
    19   180   179    2
    20   180   181    1
    21   179   178    1
    22     9    11   ar
    23    20    21    1
    24     8    10   ar
    25   178   177    1
    26    23    24    1
    27    23    26    1
    28    24    25    2
    29   177   176    1
    30    11    10   ar
    31    11    12    1
    32   172   173    1
    33   194   193    2
    34    26    27    1
    35   193   192    1
    36   199   198    1
    37   198   197    1
    38    27    28    1
    39   176   173    1
    40   197   196    1
    41   175   174    2
    42   196   195    1
    43   173   174    1
    44   195   192    1
    45   192   191    1
    46    28    29    1
    47   174   183   am
    48    29    30    1
    49   191   185   am
    50   164   163    1
    51   165   163    1
    52   186   185    2
    53   185   184    1
    54   183   184    1
    55   163   162    2
    56   184   187    1
    57   162   161    1
    58   148   145    1
    59   161   160    1
    60   221   219   ar
    61   221   223   ar
    62   219   218   ar
    63   187   188    1
    64   144   145    1
    65   224   223    1
    66    54    52   ar
    67    54    55   ar
    68   146   145    1
    69   146   147    2
    70   223   222   ar
    71    52    51   ar
    72    64    62   ar
    73   160   159    1
    74   188   190    1
    75   188   189    1
    76   218   217    1
    77   218   220   ar
    78    55    53   ar
    79   213   214    1
    80   217   214    1
    81   159   156    1
    82   222   220   ar
    83   216   215    2
    84    62    63   ar
    85    62    61    1
    86    51    53   ar
    87    51    50    1
    88   214   215    1
    89    46    47    1
    90    47    50    1
    91    47    48    1
    92   156   155    1
    93   156   157    1
    94    61    60    1
    95   155   151   am
    96   157   158    2
    97   154   153    1
    98    48    49    2
    99   149   150    1
   100    56    57    1
   101   151   150    1
   102   151   152    2
   103    60    57    1
   104   138   139    1
   105   138   135    1
   106   233   231   ar
   107   233   234   ar
   108   150   153    1
   109   141   139   ar
   110   141   143   ar
   111    39    38    2
   112   212   211    1
   113    57    58    1
   114   139   140   ar
   115   231   230   ar
   116   204   201    1
   117   143   142   ar
   118   208   207    2
   119   202   203    2
   120   202   201    1
   121    45    44    2
   122   234   232   ar
   123   140   142   ar
   124   135   136    1
   125   135   134    1
   126   207   206    1
   127   209   206    1
   128   209   210    1
   129   211   210    1
   130    44    43    1
   131    38    37    1
   132    38    42   am
   133   201   200    1
   134   225   226    1
   135   136   137    2
   136    58    65   am
   137    58    59    2
   138   230   232   ar
   139   230   229    1
   140    37    40    1
   141    37    36    1
   142    65    66    1
   143   206   205    1
   144    43    42    1
   145   134   130   am
   146    40    41    1
   147   131   130    2
   148   226   229    1
   149   226   227    1
   150   130   129    1
   151    69    66    1
   152    69    70    1
   153    66    67    1
   154   132   129    1
   155   132   133    1
   156    67    68    2
   157   117   116    2
   158   227   228    2
   159   129   128    1
   160    70    72   ar
   161    70    71   ar
   162   118   119    1
   163   118   115    1
   164    72    74   ar
   165    76    77    1
   166   116   115    1
   167    34    33    2
   168   128   122   am
   169   171   170    1
   170   115   114    1
   171   241   239    1
   172    71    73   ar
   173    74    75   ar
   174   166   167    1
   175    80    77    1
   176    80    81    1
   177    77    78    1
   178   122   123    2
   179   122   121    1
   180    33    32    1
   181   120   121    1
   182   235   236    1
   183   114   107   am
   184   236   239    1
   185   236   237    1
   186    81    82    1
   187   170   167    1
   188    73    75   ar
   189   121   124    1
   190   239   240    1
   191    32    31    1
   192    32    35    1
   193   167   168    1
   194    78    79    2
   195   237   238    2
   196   240   242    1
   197   107   108    2
   198   107   106    1
   199   124   125    1
   200   168   169    2
   201    82    83    1
   202    93    95   ar
   203    93    92   ar
   204    83    84    2
   205    95    96   ar
   206    85    84    1
   207   106   109    1
   208   106   105    1
   209    84    86    1
   210   109   110    1
   211   125   126    2
   212   125   127   am
   213   103   102    2
   214   100    99    2
   215    92    91    1
   216    92    94   ar
   217   110   111    1
   218   113   112    1
   219    96    94   ar
   220    91    88    1
   221   102   101    1
   222   102   104   am
   223   111   112    1
   224   101    98    1
   225    98    99    1
   226    98    97    1
   227    88    89    1
   228    88    87    1
   229    89    90    2
