@<TRIPOS>MOLECULE
tmp/4n4nA06.pdb
 164 160 0 0 0
SMALL
GASTEIGER

@<TRIPOS>ATOM
      1  N         22.7320   50.6690   16.0110 N.3   278  LYS278     -0.1231
      2  CA        22.4960   50.5040   14.5760 C.3   278  LYS278      0.1693
      3  C         23.7890   50.6580   13.7940 C.2   278  LYS278      0.2592
      4  O         24.0500   49.8900   12.8630 O.2   278  LYS278     -0.2718
      5  CB        21.4580   51.5010   14.0570 C.3   278  LYS278      0.0285
      6  CG        20.0680   50.9280   13.9110 C.3   278  LYS278      0.0035
      7  CD        20.0230   49.8300   12.8410 C.3   278  LYS278      0.0206
      8  CE        18.6940   49.1140   12.9140 C.3   278  LYS278      0.1093
      9  NZ        18.7380   47.7430   12.3490 N.3   278  LYS278     -0.1314
     10  N         24.5930   51.6490   14.1850 N.am  279  HIS279     -0.1976
     11  CA        25.9020   51.8910   13.5750 C.3   279  HIS279      0.1656
     12  C         26.7150   50.6000   13.4940 C.2   279  HIS279      0.2291
     13  O         27.1930   50.2270   12.4170 O.2   279  HIS279     -0.2864
     14  CB        26.6880   52.9610   14.3530 C.3   279  HIS279      0.0771
     15  CG        26.1560   54.3550   14.1960 C.ar  279  HIS279      0.0820
     16  ND1       26.3500   55.3320   15.1500 N.ar  279  HIS279     -0.2267
     17  CD2       25.4530   54.9420   13.1970 C.ar  279  HIS279      0.1154
     18  CE1       25.7950   56.4600   14.7430 C.ar  279  HIS279      0.1986
     19  NE2       25.2390   56.2510   13.5630 N.ar  279  HIS279     -0.2212
     20  N         25.0690   47.5750   11.4290 N.3   282  LEU282     -0.1245
     21  CA        25.3000   47.8560   10.0160 C.3   282  LEU282      0.1561
     22  C         26.7390   47.5750    9.6090 C.2   282  LEU282      0.2260
     23  O         26.9790   47.0520    8.5290 O.2   282  LEU282     -0.2867
     24  CB        24.9480   49.3090    9.6820 C.3   282  LEU282      0.0270
     25  CG        23.4670   49.5960    9.4580 C.3   282  LEU282      0.0019
     26  CD1       23.2040   51.0900    9.5330 C.3   282  LEU282      0.0001
     27  CD2       23.0300   49.0240    8.1150 C.3   282  LEU282      0.0001
     28  N         34.6640   56.6500    2.9350 N.3   300  PHE300     -0.1241
     29  CA        33.2730   56.9250    2.5940 C.3   300  PHE300      0.1605
     30  C         33.0390   57.1510    1.1010 C.2   300  PHE300      0.2264
     31  O         31.8970   57.1560    0.6480 O.2   300  PHE300     -0.2867
     32  CB        32.7520   58.1030    3.4200 C.3   300  PHE300      0.0534
     33  CG        32.9180   57.9120    4.8980 C.ar  300  PHE300     -0.0203
     34  CD1       32.1640   56.9600    5.5780 C.ar  300  PHE300     -0.0042
     35  CD2       33.8470   58.6630    5.6060 C.ar  300  PHE300     -0.0042
     36  CE1       32.3220   56.7720    6.9470 C.ar  300  PHE300     -0.0003
     37  CE2       34.0130   58.4850    6.9710 C.ar  300  PHE300     -0.0003
     38  CZ        33.2470   57.5360    7.6470 C.ar  300  PHE300     -0.0000
     39  N         29.2090   53.0150    4.6330 N.3   306  ASN306     -0.1225
     40  CA        27.9930   53.7940    4.8960 C.3   306  ASN306      0.1785
     41  C         27.5660   53.8110    6.3650 C.2   306  ASN306      0.2597
     42  O         26.5430   54.4030    6.7150 O.2   306  ASN306     -0.2718
     43  CB        26.8320   53.3520    3.9900 C.3   306  ASN306      0.1169
     44  CG        26.3000   51.9740    4.3390 C.2   306  ASN306      0.2627
     45  OD1       27.0640   51.0250    4.5370 O.2   306  ASN306     -0.2716
     46  ND2       24.9760   51.8530    4.4030 N.am  306  ASN306     -0.0877
     47  N         28.3580   53.1640    7.2160 N.am  307  ALA307     -0.1966
     48  CA        28.1470   53.2090    8.6580 C.3   307  ALA307      0.1713
     49  C         29.4710   53.5430    9.3580 C.2   307  ALA307      0.2458
     50  O         30.5270   53.1250    8.8960 O.2   307  ALA307     -0.2730
     51  CB        27.5760   51.8850    9.1510 C.3   307  ALA307      0.0333
     52  N         29.4220   54.3040   10.4690 N.am  308  PRO308     -0.2727
     53  CA        30.6730   54.7490   11.0920 C.3   308  PRO308      0.1402
     54  C         31.3510   53.6670   11.9330 C.2   308  PRO308      0.2269
     55  O         30.7040   52.7090   12.3610 O.2   308  PRO308     -0.2865
     56  CB        30.2230   55.9120   11.9780 C.3   308  PRO308      0.0296
     57  CG        28.8380   55.5390   12.3870 C.3   308  PRO308      0.0237
     58  CD        28.2400   54.8030   11.1980 C.3   308  PRO308      0.0939
     59  N         35.5540   57.6380   13.3950 N.3   313  CYS313     -0.1235
     60  CA        35.0220   58.6860   14.2630 C.3   313  CYS313      0.1677
     61  C         36.1000   59.3150   15.1420 C.2   313  CYS313      0.2270
     62  O         36.1410   60.5390   15.3060 O.2   313  CYS313     -0.2867
     63  CB        33.8790   58.1590   15.1360 C.3   313  CYS313      0.0956
     64  SG        32.2230   58.1880   14.3750 S.3   313  CYS313     -0.0801
     65  N         32.8630   67.3130   16.6740 N.3   356  TRP356     -0.1241
     66  CA        32.0760   66.0730   16.6250 C.3   356  TRP356      0.1605
     67  C         30.9410   66.1660   15.6070 C.2   356  TRP356      0.2264
     68  O         30.7370   65.2530   14.8080 O.2   356  TRP356     -0.2867
     69  CB        31.5170   65.7000   18.0040 C.3   356  TRP356      0.0550
     70  CG        32.4490   64.8660   18.8370 C.ar  356  TRP356      0.0003
     71  CD1       32.9880   65.2030   20.0420 C.ar  356  TRP356      0.0946
     72  CD2       32.9450   63.5520   18.5290 C.ar  356  TRP356      0.0152
     73  NE1       33.7930   64.1900   20.5030 N.ar  356  TRP356     -0.2442
     74  CE2       33.7880   63.1650   19.5940 C.ar  356  TRP356      0.0810
     75  CE3       32.7670   62.6710   17.4530 C.ar  356  TRP356      0.0012
     76  CZ2       34.4500   61.9300   19.6200 C.ar  356  TRP356      0.0191
     77  CZ3       33.4270   61.4420   17.4770 C.ar  356  TRP356      0.0001
     78  CH2       34.2600   61.0860   18.5540 C.ar  356  TRP356      0.0015
     79  N         32.0780   65.5640   12.1630 N.3   359  THR359     -0.1203
     80  CA        32.2430   64.1150   11.9890 C.3   359  THR359      0.1994
     81  C         30.9290   63.4260   11.6100 C.2   359  THR359      0.2618
     82  O         30.8890   62.6430   10.6600 O.2   359  THR359     -0.2717
     83  CB        32.8010   63.4500   13.2780 C.3   359  THR359      0.1784
     84  OG1       33.9940   64.1240   13.6930 O.3   359  THR359     -0.2211
     85  CG2       33.1010   61.9670   13.0570 C.3   359  THR359      0.0376
     86  N         29.8660   63.7300   12.3540 N.am  360  CYS360     -0.1969
     87  CA        28.5460   63.1340   12.1190 C.3   360  CYS360      0.1712
     88  C         27.9410   63.5210   10.7710 C.2   360  CYS360      0.2296
     89  O         27.2500   62.7030   10.1480 O.2   360  CYS360     -0.2864
     90  CB        27.5710   63.5100   13.2360 C.3   360  CYS360      0.0983
     91  SG        28.1610   63.1800   14.9010 S.3   360  CYS360     -0.0798
     92  N         29.1230   63.7670    7.9440 N.3   362  GLN362     -0.1231
     93  CA        29.5200   62.8790    6.8570 C.3   362  GLN362      0.1698
     94  C         28.2790   62.1570    6.3270 C.2   362  GLN362      0.2592
     95  O         28.2230   61.7640    5.1580 O.2   362  GLN362     -0.2718
     96  CB        30.5400   61.8580    7.3680 C.3   362  GLN362      0.0381
     97  CG        31.2060   61.0100    6.2900 C.3   362  GLN362      0.0905
     98  CD        32.2180   61.7820    5.4560 C.2   362  GLN362      0.2608
     99  OE1       32.1760   61.7400    4.2250 O.2   362  GLN362     -0.2717
    100  NE2       33.1340   62.4820    6.1200 N.am  362  GLN362     -0.0878
    101  N         27.2830   62.0070    7.2000 N.am  363  CYS363     -0.1956
    102  CA        26.0590   61.2820    6.8840 C.3   363  CYS363      0.1843
    103  C         24.8130   62.0450    7.3380 C.2   363  CYS363      0.2625
    104  O         24.0060   62.4590    6.5130 O.2   363  CYS363     -0.2714
    105  CB        26.1000   59.8890    7.5180 C.3   363  CYS363      0.0997
    106  SG        27.6710   59.0260    7.2660 S.3   363  CYS363     -0.0797
    107  N         24.6660   62.2300    8.6490 N.am  364  HIS364     -0.1973
    108  CA        23.5050   62.9200    9.2140 C.3   364  HIS364      0.1656
    109  C         23.5450   64.4310    8.9450 C.2   364  HIS364      0.2291
    110  O         24.6080   64.9950    8.6690 O.2   364  HIS364     -0.2864
    111  CB        23.4100   62.6710   10.7260 C.3   364  HIS364      0.0771
    112  CG        23.3510   61.2230   11.1130 C.ar  364  HIS364      0.0820
    113  ND1       22.2620   60.4210   10.8440 N.ar  364  HIS364     -0.2267
    114  CD2       24.2360   60.4420   11.7790 C.ar  364  HIS364      0.1154
    115  CE1       22.4860   59.2060   11.3140 C.ar  364  HIS364      0.1986
    116  NE2       23.6750   59.1920   11.8890 N.ar  364  HIS364     -0.2212
    117  N         20.2690   67.0820   13.1100 N.3   368  PHE368     -0.1227
    118  CA        20.0780   65.7420   13.6600 C.3   368  PHE368      0.1736
    119  C         21.1780   65.4240   14.6770 C.2   368  PHE368      0.2595
    120  O         20.8920   65.0060   15.7990 O.2   368  PHE368     -0.2718
    121  CB        20.0470   64.6920   12.5350 C.3   368  PHE368      0.0547
    122  CG        19.8330   63.2790   13.0200 C.ar  368  PHE368     -0.0202
    123  CD1       20.9180   62.4620   13.3340 C.ar  368  PHE368     -0.0042
    124  CD2       18.5470   62.7670   13.1640 C.ar  368  PHE368     -0.0042
    125  CE1       20.7240   61.1530   13.7880 C.ar  368  PHE368     -0.0003
    126  CE2       18.3450   61.4650   13.6220 C.ar  368  PHE368     -0.0003
    127  CZ        19.4380   60.6580   13.9330 C.ar  368  PHE368     -0.0000
    128  N         22.4280   65.6420   14.2780 N.am  369  ALA369     -0.1980
    129  CA        23.5840   65.3360   15.1160 C.3   369  ALA369      0.1597
    130  C         23.5920   66.1430   16.4140 C.2   369  ALA369      0.2287
    131  O         23.8420   65.5910   17.4890 O.2   369  ALA369     -0.2864
    132  CB        24.8770   65.5500   14.3390 C.3   369  ALA369      0.0319
    133  N         20.9560   64.7980   18.8640 N.3   372  TYR372     -0.1227
    134  CA        21.3750   63.6130   19.6120 C.3   372  TYR372      0.1736
    135  C         22.5000   63.8770   20.6180 C.2   372  TYR372      0.2595
    136  O         22.4880   63.3210   21.7180 O.2   372  TYR372     -0.2718
    137  CB        21.7420   62.4210   18.7110 C.3   372  TYR372      0.0548
    138  CG        21.9910   61.1910   19.5560 C.ar  372  TYR372     -0.0200
    139  CD1       20.9250   60.4390   20.0470 C.ar  372  TYR372     -0.0009
    140  CD2       23.2870   60.8310   19.9360 C.ar  372  TYR372     -0.0009
    141  CE1       21.1400   59.3390   20.8510 C.ar  372  TYR372      0.0417
    142  CE2       23.5110   59.7400   20.7430 C.ar  372  TYR372      0.0417
    143  CZ        22.4340   58.9940   21.1960 C.ar  372  TYR372      0.1957
    144  OH        22.6470   57.9030   21.9960 O.3   372  TYR372     -0.2866
    145  N         23.4670   64.7140   20.2470 N.am  373  LEU373     -0.1980
    146  CA        24.5870   65.0040   21.1470 C.3   373  LEU373      0.1596
    147  C         24.1250   65.7930   22.3720 C.2   373  LEU373      0.2287
    148  O         24.6890   65.6490   23.4580 O.2   373  LEU373     -0.2864
    149  CB        25.7440   65.6960   20.4080 C.3   373  LEU373      0.0297
    150  CG        26.4510   64.8540   19.3320 C.3   373  LEU373      0.0022
    151  CD1       27.3090   65.7160   18.4160 C.3   373  LEU373      0.0001
    152  CD2       27.2740   63.7050   19.9340 C.3   373  LEU373      0.0001
    153  N         26.8420   57.8750   24.2770 N.3   458  ALA458     -0.1245
    154  CA        27.8220   58.3240   23.2870 C.3   458  ALA458      0.1562
    155  C         27.8230   57.4680   22.0160 C.2   458  ALA458      0.2260
    156  O         28.0360   57.9870   20.9200 O.2   458  ALA458     -0.2867
    157  CB        29.2230   58.3840   23.8970 C.3   458  ALA458      0.0290
    158  N         25.2340   55.3600   20.9570 N.3   460  VAL460     -0.1245
    159  CA        23.8890   55.2260   20.3710 C.3   460  VAL460      0.1561
    160  C         23.2580   53.8280   20.5260 C.2   460  VAL460      0.2260
    161  O         22.5660   53.3360   19.6320 O.2   460  VAL460     -0.2867
    162  CB        23.8370   55.7140   18.8790 C.3   460  VAL460      0.0252
    163  CG1       22.4100   56.0090   18.4660 C.3   460  VAL460      0.0019
    164  CG2       24.6980   56.9670   18.6750 C.3   460  VAL460      0.0019
@<TRIPOS>BOND
     1    31    30    2
     2    30    29    1
     3    29    28    1
     4    29    32    1
     5    32    33    1
     6    43    44    1
     7    43    40    1
     8    99    98    2
     9    44    46   am
    10    44    45    2
    11    39    40    1
    12    40    41    1
    13    33    34   ar
    14    33    35   ar
    15    95    94    2
    16    98   100   am
    17    98    97    1
    18    34    36   ar
    19    35    37   ar
    20    97    96    1
    21    94    93    1
    22    94   101   am
    23    41    42    2
    24    41    47   am
    25   104   103    2
    26    93    96    1
    27    93    92    1
    28   102   101    1
    29   102   103    1
    30   102   105    1
    31    36    38   ar
    32    37    38   ar
    33    47    48    1
    34   106   105    1
    35   103   107   am
    36    27    25    1
    37    23    22    2
    38   107   108    1
    39    48    51    1
    40    48    49    1
    41   110   109    2
    42    50    49    2
    43   109   108    1
    44   108   111    1
    45    49    52   am
    46    25    26    1
    47    25    24    1
    48    22    21    1
    49    24    21    1
    50    21    20    1
    51    89    88    2
    52    52    53    1
    53    52    58    1
    54    82    81    2
    55   111   112    1
    56    88    87    1
    57   113   112   ar
    58   113   115   ar
    59    53    54    1
    60    53    56    1
    61   112   114   ar
    62    58    57    1
    63   115   116   ar
    64    81    80    1
    65    81    86   am
    66   114   116   ar
    67    54    55    2
    68    56    57    1
    69    80    79    1
    70    80    83    1
    71    87    86    1
    72    87    90    1
    73     9     8    1
    74    13    12    2
    75   121   122    1
    76   121   118    1
    77     7     8    1
    78     7     6    1
    79     4     3    2
    80   122   124   ar
    81   122   123   ar
    82    85    83    1
    83   117   118    1
    84   124   126   ar
    85    17    19   ar
    86    17    15   ar
    87    90    91    1
    88    83    84    1
    89   123   125   ar
    90    59    60    1
    91    12    11    1
    92    19    18   ar
    93    11    10    1
    94    11    14    1
    95   126   127   ar
    96   118   119    1
    97   125   127   ar
    98     3    10   am
    99     3     2    1
   100     6     5    1
   101     5     2    1
   102    15    14    1
   103    15    16   ar
   104    60    63    1
   105    60    61    1
   106   128   119   am
   107   128   129    1
   108   132   129    1
   109    64    63    1
   110     2     1    1
   111   119   120    2
   112    18    16   ar
   113    68    67    2
   114   129   130    1
   115    61    62    2
   116    67    66    1
   117   130   131    2
   118    66    65    1
   119    66    69    1
   120    75    77   ar
   121    75    72   ar
   122    77    78   ar
   123    69    70    1
   124   151   150    1
   125   163   162    1
   126    72    70   ar
   127    72    74   ar
   128    78    76   ar
   129   164   162    1
   130   137   138    1
   131   137   134    1
   132    70    71   ar
   133   133   134    1
   134   162   159    1
   135   150   152    1
   136   150   149    1
   137   138   140   ar
   138   138   139   ar
   139    74    76   ar
   140    74    73   ar
   141   134   135    1
   142   161   160    2
   143   140   142   ar
   144    71    73   ar
   145   139   141   ar
   146   145   135   am
   147   145   146    1
   148   159   160    1
   149   159   158    1
   150   149   146    1
   151   135   136    2
   152   142   143   ar
   153   141   143   ar
   154   156   155    2
   155   146   147    1
   156   143   144    1
   157   155   154    1
   158   147   148    2
   159   154   157    1
   160   154   153    1
