@<TRIPOS>MOLECULE
tmp/4n4nA02.pdb
 190 183 0 0 0
SMALL
GASTEIGER

@<TRIPOS>ATOM
      1  N         58.9460   41.9270   29.9930 N.3    56  ILE56      -0.1231
      2  CA        59.9950   42.2020   29.0010 C.3    56  ILE56       0.1692
      3  C         59.4000   42.5390   27.6230 C.2    56  ILE56       0.2592
      4  O         60.0310   43.2330   26.8280 O.2    56  ILE56      -0.2718
      5  CB        61.0480   41.0580   28.8890 C.3    56  ILE56       0.0266
      6  CG1       60.4440   39.7990   28.2570 C.3    56  ILE56       0.0019
      7  CG2       61.6850   40.7620   30.2590 C.3    56  ILE56       0.0020
      8  CD1       61.4780   38.7740   27.7810 C.3    56  ILE56       0.0001
      9  N         58.1870   42.0450   27.3590 N.am   57  TYR57      -0.1976
     10  CA        57.4610   42.3580   26.1240 C.3    57  TYR57       0.1639
     11  C         56.5320   43.5660   26.2920 C.2    57  TYR57       0.2290
     12  O         56.2080   44.2390   25.3150 O.2    57  TYR57      -0.2864
     13  CB        56.6650   41.1400   25.6340 C.3    57  TYR57       0.0560
     14  CG        57.5070   39.8950   25.4610 C.ar   57  TYR57      -0.0198
     15  CD1       58.3220   39.7300   24.3410 C.ar   57  TYR57      -0.0009
     16  CD2       57.4970   38.8880   26.4240 C.ar   57  TYR57      -0.0009
     17  CE1       59.1070   38.5940   24.1870 C.ar   57  TYR57       0.0417
     18  CE2       58.2790   37.7470   26.2780 C.ar   57  TYR57       0.0417
     19  CZ        59.0810   37.6080   25.1570 C.ar   57  TYR57       0.1957
     20  OH        59.8550   36.4820   25.0090 O.3    57  TYR57      -0.2866
     21  N         63.7240   44.5990   28.6420 N.3    64  TYR64      -0.1227
     22  CA        64.1330   43.5760   27.6760 C.3    64  TYR64       0.1736
     23  C         65.6380   43.3360   27.5500 C.2    64  TYR64       0.2595
     24  O         66.4190   44.2640   27.3370 O.2    64  TYR64      -0.2718
     25  CB        63.5340   43.8110   26.2820 C.3    64  TYR64       0.0548
     26  CG        63.7690   42.6310   25.3680 C.ar   64  TYR64      -0.0200
     27  CD1       62.9570   41.5010   25.4430 C.ar   64  TYR64      -0.0009
     28  CD2       64.8330   42.6230   24.4570 C.ar   64  TYR64      -0.0009
     29  CE1       63.1790   40.4070   24.6240 C.ar   64  TYR64       0.0417
     30  CE2       65.0630   41.5250   23.6330 C.ar   64  TYR64       0.0417
     31  CZ        64.2310   40.4240   23.7230 C.ar   64  TYR64       0.1957
     32  OH        64.4440   39.3310   22.9150 O.3    64  TYR64      -0.2866
     33  N         66.0130   42.0670   27.6790 N.am   65  LYS65      -0.1980
     34  CA        67.3340   41.5700   27.3050 C.3    65  LYS65       0.1596
     35  C         67.1210   40.4150   26.3270 C.2    65  LYS65       0.2287
     36  O         66.1640   39.6560   26.4830 O.2    65  LYS65      -0.2864
     37  CB        68.0930   41.0680   28.5380 C.3    65  LYS65       0.0298
     38  CG        68.4820   42.1490   29.5480 C.3    65  LYS65       0.0038
     39  CD        69.6710   42.9580   29.0610 C.3    65  LYS65       0.0206
     40  CE        70.3530   43.6950   30.2020 C.3    65  LYS65       0.1093
     41  NZ        71.6780   44.2310   29.7680 N.3    65  LYS65      -0.1314
     42  N         67.5050   36.7210   24.4750 N.3    67  PRO67      -0.2116
     43  CA        67.6400   35.4010   25.0950 C.3    67  PRO67       0.1372
     44  C         69.0860   34.9100   25.0670 C.2    67  PRO67       0.2244
     45  O         69.8640   35.3280   24.2050 O.2    67  PRO67      -0.2868
     46  CB        66.7490   34.5040   24.2270 C.3    67  PRO67       0.0268
     47  CG        66.6040   35.2170   22.9400 C.3    67  PRO67       0.0207
     48  CD        66.6980   36.6750   23.2400 C.3    67  PRO67       0.0892
     49  N         69.8970   31.8230   24.5690 N.3    69  SER69      -0.1203
     50  CA        69.9200   30.7780   23.5540 C.3    69  SER69       0.2005
     51  C         68.9230   31.1340   22.4510 C.2    69  SER69       0.2460
     52  O         67.8100   31.5650   22.7550 O.2    69  SER69      -0.2732
     53  CB        69.5760   29.4240   24.1810 C.3    69  SER69       0.2103
     54  OG        69.6210   28.3860   23.2180 O.3    69  SER69      -0.2182
     55  N         69.3090   30.9590   21.1690 N.am   70  PRO70      -0.2728
     56  CA        70.5600   30.3890   20.6470 C.3    70  PRO70       0.1401
     57  C         71.7800   31.3050   20.7780 C.2    70  PRO70       0.2269
     58  O         71.6500   32.5310   20.6880 O.2    70  PRO70      -0.2865
     59  CB        70.2450   30.1680   19.1650 C.3    70  PRO70       0.0296
     60  CG        69.2520   31.2380   18.8370 C.3    70  PRO70       0.0237
     61  CD        68.4060   31.3790   20.0770 C.3    70  PRO70       0.0939
     62  N         74.1820   32.2880   18.7630 N.3    72  GLU72      -0.1231
     63  CA        74.5700   32.3890   17.3580 C.3    72  GLU72       0.1699
     64  C         74.6150   33.8210   16.8480 C.2    72  GLU72       0.2592
     65  O         73.9620   34.7110   17.3930 O.2    72  GLU72      -0.2718
     66  CB        73.6200   31.5730   16.4720 C.3    72  GLU72       0.0402
     67  CG        74.0540   30.1290   16.2230 C.3    72  GLU72       0.1161
     68  CD        75.2390   29.9970   15.2640 C.2    72  GLU72       0.3649
     69  OE1       75.7570   31.0270   14.7750 O.co2  72  GLU72      -0.2457
     70  OE2       75.6570   28.8470   15.0050 O.co2  72  GLU72      -0.2457
     71  N         75.4020   34.0280   15.7980 N.am   73  VAL73      -0.1966
     72  CA        75.3920   35.2760   15.0470 C.3    73  VAL73       0.1727
     73  C         74.7170   35.0150   13.7060 C.2    73  VAL73       0.2616
     74  O         74.8780   33.9420   13.1200 O.2    73  VAL73      -0.2715
     75  CB        76.8100   35.8840   14.8620 C.3    73  VAL73       0.0290
     76  CG1       77.3720   36.3540   16.2060 C.3    73  VAL73       0.0023
     77  CG2       77.7560   34.8930   14.1980 C.3    73  VAL73       0.0023
     78  N         73.9470   35.9880   13.2350 N.am   74  ALA74      -0.1977
     79  CA        73.0820   35.7710   12.0860 C.3    74  ALA74       0.1597
     80  C         73.0060   36.9920   11.1960 C.2    74  ALA74       0.2287
     81  O         72.9810   38.1260   11.6760 O.2    74  ALA74      -0.2864
     82  CB        71.6770   35.3660   12.5510 C.3    74  ALA74       0.0319
     83  N         69.4420   34.7200    7.4980 N.3    78  ASP78      -0.1225
     84  CA        69.4500   33.6900    8.5380 C.3    78  ASP78       0.1805
     85  C         68.2720   33.8550    9.5040 C.2    78  ASP78       0.2598
     86  O         67.7800   32.8680   10.0590 O.2    78  ASP78      -0.2718
     87  CB        70.7820   33.6740    9.2970 C.3    78  ASP78       0.1424
     88  CG        71.9890   33.5810    8.3710 C.2    78  ASP78       0.3668
     89  OD1       71.9870   32.7460    7.4420 O.co2  78  ASP78      -0.2456
     90  OD2       72.9490   34.3490    8.5860 O.co2  78  ASP78      -0.2456
     91  N         67.8290   35.1010    9.6910 N.am   79  CYS79      -0.1970
     92  CA        66.6220   35.3950   10.4690 C.3    79  CYS79       0.1712
     93  C         65.4380   34.6530    9.8780 C.2    79  CYS79       0.2296
     94  O         64.7510   33.9120   10.5730 O.2    79  CYS79      -0.2864
     95  CB        66.3150   36.8950   10.4730 C.3    79  CYS79       0.0983
     96  SG        67.6930   37.9620   10.9040 S.3    79  CYS79      -0.0798
     97  N         65.9410   30.3590    9.6440 N.3    82  CYS82      -0.1221
     98  CA        65.8240   29.5840   10.8760 C.3    82  CYS82       0.1808
     99  C         64.4460   29.7520   11.5090 C.2    82  CYS82       0.2601
    100  O         63.8510   28.7780   11.9760 O.2    82  CYS82      -0.2717
    101  CB        66.9210   29.9580   11.8660 C.3    82  CYS82       0.0970
    102  SG        66.9330   28.9910   13.3950 S.3    82  CYS82      -0.0800
    103  N         63.9370   30.9810   11.5090 N.am   83  HIS83      -0.1975
    104  CA        62.6230   31.2500   12.0790 C.3    83  HIS83       0.1656
    105  C         61.4800   30.6900   11.2220 C.2    83  HIS83       0.2291
    106  O         60.3600   30.5340   11.7080 O.2    83  HIS83      -0.2864
    107  CB        62.4460   32.7420   12.3630 C.3    83  HIS83       0.0771
    108  CG        63.1030   33.1930   13.6340 C.ar   83  HIS83       0.0820
    109  ND1       62.4470   33.1960   14.8450 N.ar   83  HIS83      -0.2267
    110  CD2       64.3550   33.6490   13.8830 C.ar   83  HIS83       0.1154
    111  CE1       63.2650   33.6360   15.7850 C.ar   83  HIS83       0.1986
    112  NE2       64.4300   33.9180   15.2290 N.ar   83  HIS83      -0.2212
    113  N         61.3900   27.6630   13.2370 N.3    86  GLU86      -0.1231
    114  CA        61.2940   27.8770   14.6840 C.3    86  GLU86       0.1699
    115  C         60.0260   28.6250   15.1000 C.2    86  GLU86       0.2592
    116  O         59.3970   28.2780   16.1030 O.2    86  GLU86      -0.2718
    117  CB        62.5370   28.6030   15.2180 C.3    86  GLU86       0.0402
    118  CG        63.8280   27.7930   15.1460 C.3    86  GLU86       0.1161
    119  CD        63.9280   26.7100   16.2100 C.2    86  GLU86       0.3649
    120  OE1       63.0530   26.6410   17.0990 O.co2  86  GLU86      -0.2457
    121  OE2       64.9000   25.9270   16.1610 O.co2  86  GLU86      -0.2457
    122  N         59.6730   29.6600   14.3420 N.am   87  THR87      -0.1953
    123  CA        58.4100   30.3770   14.5280 C.3    87  THR87       0.1897
    124  C         57.7350   30.5330   13.1600 C.2    87  THR87       0.2313
    125  O         57.6130   31.6530   12.6510 O.2    87  THR87      -0.2863
    126  CB        58.6130   31.7680   15.2000 C.3    87  THR87       0.1794
    127  OG1       59.4360   32.6010   14.3730 O.3    87  THR87      -0.2208
    128  CG2       59.2430   31.6380   16.5890 C.3    87  THR87       0.0378
    129  N         63.0820   41.0430    9.5170 N.3   145  CYS145     -0.1221
    130  CA        63.3000   40.7210   10.9330 C.3   145  CYS145      0.1808
    131  C         64.4430   41.5300   11.5360 C.2   145  CYS145      0.2601
    132  O         64.2970   42.1260   12.6060 O.2   145  CYS145     -0.2717
    133  CB        63.5690   39.2240   11.1170 C.3   145  CYS145      0.0970
    134  SG        62.7020   38.1330    9.9520 S.3   145  CYS145     -0.0800
    135  N         65.5710   41.5590   10.8290 N.am  146  ILE146     -0.1979
    136  CA        66.7720   42.2620   11.2780 C.3   146  ILE146      0.1595
    137  C         66.5450   43.7770   11.4470 C.2   146  ILE146      0.2287
    138  O         67.1440   44.3990   12.3230 O.2   146  ILE146     -0.2864
    139  CB        67.9920   41.9500   10.3430 C.3   146  ILE146      0.0276
    140  CG1       69.3300   42.2580   11.0390 C.3   146  ILE146      0.0022
    141  CG2       67.8590   42.6500    8.9850 C.3   146  ILE146      0.0022
    142  CD1       70.5530   41.5980   10.3710 C.3   146  ILE146      0.0001
    143  N         64.0180   44.2430   14.5700 N.3   149  HIS149     -0.1226
    144  CA        64.5130   43.5240   15.7450 C.3   149  HIS149      0.1752
    145  C         65.9980   43.7440   16.0820 C.2   149  HIS149      0.2595
    146  O         66.4610   43.3030   17.1380 O.2   149  HIS149     -0.2718
    147  CB        64.1970   42.0220   15.6400 C.3   149  HIS149      0.0759
    148  CG        62.7390   41.6910   15.7680 C.ar  149  HIS149      0.0818
    149  ND1       62.0710   41.7400   16.9720 N.ar  149  HIS149     -0.2268
    150  CD2       61.8280   41.2830   14.8490 C.ar  149  HIS149      0.1154
    151  CE1       60.8100   41.3870   16.7880 C.ar  149  HIS149      0.1986
    152  NE2       60.6330   41.1060   15.5090 N.ar  149  HIS149     -0.2212
    153  N         66.7400   44.4190   15.2020 N.am  150  VAL150     -0.1980
    154  CA        68.1340   44.7890   15.5050 C.3   150  VAL150      0.1595
    155  C         68.4480   46.2620   15.1980 C.2   150  VAL150      0.2287
    156  O         68.7580   47.0350   16.1050 O.2   150  VAL150     -0.2864
    157  CB        69.1770   43.8550   14.8090 C.3   150  VAL150      0.0276
    158  CG1       70.5960   44.2700   15.1810 C.3   150  VAL150      0.0022
    159  CG2       68.9500   42.3970   15.1840 C.3   150  VAL150      0.0022
    160  N         74.2440   40.0690   13.1450 N.3   158  ALA158     -0.1245
    161  CA        73.7980   40.4240   14.4840 C.3   158  ALA158      0.1562
    162  C         74.0410   39.2680   15.4480 C.2   158  ALA158      0.2260
    163  O         73.9560   38.1020   15.0670 O.2   158  ALA158     -0.2867
    164  CB        72.3200   40.7980   14.4630 C.3   158  ALA158      0.0290
    165  N         72.5310   37.2560   18.1950 N.3   160  HIS160     -0.1241
    166  CA        71.2030   36.9080   18.7500 C.3   160  HIS160      0.1621
    167  C         71.1340   37.1320   20.2710 C.2   160  HIS160      0.2264
    168  O         70.0770   37.4870   20.8010 O.2   160  HIS160     -0.2867
    169  CB        70.8450   35.4480   18.4100 C.3   160  HIS160      0.0745
    170  CG        69.3750   35.1900   18.1980 C.ar  160  HIS160      0.0817
    171  ND1       68.4910   34.9890   19.2360 N.ar  160  HIS160     -0.2268
    172  CD2       68.6510   35.0440   17.0600 C.ar  160  HIS160      0.1154
    173  CE1       67.2830   34.7570   18.7470 C.ar  160  HIS160      0.1986
    174  NE2       67.3500   34.7830   17.4260 N.ar  160  HIS160     -0.2212
    175  N         69.4580   41.6000   19.6610 N.3   164  ILE164     -0.1245
    176  CA        68.0120   41.4620   19.4760 C.3   164  ILE164      0.1561
    177  C         67.2360   42.3760   20.4270 C.2   164  ILE164      0.2260
    178  O         67.5050   42.4210   21.6300 O.2   164  ILE164     -0.2867
    179  CB        67.5390   39.9890   19.6520 C.3   164  ILE164      0.0252
    180  CG1       68.1780   39.0650   18.6020 C.3   164  ILE164      0.0019
    181  CG2       66.0110   39.8850   19.6280 C.3   164  ILE164      0.0019
    182  CD1       67.7520   39.3090   17.1720 C.3   164  ILE164      0.0001
    183  N         63.0490   44.0620   21.2380 N.3   166  MET166     -0.1245
    184  CA        61.6270   44.1250   20.9320 C.3   166  MET166      0.1570
    185  C         61.3510   45.5140   20.3850 C.2   166  MET166      0.2261
    186  O         61.6780   46.5040   21.0370 O.2   166  MET166     -0.2867
    187  CB        60.7680   43.8570   22.1700 C.3   166  MET166      0.0387
    188  CG        60.7610   42.4170   22.6570 C.3   166  MET166      0.0595
    189  SD        60.2210   41.2270   21.4160 S.3   166  MET166     -0.1393
    190  CE        61.7550   40.3920   21.0340 C.3   166  MET166      0.0692
@<TRIPOS>BOND
     1    89    88   ar
     2    83    84    1
     3    88    90   ar
     4    88    87    1
     5    84    87    1
     6    84    85    1
     7   141   139    1
     8    85    91   am
     9    85    86    2
    10   129   130    1
    11    97    98    1
    12    91    92    1
    13    93    92    1
    14    93    94    2
    15   134   133    1
    16   139   140    1
    17   139   136    1
    18   142   140    1
    19    92    95    1
    20    95    96    1
    21   135   136    1
    22   135   131   am
    23    98    99    1
    24    98   101    1
    25   130   133    1
    26   130   131    1
    27    80    81    2
    28    80    79    1
    29   105   106    2
    30   105   104    1
    31   136   137    1
    32   137   138    2
    33   103    99   am
    34   103   104    1
    35    99   100    2
    36   131   132    2
    37   101   102    1
    38   104   107    1
    39    79    82    1
    40    79    78    1
    41   107   108    1
    42   125   124    2
    43    74    73    2
    44   160   161    1
    45   124   123    1
    46    78    73   am
    47   113   114    1
    48   108   110   ar
    49   108   109   ar
    50    73    72    1
    51   110   112   ar
    52    77    75    1
    53   122   123    1
    54   122   115   am
    55   127   126    1
    56   164   161    1
    57   161   162    1
    58   123   126    1
    59   143   144    1
    60   114   115    1
    61   114   117    1
    62    69    68   ar
    63   157   158    1
    64   157   159    1
    65   157   154    1
    66   109   111   ar
    67   150   152   ar
    68   150   148   ar
    69    75    72    1
    70    75    76    1
    71    70    68   ar
    72    72    71    1
    73   163   162    2
    74   115   116    2
    75   118   117    1
    76   118   119    1
    77   155   154    1
    78   155   156    2
    79   126   128    1
    80   153   154    1
    81   153   145   am
    82   112   111   ar
    83    68    67    1
    84   152   151   ar
    85   147   144    1
    86   147   148    1
    87   144   145    1
    88   148   149   ar
    89    71    64   am
    90   145   146    2
    91   121   119   ar
    92   119   120   ar
    93    67    66    1
    94    66    63    1
    95   151   149   ar
    96    64    63    1
    97    64    65    2
    98   172   174   ar
    99   172   170   ar
   100   182   180    1
   101    63    62    1
   102   174   173   ar
   103   165   166    1
   104   170   169    1
   105   170   171   ar
   106   169   166    1
   107   180   179    1
   108   173   171   ar
   109   166   167    1
   110    60    59    1
   111    60    61    1
   112    59    56    1
   113   176   179    1
   114   176   175    1
   115   176   177    1
   116   181   179    1
   117    61    55    1
   118   167   168    2
   119   185   184    1
   120   185   186    2
   121   177   178    2
   122    56    57    1
   123    56    55    1
   124    58    57    2
   125   184   183    1
   126   184   187    1
   127   190   189    1
   128    55    51   am
   129   189   188    1
   130   187   188    1
   131    51    52    2
   132    51    50    1
   133    32    31    1
   134    47    48    1
   135    47    46    1
   136    54    53    1
   137    48    42    1
   138    50    53    1
   139    50    49    1
   140    30    31   ar
   141    30    28   ar
   142    31    29   ar
   143    17    15   ar
   144    17    19   ar
   145    45    44    2
   146    46    43    1
   147    15    14   ar
   148    28    26   ar
   149    42    43    1
   150    29    27   ar
   151    20    19    1
   152    44    43    1
   153    19    18   ar
   154    12    11    2
   155    26    27   ar
   156    26    25    1
   157    14    13    1
   158    14    16   ar
   159    13    10    1
   160    10    11    1
   161    10     9    1
   162    18    16   ar
   163    25    22    1
   164    35    36    2
   165    35    34    1
   166     4     3    2
   167    34    33    1
   168    34    37    1
   169    24    23    2
   170     9     3   am
   171    23    22    1
   172    23    33   am
   173     3     2    1
   174    22    21    1
   175     8     6    1
   176     6     5    1
   177    37    38    1
   178     5     2    1
   179     5     7    1
   180     2     1    1
   181    39    38    1
   182    39    40    1
   183    41    40    1
