@<TRIPOS>MOLECULE
tmp/4n4nA09.pdb
 105 100 0 0 0
SMALL
GASTEIGER

@<TRIPOS>ATOM
      1  N         56.5380   38.2480   31.4700 N.3    54  ILE54      -0.1245
      2  CA        55.9510   38.8850   30.2830 C.3    54  ILE54       0.1561
      3  C         56.2640   40.3830   30.1570 C.2    54  ILE54       0.2260
      4  O         56.1840   40.9460   29.0570 O.2    54  ILE54      -0.2867
      5  CB        54.4240   38.6210   30.1670 C.3    54  ILE54       0.0252
      6  CG1       53.9780   38.7370   28.7060 C.3    54  ILE54       0.0019
      7  CG2       53.6230   39.5630   31.0640 C.3    54  ILE54       0.0019
      8  CD1       53.0170   37.6800   28.2850 C.3    54  ILE54       0.0001
      9  N         56.1090   43.8300   27.5280 N.3    58  MET58      -0.1245
     10  CA        55.1780   44.9300   27.8220 C.3    58  MET58       0.1570
     11  C         55.8790   46.2850   27.8880 C.2    58  MET58       0.2261
     12  O         55.3470   47.2860   27.4010 O.2    58  MET58      -0.2867
     13  CB        54.4080   44.6700   29.1260 C.3    58  MET58       0.0387
     14  CG        53.6140   43.3610   29.1670 C.3    58  MET58       0.0595
     15  SD        52.1340   43.3340   28.1250 S.3    58  MET58      -0.1393
     16  CE        52.7190   42.5280   26.6350 C.3    58  MET58       0.0692
     17  N         54.8480   30.5780   11.4670 N.3    89  VAL89      -0.1231
     18  CA        53.7410   31.4580   11.0800 C.3    89  VAL89       0.1692
     19  C         54.1580   32.9390   11.0460 C.2    89  VAL89       0.2592
     20  O         53.6490   33.7040   10.2220 O.2    89  VAL89      -0.2718
     21  CB        52.4690   31.2110   11.9520 C.3    89  VAL89       0.0266
     22  CG1       51.3240   32.1300   11.5480 C.3    89  VAL89       0.0020
     23  CG2       52.0230   29.7470   11.8440 C.3    89  VAL89       0.0020
     24  N         55.0950   33.3260   11.9140 N.am   90  TRP90      -0.1976
     25  CA        55.6520   34.6880   11.9050 C.3    90  TRP90       0.1640
     26  C         56.3290   35.0440   10.5760 C.2    90  TRP90       0.2290
     27  O         56.1770   36.1590   10.0750 O.2    90  TRP90      -0.2864
     28  CB        56.6500   34.8940   13.0490 C.3    90  TRP90       0.0576
     29  CG        56.0760   35.2320   14.4200 C.ar   90  TRP90       0.0006
     30  CD1       56.7890   35.3560   15.5860 C.ar   90  TRP90       0.0946
     31  CD2       54.7000   35.4800   14.7710 C.ar   90  TRP90       0.0152
     32  NE1       55.9520   35.6670   16.6290 N.ar   90  TRP90      -0.2442
     33  CE2       54.6680   35.7510   16.1620 C.ar   90  TRP90       0.0810
     34  CE3       53.4990   35.5080   14.0490 C.ar   90  TRP90       0.0012
     35  CZ2       53.4780   36.0370   16.8460 C.ar   90  TRP90       0.0191
     36  CZ3       52.3160   35.7920   14.7310 C.ar   90  TRP90       0.0001
     37  CH2       52.3180   36.0520   16.1180 C.ar   90  TRP90       0.0015
     38  N         48.3990   44.7910   29.9040 N.3   231  MET231     -0.1245
     39  CA        48.1800   44.3080   28.5400 C.3   231  MET231      0.1570
     40  C         47.2490   45.2030   27.7150 C.2   231  MET231      0.2261
     41  O         47.3430   45.2320   26.4840 O.2   231  MET231     -0.2867
     42  CB        47.6840   42.8570   28.5560 C.3   231  MET231      0.0387
     43  CG        48.7650   41.8520   28.9520 C.3   231  MET231      0.0595
     44  SD        48.2310   40.1340   28.9530 S.3   231  MET231     -0.1393
     45  CE        47.8760   39.8660   27.2160 C.3   231  MET231      0.0692
     46  N         49.5330   49.2150   26.7030 N.3   234  THR234     -0.1218
     47  CA        50.8800   49.0970   26.1140 C.3   234  THR234      0.1862
     48  C         51.1620   49.9620   24.8760 C.2   234  THR234      0.2287
     49  O         52.2980   49.9750   24.3820 O.2   234  THR234     -0.2866
     50  CB        51.2240   47.6330   25.7500 C.3   234  THR234      0.1770
     51  OG1       50.1780   47.0820   24.9470 O.3   234  THR234     -0.2211
     52  CG2       51.4190   46.7800   27.0010 C.3   234  THR234      0.0375
     53  N         54.5500   49.9610   22.5080 N.3   238  LYS238     -0.1245
     54  CA        54.5910   49.2460   21.2270 C.3   238  LYS238      0.1561
     55  C         53.4160   49.5960   20.3080 C.2   238  LYS238      0.2260
     56  O         52.3070   49.8800   20.7740 O.2   238  LYS238     -0.2867
     57  CB        54.7230   47.7300   21.4320 C.3   238  LYS238      0.0271
     58  CG        53.6100   47.0810   22.2400 C.3   238  LYS238      0.0035
     59  CD        53.9740   45.6420   22.5970 C.3   238  LYS238      0.0206
     60  CE        52.7980   44.8980   23.2130 C.3   238  LYS238      0.1093
     61  NZ        51.6870   44.6950   22.2410 N.3   238  LYS238     -0.1314
     62  N         51.8700   47.7280   17.9350 N.3   240  ASP240     -0.1225
     63  CA        51.2000   46.5760   17.3120 C.3   240  ASP240      0.1805
     64  C         49.8710   46.1300   17.9480 C.2   240  ASP240      0.2597
     65  O         49.4870   44.9630   17.8280 O.2   240  ASP240     -0.2718
     66  CB        52.1690   45.3850   17.2060 C.3   240  ASP240      0.1424
     67  CG        52.5440   44.8030   18.5590 C.2   240  ASP240      0.3668
     68  OD1       52.3930   45.4900   19.5910 O.co2 240  ASP240     -0.2456
     69  OD2       53.0010   43.6440   18.5890 O.co2 240  ASP240     -0.2456
     70  N         49.1640   47.0410   18.6110 N.am  241  ASN241     -0.1974
     71  CA        47.8980   46.6700   19.2640 C.3   241  ASN241      0.1688
     72  C         46.6530   46.8050   18.3830 C.2   241  ASN241      0.2292
     73  O         45.6680   46.1020   18.6000 O.2   241  ASN241     -0.2864
     74  CB        47.7070   47.4210   20.5850 C.3   241  ASN241      0.1181
     75  CG        48.6800   46.9730   21.6610 C.2   241  ASN241      0.2629
     76  OD1       49.0090   45.7900   21.7690 O.2   241  ASN241     -0.2716
     77  ND2       49.1450   47.9220   22.4690 N.am  241  ASN241     -0.0877
     78  N         48.2870   44.4780   14.2260 N.3   244  THR244     -0.1203
     79  CA        49.0980   43.4820   14.9420 C.3   244  THR244      0.1994
     80  C         50.3040   42.9610   14.1550 C.2   244  THR244      0.2618
     81  O         50.3110   42.9790   12.9260 O.2   244  THR244     -0.2717
     82  CB        48.2550   42.2490   15.3720 C.3   244  THR244      0.1784
     83  OG1       47.6470   41.6530   14.2190 O.3   244  THR244     -0.2211
     84  CG2       47.1710   42.6350   16.3890 C.3   244  THR244      0.0376
     85  N         51.3150   42.4910   14.8850 N.am  245  ARG245     -0.1965
     86  CA        52.4010   41.6870   14.3100 C.3   245  ARG245      0.1729
     87  C         51.8410   40.3340   13.8450 C.2   245  ARG245      0.2616
     88  O         50.8950   39.8300   14.4540 O.2   245  ARG245     -0.2715
     89  CB        53.5250   41.4840   15.3400 C.3   245  ARG245      0.0348
     90  CG        53.1180   40.7310   16.6090 C.3   245  ARG245      0.0492
     91  CD        54.2530   40.7090   17.6130 C.3   245  ARG245      0.2205
     92  NE        54.0220   39.8060   18.7440 N.pl3 245  ARG245     -0.0865
     93  CZ        53.3840   40.1380   19.8640 C.cat 245  ARG245      0.5346
     94  NH1       52.8830   41.3590   20.0240 N.pl3 245  ARG245      0.1354
     95  NH2       53.2430   39.2430   20.8320 N.pl3 245  ARG245      0.1354
     96  N         52.3890   39.7450   12.7760 N.am  246  HIS246     -0.1973
     97  CA        53.4850   40.3090   11.9780 C.3   246  HIS246      0.1656
     98  C         53.0450   40.7400   10.5700 C.2   246  HIS246      0.2291
     99  O         53.8830   41.0040    9.7060 O.2   246  HIS246     -0.2864
    100  CB        54.6530   39.3130   11.8990 C.3   246  HIS246      0.0771
    101  CG        55.6280   39.4280   13.0350 C.ar  246  HIS246      0.0820
    102  ND1       55.5100   38.7000   14.1990 N.ar  246  HIS246     -0.2267
    103  CD2       56.7350   40.1940   13.1820 C.ar  246  HIS246      0.1154
    104  CE1       56.5060   39.0100   15.0130 C.ar  246  HIS246      0.1986
    105  NE2       57.2680   39.9110   14.4180 N.ar  246  HIS246     -0.2212
@<TRIPOS>BOND
     1    99    98    2
     2    27    26    2
     3    20    19    2
     4    98    97    1
     5    26    25    1
     6    19    18    1
     7    19    24   am
     8    18    17    1
     9    18    21    1
    10    22    21    1
    11    23    21    1
    12   100    97    1
    13   100   101    1
    14    25    24    1
    15    25    28    1
    16    97    96    1
    17    96    87   am
    18    81    80    2
    19   101   103   ar
    20   101   102   ar
    21    28    29    1
    22   103   105   ar
    23    87    86    1
    24    87    88    2
    25    34    36   ar
    26    34    31   ar
    27    80    85   am
    28    80    79    1
    29   102   104   ar
    30    83    82    1
    31    78    79    1
    32    86    85    1
    33    86    89    1
    34   105   104   ar
    35    29    31   ar
    36    29    30   ar
    37    36    37   ar
    38    31    33   ar
    39    79    82    1
    40    89    90    1
    41    82    84    1
    42    30    32   ar
    43    37    35   ar
    44    33    32   ar
    45    33    35   ar
    46    90    91    1
    47    66    63    1
    48    66    67    1
    49    63    62    1
    50    63    64    1
    51    91    92    1
    52    65    64    2
    53    64    70   am
    54    72    73    2
    55    72    71    1
    56    67    69   ar
    57    67    68   ar
    58    70    71    1
    59    92    93    2
    60    71    74    1
    61    93    94    1
    62    93    95    1
    63    55    56    2
    64    55    54    1
    65    74    75    1
    66    54    57    1
    67    54    53    1
    68    57    58    1
    69    75    76    2
    70    75    77   am
    71    58    59    1
    72    61    60    1
    73    59    60    1
    74    49    48    2
    75    48    47    1
    76    51    50    1
    77    50    47    1
    78    50    52    1
    79    47    46    1
    80    41    40    2
    81    16    15    1
    82    45    44    1
    83    12    11    2
    84     9    10    1
    85    40    39    1
    86    10    11    1
    87    10    13    1
    88    15    14    1
    89     8     6    1
    90    39    42    1
    91    39    38    1
    92    42    43    1
    93     6     5    1
    94    43    44    1
    95     4     3    2
    96    13    14    1
    97     3     2    1
    98     5     2    1
    99     5     7    1
   100     2     1    1
