@<TRIPOS>MOLECULE
tmp/4n4nA03.pdb
 205 202 0 0 0
SMALL
GASTEIGER

@<TRIPOS>ATOM
      1  N         58.1870   42.0450   27.3590 N.3    57  TYR57      -0.1227
      2  CA        57.4610   42.3580   26.1240 C.3    57  TYR57       0.1736
      3  C         56.5320   43.5660   26.2920 C.2    57  TYR57       0.2595
      4  O         56.2080   44.2390   25.3150 O.2    57  TYR57      -0.2718
      5  CB        56.6650   41.1400   25.6340 C.3    57  TYR57       0.0548
      6  CG        57.5070   39.8950   25.4610 C.ar   57  TYR57      -0.0200
      7  CD1       58.3220   39.7300   24.3410 C.ar   57  TYR57      -0.0009
      8  CD2       57.4970   38.8880   26.4240 C.ar   57  TYR57      -0.0009
      9  CE1       59.1070   38.5940   24.1870 C.ar   57  TYR57       0.0417
     10  CE2       58.2790   37.7470   26.2780 C.ar   57  TYR57       0.0417
     11  CZ        59.0810   37.6080   25.1570 C.ar   57  TYR57       0.1957
     12  OH        59.8550   36.4820   25.0090 O.3    57  TYR57      -0.2866
     13  N         56.1090   43.8300   27.5280 N.am   58  MET58      -0.1979
     14  CA        55.1780   44.9300   27.8220 C.3    58  MET58       0.1605
     15  C         55.8790   46.2850   27.8880 C.2    58  MET58       0.2287
     16  O         55.3470   47.2860   27.4010 O.2    58  MET58      -0.2864
     17  CB        54.4080   44.6700   29.1260 C.3    58  MET58       0.0413
     18  CG        53.6140   43.3610   29.1670 C.3    58  MET58       0.0598
     19  SD        52.1340   43.3340   28.1250 S.3    58  MET58      -0.1393
     20  CE        52.7190   42.5280   26.6350 C.3    58  MET58       0.0692
     21  N         59.6550   46.9070   26.8880 N.3    60  PRO60      -0.2116
     22  CA        60.9820   46.4480   26.4540 C.3    60  PRO60       0.1372
     23  C         62.1500   47.3910   26.7800 C.2    60  PRO60       0.2244
     24  O         63.2080   46.9210   27.2040 O.2    60  PRO60      -0.2868
     25  CB        60.8190   46.2910   24.9360 C.3    60  PRO60       0.0268
     26  CG        59.3530   46.0930   24.7370 C.3    60  PRO60       0.0207
     27  CD        58.7100   46.9720   25.7560 C.3    60  PRO60       0.0892
     28  N         65.2270   34.8560    8.5810 N.3    80  VAL80      -0.1245
     29  CA        64.1000   34.2860    7.8570 C.3    80  VAL80       0.1561
     30  C         64.1820   32.7600    7.8220 C.2    80  VAL80       0.2260
     31  O         63.2120   32.0780    8.1470 O.2    80  VAL80      -0.2867
     32  CB        64.0170   34.8620    6.4190 C.3    80  VAL80       0.0252
     33  CG1       62.8130   34.3100    5.6760 C.3    80  VAL80       0.0019
     34  CG2       63.9560   36.3820    6.4600 C.3    80  VAL80       0.0019
     35  N         63.9370   30.9810   11.5090 N.3    83  HIS83      -0.1241
     36  CA        62.6230   31.2500   12.0790 C.3    83  HIS83       0.1621
     37  C         61.4800   30.6900   11.2220 C.2    83  HIS83       0.2264
     38  O         60.3600   30.5340   11.7080 O.2    83  HIS83      -0.2867
     39  CB        62.4460   32.7420   12.3630 C.3    83  HIS83       0.0745
     40  CG        63.1030   33.1930   13.6340 C.ar   83  HIS83       0.0817
     41  ND1       62.4470   33.1960   14.8450 N.ar   83  HIS83      -0.2268
     42  CD2       64.3550   33.6490   13.8830 C.ar   83  HIS83       0.1154
     43  CE1       63.2650   33.6360   15.7850 C.ar   83  HIS83       0.1986
     44  NE2       64.4300   33.9180   15.2290 N.ar   83  HIS83      -0.2212
     45  N         59.6730   29.6600   14.3420 N.3    87  THR87      -0.1218
     46  CA        58.4100   30.3770   14.5280 C.3    87  THR87       0.1862
     47  C         57.7350   30.5330   13.1600 C.2    87  THR87       0.2287
     48  O         57.6130   31.6530   12.6510 O.2    87  THR87      -0.2866
     49  CB        58.6130   31.7680   15.2000 C.3    87  THR87       0.1770
     50  OG1       59.4360   32.6010   14.3730 O.3    87  THR87      -0.2211
     51  CG2       59.2430   31.6380   16.5890 C.3    87  THR87       0.0375
     52  N         55.0950   33.3260   11.9140 N.3    90  TRP90      -0.1227
     53  CA        55.6520   34.6880   11.9050 C.3    90  TRP90       0.1737
     54  C         56.3290   35.0440   10.5760 C.2    90  TRP90       0.2595
     55  O         56.1770   36.1590   10.0750 O.2    90  TRP90      -0.2718
     56  CB        56.6500   34.8940   13.0490 C.3    90  TRP90       0.0564
     57  CG        56.0760   35.2320   14.4200 C.ar   90  TRP90       0.0003
     58  CD1       56.7890   35.3560   15.5860 C.ar   90  TRP90       0.0946
     59  CD2       54.7000   35.4800   14.7710 C.ar   90  TRP90       0.0152
     60  NE1       55.9520   35.6670   16.6290 N.ar   90  TRP90      -0.2442
     61  CE2       54.6680   35.7510   16.1620 C.ar   90  TRP90       0.0810
     62  CE3       53.4990   35.5080   14.0490 C.ar   90  TRP90       0.0012
     63  CZ2       53.4780   36.0370   16.8460 C.ar   90  TRP90       0.0191
     64  CZ3       52.3160   35.7920   14.7310 C.ar   90  TRP90       0.0001
     65  CH2       52.3180   36.0520   16.1180 C.ar   90  TRP90       0.0015
     66  N         57.0800   34.0950   10.0200 N.am   91  VAL91      -0.1980
     67  CA        57.7410   34.2790    8.7250 C.3    91  VAL91       0.1595
     68  C         56.6940   34.3090    7.6150 C.2    91  VAL91       0.2287
     69  O         56.7810   35.1050    6.6790 O.2    91  VAL91      -0.2864
     70  CB        58.7760   33.1560    8.4540 C.3    91  VAL91       0.0276
     71  CG1       59.4210   33.3210    7.0740 C.3    91  VAL91       0.0022
     72  CG2       59.8380   33.1560    9.5380 C.3    91  VAL91       0.0022
     73  N         54.7840   37.5980    7.8860 N.3    94  TRP94      -0.1241
     74  CA        55.7040   38.6280    7.4030 C.3    94  TRP94       0.1605
     75  C         55.8120   38.6380    5.8720 C.2    94  TRP94       0.2264
     76  O         55.8040   39.6990    5.2620 O.2    94  TRP94      -0.2867
     77  CB        57.0890   38.4690    8.0430 C.3    94  TRP94       0.0550
     78  CG        58.1280   39.3710    7.4410 C.ar   94  TRP94       0.0003
     79  CD1       58.3140   40.6980    7.7030 C.ar   94  TRP94       0.0946
     80  CD2       59.1110   39.0120    6.4630 C.ar   94  TRP94       0.0152
     81  NE1       59.3560   41.1870    6.9530 N.ar   94  TRP94      -0.2442
     82  CE2       59.8640   40.1740    6.1830 C.ar   94  TRP94       0.0810
     83  CE3       59.4290   37.8220    5.7950 C.ar   94  TRP94       0.0012
     84  CZ2       60.9170   40.1810    5.2610 C.ar   94  TRP94       0.0191
     85  CZ3       60.4790   37.8280    4.8810 C.ar   94  TRP94       0.0001
     86  CH2       61.2090   39.0020    4.6230 C.ar   94  TRP94       0.0015
     87  N         55.4530   45.1750    4.3620 N.3    99  HIS99      -0.1241
     88  CA        56.8470   45.3110    4.7830 C.3    99  HIS99       0.1621
     89  C         57.8220   44.4330    3.9760 C.2    99  HIS99       0.2264
     90  O         58.9770   44.8130    3.7740 O.2    99  HIS99      -0.2867
     91  CB        56.9940   45.0470    6.2920 C.3    99  HIS99       0.0745
     92  CG        56.5700   46.1960    7.1640 C.ar   99  HIS99       0.0817
     93  ND1       55.9030   46.0160    8.3580 N.ar   99  HIS99      -0.2268
     94  CD2       56.7200   47.5350    7.0190 C.ar   99  HIS99       0.1154
     95  CE1       55.6640   47.1940    8.9100 C.ar   99  HIS99       0.1986
     96  NE2       56.1470   48.1350    8.1170 N.ar   99  HIS99      -0.2212
     97  N         61.4270   45.7000    4.8410 N.3   143  VAL143     -0.1231
     98  CA        61.4070   45.8200    6.2890 C.3   143  VAL143      0.1692
     99  C         61.3170   44.3920    6.8100 C.2   143  VAL143      0.2593
    100  O         60.2320   43.8090    6.8550 O.2   143  VAL143     -0.2718
    101  CB        60.2200   46.6700    6.7890 C.3   143  VAL143      0.0266
    102  CG1       60.4090   47.0490    8.2480 C.3   143  VAL143      0.0020
    103  CG2       60.0470   47.9130    5.9250 C.3   143  VAL143      0.0020
    104  N         62.4730   43.8350    7.1700 N.am  144  GLY144     -0.1942
    105  CA        62.5820   42.4450    7.6120 C.3   144  GLY144      0.2014
    106  C         62.9000   42.2890    9.0860 C.2   144  GLY144      0.2639
    107  O         62.9870   43.2750    9.8170 O.2   144  GLY144     -0.2714
    108  N         63.0820   41.0430    9.5170 N.am  145  CYS145     -0.1967
    109  CA        63.3000   40.7210   10.9330 C.3   145  CYS145      0.1712
    110  C         64.4430   41.5300   11.5360 C.2   145  CYS145      0.2296
    111  O         64.2970   42.1260   12.6060 O.2   145  CYS145     -0.2864
    112  CB        63.5690   39.2240   11.1170 C.3   145  CYS145      0.0983
    113  SG        62.7020   38.1330    9.9520 S.3   145  CYS145     -0.0798
    114  N         63.5550   45.6550   12.2040 N.3   148  CYS148     -0.1221
    115  CA        62.7990   45.9960   13.4060 C.3   148  CYS148      0.1808
    116  C         63.4680   45.4540   14.6630 C.2   148  CYS148      0.2601
    117  O         63.4800   46.1230   15.6940 O.2   148  CYS148     -0.2717
    118  CB        61.3660   45.4610   13.3280 C.3   148  CYS148      0.0970
    119  SG        60.2790   46.2920   12.1430 S.3   148  CYS148     -0.0800
    120  N         64.0180   44.2430   14.5700 N.am  149  HIS149     -0.1975
    121  CA        64.5130   43.5240   15.7450 C.3   149  HIS149      0.1656
    122  C         65.9980   43.7440   16.0820 C.2   149  HIS149      0.2291
    123  O         66.4610   43.3030   17.1380 O.2   149  HIS149     -0.2864
    124  CB        64.1970   42.0220   15.6400 C.3   149  HIS149      0.0771
    125  CG        62.7390   41.6910   15.7680 C.ar  149  HIS149      0.0820
    126  ND1       62.0710   41.7400   16.9720 N.ar  149  HIS149     -0.2267
    127  CD2       61.8280   41.2830   14.8490 C.ar  149  HIS149      0.1154
    128  CE1       60.8100   41.3870   16.7880 C.ar  149  HIS149      0.1986
    129  NE2       60.6330   41.1060   15.5090 N.ar  149  HIS149     -0.2212
    130  N         63.0490   44.0620   21.2380 N.3   166  MET166     -0.1231
    131  CA        61.6270   44.1250   20.9320 C.3   166  MET166      0.1687
    132  C         61.3510   45.5140   20.3850 C.2   166  MET166      0.2434
    133  O         61.6780   46.5040   21.0370 O.2   166  MET166     -0.2733
    134  CB        60.7680   43.8570   22.1700 C.3   166  MET166      0.0400
    135  CG        60.7610   42.4170   22.6570 C.3   166  MET166      0.0596
    136  SD        60.2210   41.2270   21.4160 S.3   166  MET166     -0.1393
    137  CE        61.7550   40.3920   21.0340 C.3   166  MET166      0.0692
    138  N         60.7710   45.5960   19.1710 N.am  167  PRO167     -0.2729
    139  CA        60.5440   46.8930   18.5410 C.3   167  PRO167      0.1401
    140  C         59.5170   47.7110   19.3050 C.2   167  PRO167      0.2269
    141  O         58.3910   47.2520   19.5310 O.2   167  PRO167     -0.2865
    142  CB        60.0270   46.5250   17.1410 C.3   167  PRO167      0.0296
    143  CG        60.4520   45.1110   16.9380 C.3   167  PRO167      0.0237
    144  CD        60.3490   44.4930   18.2930 C.3   167  PRO167      0.0939
    145  N         59.5400   51.7580   15.3170 N.3   172  CYS172     -0.1235
    146  CA        58.6070   51.9830   14.2120 C.3   172  CYS172      0.1677
    147  C         58.7250   53.4230   13.7130 C.2   172  CYS172      0.2270
    148  O         58.7080   53.6740   12.5060 O.2   172  CYS172     -0.2867
    149  CB        57.1640   51.7150   14.6570 C.3   172  CYS172      0.0956
    150  SG        56.8580   50.1030   15.4220 S.3   172  CYS172     -0.0801
    151  N         54.5500   49.9610   22.5080 N.3   238  LYS238     -0.1231
    152  CA        54.5910   49.2460   21.2270 C.3   238  LYS238      0.1693
    153  C         53.4160   49.5960   20.3080 C.2   238  LYS238      0.2592
    154  O         52.3070   49.8800   20.7740 O.2   238  LYS238     -0.2718
    155  CB        54.7230   47.7300   21.4320 C.3   238  LYS238      0.0285
    156  CG        53.6100   47.0810   22.2400 C.3   238  LYS238      0.0035
    157  CD        53.9740   45.6420   22.5970 C.3   238  LYS238      0.0206
    158  CE        52.7980   44.8980   23.2130 C.3   238  LYS238      0.1093
    159  NZ        51.6870   44.6950   22.2410 N.3   238  LYS238     -0.1314
    160  N         53.6820   49.5590   19.0030 N.am  239  CYS239     -0.1956
    161  CA        52.7430   50.0220   17.9820 C.3   239  CYS239      0.1843
    162  C         51.9170   48.9110   17.3230 C.2   239  CYS239      0.2625
    163  O         51.3180   49.1370   16.2690 O.2   239  CYS239     -0.2714
    164  CB        53.5030   50.7980   16.8980 C.3   239  CYS239      0.0997
    165  SG        54.1560   52.4090   17.4020 S.3   239  CYS239     -0.0797
    166  N         51.8700   47.7280   17.9350 N.am  240  ASP240     -0.1971
    167  CA        51.2000   46.5760   17.3120 C.3   240  ASP240      0.1709
    168  C         49.8710   46.1300   17.9480 C.2   240  ASP240      0.2293
    169  O         49.4870   44.9630   17.8280 O.2   240  ASP240     -0.2864
    170  CB        52.1690   45.3850   17.2060 C.3   240  ASP240      0.1436
    171  CG        52.5440   44.8030   18.5590 C.2   240  ASP240      0.3671
    172  OD1       52.3930   45.4900   19.5910 O.co2 240  ASP240     -0.2456
    173  OD2       53.0010   43.6440   18.5890 O.co2 240  ASP240     -0.2456
    174  N         51.3150   42.4910   14.8850 N.3   245  ARG245     -0.1231
    175  CA        52.4010   41.6870   14.3100 C.3   245  ARG245      0.1694
    176  C         51.8410   40.3340   13.8450 C.2   245  ARG245      0.2592
    177  O         50.8950   39.8300   14.4540 O.2   245  ARG245     -0.2718
    178  CB        53.5250   41.4840   15.3400 C.3   245  ARG245      0.0321
    179  CG        53.1180   40.7310   16.6090 C.3   245  ARG245      0.0489
    180  CD        54.2530   40.7090   17.6130 C.3   245  ARG245      0.2205
    181  NE        54.0220   39.8060   18.7440 N.pl3 245  ARG245     -0.0865
    182  CZ        53.3840   40.1380   19.8640 C.cat 245  ARG245      0.5346
    183  NH1       52.8830   41.3590   20.0240 N.pl3 245  ARG245      0.1354
    184  NH2       53.2430   39.2430   20.8320 N.pl3 245  ARG245      0.1354
    185  N         52.3890   39.7450   12.7760 N.am  246  HIS246     -0.1976
    186  CA        53.4850   40.3090   11.9780 C.3   246  HIS246      0.1656
    187  C         53.0450   40.7400   10.5700 C.2   246  HIS246      0.2291
    188  O         53.8830   41.0040    9.7060 O.2   246  HIS246     -0.2864
    189  CB        54.6530   39.3130   11.8990 C.3   246  HIS246      0.0771
    190  CG        55.6280   39.4280   13.0350 C.ar  246  HIS246      0.0820
    191  ND1       55.5100   38.7000   14.1990 N.ar  246  HIS246     -0.2267
    192  CD2       56.7350   40.1940   13.1820 C.ar  246  HIS246      0.1154
    193  CE1       56.5060   39.0100   15.0130 C.ar  246  HIS246      0.1986
    194  NE2       57.2680   39.9110   14.4180 N.ar  246  HIS246     -0.2212
    195  N         51.0300   43.4480   10.1620 N.3   248  PHE248     -0.1241
    196  CA        50.9270   44.9090   10.2580 C.3   248  PHE248      0.1605
    197  C         50.0290   45.4940    9.1630 C.2   248  PHE248      0.2264
    198  O         50.4700   46.2640    8.3080 O.2   248  PHE248     -0.2867
    199  CB        52.3220   45.5550   10.2790 C.3   248  PHE248      0.0534
    200  CG        53.1460   45.1660   11.4800 C.ar  248  PHE248     -0.0203
    201  CD1       52.8760   45.7140   12.7330 C.ar  248  PHE248     -0.0042
    202  CD2       54.1790   44.2470   11.3610 C.ar  248  PHE248     -0.0042
    203  CE1       53.6270   45.3540   13.8520 C.ar  248  PHE248     -0.0003
    204  CE2       54.9400   43.8830   12.4740 C.ar  248  PHE248     -0.0003
    205  CZ        54.6580   44.4390   13.7230 C.ar  248  PHE248     -0.0000
@<TRIPOS>BOND
     1    90    89    2
     2    89    88    1
     3    87    88    1
     4    86    85   ar
     5    86    84   ar
     6    88    91    1
     7    97    98    1
     8    85    83   ar
     9    84    82   ar
    10    76    75    2
    11    33    32    1
    12    83    80   ar
    13    75    74    1
    14   103   101    1
    15    82    80   ar
    16    82    81   ar
    17    98   101    1
    18    98    99    1
    19    91    92    1
    20    32    34    1
    21    32    29    1
    22    80    78   ar
    23    69    68    2
    24   101   102    1
    25    99   100    2
    26    99   104   am
    27    81    79   ar
    28    94    92   ar
    29    94    96   ar
    30    71    70    1
    31    92    93   ar
    32   104   105    1
    33    74    73    1
    34    74    77    1
    35    78    79   ar
    36    78    77    1
    37   105   106    1
    38    68    67    1
    39    30    29    1
    40    30    31    2
    41    29    28    1
    42    96    95   ar
    43   198   197    2
    44    93    95   ar
    45    70    67    1
    46    70    72    1
    47    67    66    1
    48   106   108   am
    49   106   107    2
    50   197   196    1
    51   108   109    1
    52   188   187    2
    53   113   112    1
    54    66    54   am
    55    55    54    2
    56   195   196    1
    57   196   199    1
    58   199   200    1
    59   187   186    1
    60    54    53    1
    61   109   112    1
    62   109   110    1
    63    37    38    2
    64    37    36    1
    65   202   200   ar
    66   202   204   ar
    67   200   201   ar
    68    35    36    1
    69   110   111    2
    70   189   186    1
    71   189   190    1
    72    53    52    1
    73    53    56    1
    74   186   185    1
    75    36    39    1
    76   119   118    1
    77   114   115    1
    78    39    40    1
    79   204   205   ar
    80   148   147    2
    81    48    47    2
    82   201   203   ar
    83   185   176   am
    84   190   192   ar
    85   190   191   ar
    86    56    57    1
    87    47    46    1
    88   192   194   ar
    89   118   115    1
    90   115   116    1
    91    40    42   ar
    92    40    41   ar
    93   147   146    1
    94   205   203   ar
    95   176   175    1
    96   176   177    2
    97    42    44   ar
    98    62    64   ar
    99    62    59   ar
   100   191   193   ar
   101   146   149    1
   102   146   145    1
   103   175   174    1
   104   175   178    1
   105    45    46    1
   106    50    49    1
   107   194   193   ar
   108    57    59   ar
   109    57    58   ar
   110    46    49    1
   111   120   116   am
   112   120   121    1
   113   149   150    1
   114   116   117    2
   115    64    65   ar
   116    59    61   ar
   117    41    43   ar
   118   127   129   ar
   119   127   125   ar
   120    49    51    1
   121    44    43   ar
   122   178   179    1
   123   129   128   ar
   124    58    60   ar
   125   124   121    1
   126   124   125    1
   127   121   122    1
   128   125   126   ar
   129   122   123    2
   130    65    63   ar
   131    61    60   ar
   132    61    63   ar
   133   163   162    2
   134   179   180    1
   135   128   126   ar
   136   164   165    1
   137   164   161    1
   138   143   142    1
   139   143   144    1
   140   142   139    1
   141   170   167    1
   142   170   171    1
   143   167   166    1
   144   167   168    1
   145   162   166   am
   146   162   161    1
   147   180   181    1
   148   169   168    2
   149   161   160    1
   150   144   138    1
   151   139   138    1
   152   139   140    1
   153   171   173   ar
   154   171   172   ar
   155   181   182    2
   156   160   153   am
   157   138   132   am
   158   140   141    2
   159   182   183    1
   160   182   184    1
   161   153   154    2
   162   153   152    1
   163   132   131    1
   164   132   133    2
   165   131   130    1
   166   131   134    1
   167   137   136    1
   168   152   155    1
   169   152   151    1
   170   136   135    1
   171   155   156    1
   172   134   135    1
   173   156   157    1
   174   159   158    1
   175   157   158    1
   176     9     7   ar
   177     9    11   ar
   178     7     6   ar
   179    26    25    1
   180    26    27    1
   181    25    22    1
   182    12    11    1
   183    11    10   ar
   184     4     3    2
   185     6     5    1
   186     6     8   ar
   187     5     2    1
   188    27    21    1
   189     2     3    1
   190     2     1    1
   191    10     8   ar
   192     3    13   am
   193    22    23    1
   194    22    21    1
   195    20    19    1
   196    23    24    2
   197    16    15    2
   198    13    14    1
   199    14    15    1
   200    14    17    1
   201    19    18    1
   202    17    18    1
