@<TRIPOS>MOLECULE
tmp/4n4oE01.pdb
 206 203 0 0 0
SMALL
GASTEIGER

@<TRIPOS>ATOM
      1  N         -3.5600   41.9050   26.3410 N.3   197  TRP197     -0.1241
      2  CA        -2.9310   43.1620   25.9550 C.3   197  TRP197      0.1605
      3  C         -3.9920   44.0290   25.2710 C.2   197  TRP197      0.2264
      4  O         -5.0210   43.5070   24.8310 O.2   197  TRP197     -0.2867
      5  CB        -1.7800   42.9120   24.9780 C.3   197  TRP197      0.0550
      6  CG        -0.6330   42.1190   25.5230 C.ar  197  TRP197      0.0003
      7  CD1       -0.5180   40.7580   25.5550 C.ar  197  TRP197      0.0946
      8  CD2        0.5760   42.6370   26.0900 C.ar  197  TRP197      0.0152
      9  NE1        0.6820   40.3960   26.1180 N.ar  197  TRP197     -0.2442
     10  CE2        1.3740   41.5300   26.4550 C.ar  197  TRP197      0.0810
     11  CE3        1.0590   43.9300   26.3330 C.ar  197  TRP197      0.0012
     12  CZ2        2.6330   41.6750   27.0480 C.ar  197  TRP197      0.0191
     13  CZ3        2.3100   44.0740   26.9260 C.ar  197  TRP197      0.0001
     14  CH2        3.0830   42.9520   27.2750 C.ar  197  TRP197      0.0015
     15  N         -1.8460   45.0790   20.0160 N.3   201  ARG201     -0.1231
     16  CA        -0.5750   45.1250   20.7400 C.3   201  ARG201      0.1679
     17  C         -0.2590   43.7700   21.3910 C.2   201  ARG201      0.2434
     18  O         -1.1770   43.0600   21.8090 O.2   201  ARG201     -0.2733
     19  CB        -0.5990   46.2420   21.7910 C.3   201  ARG201      0.0321
     20  CG        -0.4650   47.6510   21.2100 C.3   201  ARG201      0.0489
     21  CD        -0.9150   48.7270   22.1860 C.3   201  ARG201      0.2205
     22  NE        -0.0880   48.7670   23.3910 N.pl3 201  ARG201     -0.0865
     23  CZ        -0.2950   49.5730   24.4300 C.cat 201  ARG201      0.5346
     24  NH1       -1.3100   50.4300   24.4360 N.pl3 201  ARG201      0.1354
     25  NH2        0.5210   49.5200   25.4720 N.pl3 201  ARG201      0.1354
     26  N          1.0370   43.3940   21.4650 N.am  202  PRO202     -0.2729
     27  CA         2.2210   44.0940   20.9560 C.3   202  PRO202      0.1401
     28  C          2.3630   43.9890   19.4410 C.2   202  PRO202      0.2269
     29  O          2.0510   42.9470   18.8580 O.2   202  PRO202     -0.2865
     30  CB         3.3890   43.3650   21.6370 C.3   202  PRO202      0.0296
     31  CG         2.7740   42.5120   22.7030 C.3   202  PRO202      0.0237
     32  CD         1.4180   42.1750   22.1990 C.3   202  PRO202      0.0939
     33  N          2.4540   52.6350   22.3740 N.3   210  ALA210     -0.1231
     34  CA         2.7550   51.8910   23.5990 C.3   210  ALA210      0.1694
     35  C          3.7960   52.6140   24.4530 C.2   210  ALA210      0.2592
     36  O          3.6690   52.6800   25.6760 O.2   210  ALA210     -0.2718
     37  CB         3.2240   50.4860   23.2640 C.3   210  ALA210      0.0304
     38  N          4.8130   53.1560   23.7880 N.am  211  ASN211     -0.1974
     39  CA         5.8780   53.9220   24.4310 C.3   211  ASN211      0.1688
     40  C          5.3380   55.1550   25.1610 C.2   211  ASN211      0.2292
     41  O          5.6000   55.3440   26.3500 O.2   211  ASN211     -0.2864
     42  CB         6.9250   54.3220   23.3830 C.3   211  ASN211      0.1181
     43  CG         8.1010   55.0780   23.9720 C.2   211  ASN211      0.2629
     44  OD1        8.8230   54.5620   24.8210 O.2   211  ASN211     -0.2716
     45  ND2        8.3100   56.3020   23.5020 N.am  211  ASN211     -0.0877
     46  N          2.9400   54.7000   28.2000 N.3   214  THR214     -0.1218
     47  CA         3.5380   54.1820   29.4230 C.3   214  THR214      0.1862
     48  C          3.7430   55.3540   30.3790 C.2   214  THR214      0.2287
     49  O          4.3570   56.3610   30.0150 O.2   214  THR214     -0.2866
     50  CB         4.8730   53.4650   29.1480 C.3   214  THR214      0.1770
     51  OG1        4.6790   52.4630   28.1430 O.3   214  THR214     -0.2211
     52  CG2        5.4060   52.8030   30.4120 C.3   214  THR214      0.0375
     53  N          7.3630   56.8850   31.1850 N.3   217  TRP217     -0.1241
     54  CA         7.9220   57.5670   30.0240 C.3   217  TRP217      0.1605
     55  C          7.4490   59.0200   29.9520 C.2   217  TRP217      0.2264
     56  O          8.2260   59.9140   29.6220 O.2   217  TRP217     -0.2867
     57  CB         7.5810   56.8200   28.7340 C.3   217  TRP217      0.0550
     58  CG         8.2160   57.4350   27.5310 C.ar  217  TRP217      0.0003
     59  CD1        9.4020   57.0810   26.9610 C.ar  217  TRP217      0.0946
     60  CD2        7.7070   58.5290   26.7580 C.ar  217  TRP217      0.0152
     61  NE1        9.6660   57.8850   25.8760 N.ar  217  TRP217     -0.2442
     62  CE2        8.6410   58.7830   25.7300 C.ar  217  TRP217      0.0810
     63  CE3        6.5510   59.3190   26.8320 C.ar  217  TRP217      0.0012
     64  CZ2        8.4540   59.7920   24.7800 C.ar  217  TRP217      0.0191
     65  CZ3        6.3680   60.3230   25.8910 C.ar  217  TRP217      0.0001
     66  CH2        7.3150   60.5500   24.8770 C.ar  217  TRP217      0.0015
     67  N          8.4880   60.7330   34.0230 N.3   220  MET220     -0.1245
     68  CA         9.8740   60.9270   34.4660 C.3   220  MET220      0.1570
     69  C         10.4810   62.2310   33.9350 C.2   220  MET220      0.2261
     70  O         10.2140   62.6230   32.7970 O.2   220  MET220     -0.2867
     71  CB        10.7540   59.7100   34.1220 C.3   220  MET220      0.0387
     72  CG        11.0640   59.5100   32.6380 C.3   220  MET220      0.0595
     73  SD        11.8710   57.9310   32.2820 S.3   220  MET220     -0.1393
     74  CE        13.4990   58.1990   32.9850 C.3   220  MET220      0.0692
     75  N         15.3780   57.3110   24.9410 N.3   228  GLY228     -0.1210
     76  CA        16.1240   56.0960   24.6400 C.3   228  GLY228      0.1956
     77  C         15.1670   54.9530   24.3790 C.2   228  GLY228      0.2612
     78  O         15.4260   54.0890   23.5420 O.2   228  GLY228     -0.2717
     79  N         14.0550   54.9590   25.1070 N.am  229  CYS229     -0.1970
     80  CA        12.9630   54.0260   24.8700 C.3   229  CYS229      0.1712
     81  C         12.3010   54.3180   23.5280 C.2   229  CYS229      0.2296
     82  O         12.0120   53.3970   22.7620 O.2   229  CYS229     -0.2864
     83  CB        11.9360   54.1110   25.9980 C.3   229  CYS229      0.0983
     84  SG        12.6370   53.9330   27.6530 S.3   229  CYS229     -0.0798
     85  N         13.7070   52.8640   20.2210 N.3   232  CYS232     -0.1221
     86  CA        13.3860   51.4620   19.9470 C.3   232  CYS232      0.1808
     87  C         11.9130   51.2760   19.5990 C.2   232  CYS232      0.2601
     88  O         11.4940   50.1890   19.1960 O.2   232  CYS232     -0.2717
     89  CB        13.7180   50.5950   21.1530 C.3   232  CYS232      0.0970
     90  SG        15.4630   50.3690   21.4650 S.3   232  CYS232     -0.0800
     91  N         11.1400   52.3440   19.7650 N.am  233  HIS233     -0.1975
     92  CA         9.6980   52.3110   19.5730 C.3   233  HIS233      0.1656
     93  C          9.2640   53.3120   18.4910 C.2   233  HIS233      0.2291
     94  O          8.3390   54.0940   18.7050 O.2   233  HIS233     -0.2864
     95  CB         8.9920   52.6290   20.9010 C.3   233  HIS233      0.0771
     96  CG         9.0100   51.5070   21.8970 C.ar  233  HIS233      0.0820
     97  ND1        7.9130   50.7050   22.1300 N.ar  233  HIS233     -0.2267
     98  CD2        9.9780   51.0700   22.7400 C.ar  233  HIS233      0.1154
     99  CE1        8.2090   49.8150   23.0600 C.ar  233  HIS233      0.1986
    100  NE2        9.4560   50.0140   23.4500 N.ar  233  HIS233     -0.2212
    101  N         19.1330   45.8340   17.5870 N.3   261  THR261     -0.1203
    102  CA        19.2410   47.0810   18.3450 C.3   261  THR261      0.1994
    103  C         18.0510   47.2790   19.2880 C.2   261  THR261      0.2618
    104  O         18.2020   47.8390   20.3760 O.2   261  THR261     -0.2717
    105  CB        19.4350   48.3020   17.4060 C.3   261  THR261      0.1784
    106  OG1       20.6130   48.1030   16.6150 O.3   261  THR261     -0.2211
    107  CG2       19.5850   49.6030   18.1960 C.3   261  THR261      0.0376
    108  N         16.8820   46.7950   18.8730 N.am  262  CYS262     -0.1955
    109  CA        15.6750   46.8800   19.6880 C.3   262  CYS262      0.1843
    110  C         15.3930   45.5710   20.4320 C.2   262  CYS262      0.2625
    111  O         15.1580   45.5760   21.6390 O.2   262  CYS262     -0.2714
    112  CB        14.4660   47.2650   18.8310 C.3   262  CYS262      0.0997
    113  SG        14.6920   48.6990   17.7390 S.3   262  CYS262     -0.0797
    114  N         15.4240   44.4510   19.7130 N.am  263  HIS263     -0.1959
    115  CA        15.0690   43.1610   20.3020 C.3   263  HIS263      0.1787
    116  C         16.2320   42.5220   21.0640 C.2   263  HIS263      0.2621
    117  O         16.6710   41.4090   20.7580 O.2   263  HIS263     -0.2715
    118  CB        14.4760   42.2220   19.2440 C.3   263  HIS263      0.0785
    119  CG        13.1320   42.6590   18.7430 C.ar  263  HIS263      0.0821
    120  ND1       11.9640   42.4060   19.4290 N.ar  263  HIS263     -0.2267
    121  CD2       12.7740   43.3460   17.6320 C.ar  263  HIS263      0.1154
    122  CE1       10.9440   42.9130   18.7600 C.ar  263  HIS263      0.1986
    123  NE2       11.4070   43.4890   17.6650 N.ar  263  HIS263     -0.2212
    124  N         16.7130   43.2500   22.0700 N.am  264  SER264     -0.1936
    125  CA        17.8300   42.8190   22.9090 C.3   264  SER264      0.2055
    126  C         17.7500   43.4930   24.2730 C.2   264  SER264      0.2643
    127  O         17.0400   44.4840   24.4410 O.2   264  SER264     -0.2714
    128  CB        19.1590   43.1740   22.2480 C.3   264  SER264      0.2130
    129  OG        19.2900   44.5790   22.1190 O.3   264  SER264     -0.2179
    130  N         18.4840   42.9550   25.2410 N.am  265  GLY265     -0.1954
    131  CA        18.5580   43.5620   26.5650 C.3   265  GLY265      0.1869
    132  C         17.9260   42.7520   27.6800 C.2   265  GLY265      0.2309
    133  O         17.4370   41.6400   27.4580 O.2   265  GLY265     -0.2863
    134  N         15.1780   42.6990   29.4020 N.3   267  ASP267     -0.1225
    135  CA        13.7690   42.2900   29.4500 C.3   267  ASP267      0.1805
    136  C         13.2610   41.5790   28.1840 C.2   267  ASP267      0.2597
    137  O         12.0790   41.2440   28.0880 O.2   267  ASP267     -0.2718
    138  CB        12.8710   43.4790   29.8270 C.3   267  ASP267      0.1424
    139  CG        12.9190   44.6080   28.8100 C.2   267  ASP267      0.3668
    140  OD1       13.9510   44.7760   28.1230 O.co2 267  ASP267     -0.2456
    141  OD2       11.9130   45.3400   28.7090 O.co2 267  ASP267     -0.2456
    142  N         14.1650   41.3510   27.2310 N.am  268  HIS268     -0.1975
    143  CA        13.8830   40.6000   26.0000 C.3   268  HIS268      0.1656
    144  C         15.1680   40.3970   25.1960 C.2   268  HIS268      0.2291
    145  O         15.4230   41.1070   24.2210 O.2   268  HIS268     -0.2864
    146  CB        12.8120   41.2910   25.1380 C.3   268  HIS268      0.0771
    147  CG        12.9480   42.7810   25.0780 C.ar  268  HIS268      0.0820
    148  ND1       13.9970   43.4080   24.4420 N.ar  268  HIS268     -0.2267
    149  CD2       12.1630   43.7670   25.5710 C.ar  268  HIS268      0.1154
    150  CE1       13.8530   44.7160   24.5490 C.ar  268  HIS268      0.1986
    151  NE2       12.7490   44.9600   25.2310 N.ar  268  HIS268     -0.2212
    152  N         16.3230   38.6790   22.8320 N.3   270  ASN270     -0.1240
    153  CA        16.1140   37.9040   21.6060 C.3   270  ASN270      0.1653
    154  C         17.3730   37.7140   20.7680 C.2   270  ASN270      0.2266
    155  O         17.6980   36.5910   20.3840 O.2   270  ASN270     -0.2867
    156  CB        14.9850   38.4990   20.7620 C.3   270  ASN270      0.1155
    157  CG        13.6750   38.5510   21.5100 C.2   270  ASN270      0.2627
    158  OD1       13.4660   39.4230   22.3550 O.2   270  ASN270     -0.2716
    159  ND2       12.7840   37.6120   21.2120 N.am  270  ASN270     -0.0877
    160  N          3.9860   36.4320   24.0380 N.3   332  ALA332     -0.1231
    161  CA         4.2920   37.8690   23.9850 C.3   332  ALA332      0.1694
    162  C          5.3870   38.3110   24.9650 C.2   332  ALA332      0.2592
    163  O          5.2280   39.3030   25.6890 O.2   332  ALA332     -0.2718
    164  CB         3.0170   38.7170   24.1520 C.3   332  ALA332      0.0304
    165  N          6.4900   37.5590   24.9760 N.am  333  ASN333     -0.1960
    166  CA         7.6940   37.8780   25.7570 C.3   333  ASN333      0.1819
    167  C          7.5400   37.7890   27.2780 C.2   333  ASN333      0.2621
    168  O          8.2950   37.0700   27.9340 O.2   333  ASN333     -0.2715
    169  CB         8.2530   39.2520   25.3640 C.3   333  ASN333      0.1195
    170  CG         9.6330   39.5090   25.9310 C.2   333  ASN333      0.2630
    171  OD1       10.6210   38.9390   25.4720 O.2   333  ASN333     -0.2716
    172  ND2        9.7100   40.3840   26.9240 N.am  333  ASN333     -0.0877
    173  N          6.5760   38.5280   27.8240 N.am  334  TYR334     -0.1974
    174  CA         6.3560   38.6070   29.2680 C.3   334  TYR334      0.1639
    175  C          5.3170   37.5740   29.7250 C.2   334  TYR334      0.2290
    176  O          4.1160   37.7730   29.5370 O.2   334  TYR334     -0.2864
    177  CB         5.9260   40.0270   29.6680 C.3   334  TYR334      0.0560
    178  CG         6.8510   41.1240   29.1740 C.ar  334  TYR334     -0.0198
    179  CD1        8.0040   41.4670   29.8850 C.ar  334  TYR334     -0.0009
    180  CD2        6.5700   41.8240   27.9970 C.ar  334  TYR334     -0.0009
    181  CE1        8.8550   42.4750   29.4340 C.ar  334  TYR334      0.0417
    182  CE2        7.4150   42.8310   27.5380 C.ar  334  TYR334      0.0417
    183  CZ         8.5540   43.1510   28.2600 C.ar  334  TYR334      0.1957
    184  OH         9.3920   44.1470   27.8090 O.3   334  TYR334     -0.2866
    185  N          5.7340   49.0040   36.9230 N.3   424  PHE424     -0.1241
    186  CA         6.8000   49.2250   35.9370 C.3   424  PHE424      0.1605
    187  C          7.5760   50.5250   36.1690 C.2   424  PHE424      0.2264
    188  O          8.7770   50.5930   35.8960 O.2   424  PHE424     -0.2867
    189  CB         6.2390   49.1820   34.5080 C.3   424  PHE424      0.0534
    190  CG         7.2690   49.4410   33.4450 C.ar  424  PHE424     -0.0203
    191  CD1        8.1730   48.4500   33.0750 C.ar  424  PHE424     -0.0042
    192  CD2        7.3440   50.6820   32.8220 C.ar  424  PHE424     -0.0042
    193  CE1        9.1360   48.6900   32.1000 C.ar  424  PHE424     -0.0003
    194  CE2        8.3030   50.9320   31.8440 C.ar  424  PHE424     -0.0003
    195  CZ         9.2000   49.9330   31.4810 C.ar  424  PHE424     -0.0000
    196  N         12.2380   52.7330   36.0980 N.3   428  PHE428     -0.1241
    197  CA        12.7860   53.9500   35.4990 C.3   428  PHE428      0.1605
    198  C         12.7030   55.1820   36.4090 C.2   428  PHE428      0.2264
    199  O         13.1440   56.2700   36.0350 O.2   428  PHE428     -0.2867
    200  CB        12.1450   54.2090   34.1280 C.3   428  PHE428      0.0534
    201  CG        12.7160   53.3540   33.0330 C.ar  428  PHE428     -0.0203
    202  CD1       13.7270   53.8420   32.2080 C.ar  428  PHE428     -0.0042
    203  CD2       12.2680   52.0460   32.8460 C.ar  428  PHE428     -0.0042
    204  CE1       14.2750   53.0480   31.2000 C.ar  428  PHE428     -0.0003
    205  CE2       12.8110   51.2430   31.8440 C.ar  428  PHE428     -0.0003
    206  CZ        13.8160   51.7470   31.0180 C.ar  428  PHE428     -0.0000
@<TRIPOS>BOND
     1   106   105    1
     2   105   107    1
     3   105   102    1
     4   101   102    1
     5   121   123   ar
     6   121   119   ar
     7   123   122   ar
     8   113   112    1
     9   102   103    1
    10    93    94    2
    11    93    92    1
    12   119   118    1
    13   119   120   ar
    14   122   120   ar
    15   112   109    1
    16    29    28    2
    17   108   103   am
    18   108   109    1
    19    88    87    2
    20   118   115    1
    21   103   104    2
    22    28    27    1
    23    92    91    1
    24    92    95    1
    25    87    91   am
    26    87    86    1
    27   109   110    1
    28   114   115    1
    29   114   110   am
    30    86    85    1
    31    86    89    1
    32    15    16    1
    33   115   116    1
    34   155   154    2
    35   110   111    2
    36    16    17    1
    37    16    19    1
    38   117   116    2
    39   156   157    1
    40   156   153    1
    41   154   153    1
    42    95    96    1
    43    27    26    1
    44    27    30    1
    45   116   124   am
    46    89    90    1
    47    20    19    1
    48    20    21    1
    49   159   157   am
    50    17    26   am
    51    17    18    2
    52    26    32    1
    53   157   158    2
    54   153   152    1
    55    30    31    1
    56    96    97   ar
    57    96    98   ar
    58   124   125    1
    59   129   128    1
    60    97    99   ar
    61    21    22    1
    62    32    31    1
    63   128   125    1
    64    33    34    1
    65    98   100   ar
    66    82    81    2
    67   125   126    1
    68    99   100   ar
    69    37    34    1
    70    42    43    1
    71    42    39    1
    72    22    23    2
    73    45    43   am
    74    81    80    1
    75    78    77    2
    76    34    35    1
    77    38    39    1
    78    38    35   am
    79    43    44    2
    80   161   160    1
    81   161   164    1
    82   161   162    1
    83   145   144    2
    84   126   127    2
    85   126   130   am
    86    77    76    1
    87    77    79   am
    88    23    24    1
    89    23    25    1
    90    39    40    1
    91   148   150   ar
    92   148   147   ar
    93    35    36    2
    94   150   151   ar
    95    76    75    1
    96    64    66   ar
    97    64    62   ar
    98     4     3    2
    99    80    79    1
   100    80    83    1
   101    66    65   ar
   102   162   165   am
   103   162   163    2
   104   165   166    1
   105     5     6    1
   106     5     2    1
   107   147   146    1
   108   147   149   ar
   109   146   143    1
   110    40    41    2
   111   144   143    1
   112   151   149   ar
   113   130   131    1
   114     3     2    1
   115   169   166    1
   116   169   170    1
   117   171   170    2
   118     6     7   ar
   119     6     8   ar
   120     7     9   ar
   121    62    61   ar
   122    62    60   ar
   123   166   167    1
   124    61    59   ar
   125    65    63   ar
   126   170   172   am
   127     2     1    1
   128    83    84    1
   129   143   142    1
   130     8    11   ar
   131     8    10   ar
   132     9    10   ar
   133    11    13   ar
   134    10    12   ar
   135   131   132    1
   136    60    63   ar
   137    60    58   ar
   138    13    14   ar
   139    59    58   ar
   140    12    14   ar
   141   142   136   am
   142   167   173   am
   143   167   168    2
   144   133   132    2
   145    58    57    1
   146   182   180   ar
   147   182   183   ar
   148   184   183    1
   149   173   174    1
   150   180   178   ar
   151   137   136    2
   152   140   139   ar
   153    51    50    1
   154   136   135    1
   155    46    47    1
   156   183   181   ar
   157   141   139   ar
   158    57    54    1
   159   139   138    1
   160    50    47    1
   161    50    52    1
   162   178   177    1
   163   178   179   ar
   164   174   177    1
   165   174   175    1
   166   134   135    1
   167    47    48    1
   168   181   179   ar
   169   135   138    1
   170   176   175    2
   171    56    55    2
   172    55    54    1
   173    49    48    2
   174    54    53    1
   175   206   204   ar
   176   206   205   ar
   177   204   202   ar
   178   195   194   ar
   179   195   193   ar
   180   205   203   ar
   181   194   192   ar
   182   193   191   ar
   183   202   201   ar
   184    73    72    1
   185    73    74    1
   186    72    71    1
   187    70    69    2
   188   192   190   ar
   189   203   201   ar
   190   201   200    1
   191   191   190   ar
   192   190   189    1
   193    69    68    1
   194    67    68    1
   195    71    68    1
   196   200   197    1
   197   189   186    1
   198   197   196    1
   199   197   198    1
   200   188   187    2
   201   186   187    1
   202   186   185    1
   203   199   198    2
