@<TRIPOS>MOLECULE
tmp/4n4oC07.pdb
 154 152 0 0 0
SMALL
GASTEIGER

@<TRIPOS>ATOM
      1  N         42.5750   11.0370   40.7010 N.3   195  GLY195     -0.1210
      2  CA        41.1150   10.9590   40.6120 C.3   195  GLY195      0.1956
      3  C         40.3890   12.2840   40.7830 C.2   195  GLY195      0.2612
      4  O         39.2710   12.3180   41.3060 O.2   195  GLY195     -0.2717
      5  N         41.0280   13.3690   40.3390 N.am  196  GLN196     -0.1965
      6  CA        40.4710   14.7220   40.4250 C.3   196  GLN196      0.1733
      7  C         39.0840   14.7990   39.7910 C.2   196  GLN196      0.2616
      8  O         38.1780   15.4430   40.3240 O.2   196  GLN196     -0.2715
      9  CB        41.4120   15.7310   39.7610 C.3   196  GLN196      0.0408
     10  CG        42.6160   16.1410   40.6100 C.3   196  GLN196      0.0908
     11  CD        43.8040   15.1920   40.5050 C.2   196  GLN196      0.2608
     12  OE1       43.7340   14.1420   39.8650 O.2   196  GLN196     -0.2717
     13  NE2       44.9090   15.5670   41.1410 N.am  196  GLN196     -0.0878
     14  N         38.9430   14.1410   38.6450 N.am  197  TRP197     -0.1960
     15  CA        37.6540   13.9200   38.0030 C.3   197  TRP197      0.1756
     16  C         37.4880   12.4140   37.7890 C.2   197  TRP197      0.2461
     17  O         38.4810   11.6780   37.8280 O.2   197  TRP197     -0.2730
     18  CB        37.5990   14.6420   36.6580 C.3   197  TRP197      0.0590
     19  CG        37.6840   16.1350   36.7430 C.ar  197  TRP197      0.0006
     20  CD1       38.8180   16.8890   36.8390 C.ar  197  TRP197      0.0946
     21  CD2       36.5900   17.0590   36.7180 C.ar  197  TRP197      0.0152
     22  NE1       38.4990   18.2230   36.8830 N.ar  197  TRP197     -0.2442
     23  CE2       37.1380   18.3570   36.8100 C.ar  197  TRP197      0.0810
     24  CE3       35.1990   16.9160   36.6320 C.ar  197  TRP197      0.0012
     25  CZ2       36.3430   19.5080   36.8160 C.ar  197  TRP197      0.0191
     26  CZ3       34.4110   18.0590   36.6430 C.ar  197  TRP197      0.0001
     27  CH2       34.9860   19.3390   36.7330 C.ar  197  TRP197      0.0015
     28  N         36.2410   11.9420   37.5730 N.am  198  PRO198     -0.2727
     29  CA        36.0590   10.5280   37.2340 C.3   198  PRO198      0.1402
     30  C         36.7840   10.1620   35.9380 C.2   198  PRO198      0.2269
     31  O         36.9140   11.0040   35.0420 O.2   198  PRO198     -0.2865
     32  CB        34.5440   10.4030   37.0510 C.3   198  PRO198      0.0296
     33  CG        33.9780   11.4980   37.8780 C.3   198  PRO198      0.0237
     34  CD        34.9460   12.6310   37.7360 C.3   198  PRO198      0.0939
     35  N         36.7140   11.7240   32.1980 N.3   201  ARG201     -0.1245
     36  CA        36.0550   13.0260   32.2750 C.3   201  ARG201      0.1563
     37  C         37.0100   14.1280   32.7540 C.2   201  ARG201      0.2260
     38  O         37.9540   13.8460   33.5010 O.2   201  ARG201     -0.2867
     39  CB        34.8230   12.9390   33.1800 C.3   201  ARG201      0.0307
     40  CG        33.6250   12.2500   32.5280 C.3   201  ARG201      0.0489
     41  CD        32.6530   11.6940   33.5610 C.3   201  ARG201      0.2205
     42  NE        32.0510   12.7410   34.3820 N.pl3 201  ARG201     -0.0865
     43  CZ        31.2250   12.5240   35.4020 C.cat 201  ARG201      0.5346
     44  NH1       30.8880   11.2870   35.7480 N.pl3 201  ARG201      0.1354
     45  NH2       30.7360   13.5510   36.0820 N.pl3 201  ARG201      0.1354
     46  N         24.5000   13.7450   37.3550 N.3   214  THR214     -0.1218
     47  CA        24.3350   14.8990   38.2360 C.3   214  THR214      0.1862
     48  C         23.0260   14.7290   39.0000 C.2   214  THR214      0.2287
     49  O         21.9660   14.5420   38.3980 O.2   214  THR214     -0.2866
     50  CB        24.3220   16.2330   37.4530 C.3   214  THR214      0.1770
     51  OG1       25.4820   16.3180   36.6160 O.3   214  THR214     -0.2211
     52  CG2       24.3090   17.4230   38.4030 C.3   214  THR214      0.0375
     53  N         37.2800   24.4050   36.0890 N.3   334  TYR334     -0.1241
     54  CA        36.9250   24.6790   37.4810 C.3   334  TYR334      0.1605
     55  C         38.1440   24.5120   38.3920 C.2   334  TYR334      0.2264
     56  O         38.4640   23.3940   38.8010 O.2   334  TYR334     -0.2867
     57  CB        35.7940   23.7510   37.9420 C.3   334  TYR334      0.0534
     58  CG        34.5280   23.7990   37.1070 C.ar  334  TYR334     -0.0201
     59  CD1       33.5880   24.8150   37.2840 C.ar  334  TYR334     -0.0009
     60  CD2       34.2580   22.8110   36.1590 C.ar  334  TYR334     -0.0009
     61  CE1       32.4170   24.8560   36.5280 C.ar  334  TYR334      0.0417
     62  CE2       33.0900   22.8420   35.3970 C.ar  334  TYR334      0.0417
     63  CZ        32.1740   23.8680   35.5890 C.ar  334  TYR334      0.1957
     64  OH        31.0160   23.9080   34.8420 O.3   334  TYR334     -0.2866
     65  N         38.7290   25.1480   41.4250 N.3   336  PHE336     -0.1227
     66  CA        38.4450   24.8740   42.8340 C.3   336  PHE336      0.1736
     67  C         38.2430   23.3860   43.1330 C.2   336  PHE336      0.2595
     68  O         38.0660   22.9990   44.2910 O.2   336  PHE336     -0.2718
     69  CB        37.2110   25.6690   43.2800 C.3   336  PHE336      0.0547
     70  CG        35.9820   25.3940   42.4540 C.ar  336  PHE336     -0.0202
     71  CD1       35.1130   24.3600   42.7950 C.ar  336  PHE336     -0.0042
     72  CD2       35.6960   26.1660   41.3320 C.ar  336  PHE336     -0.0042
     73  CE1       33.9770   24.0990   42.0310 C.ar  336  PHE336     -0.0003
     74  CE2       34.5630   25.9100   40.5620 C.ar  336  PHE336     -0.0003
     75  CZ        33.7020   24.8780   40.9120 C.ar  336  PHE336     -0.0000
     76  N         38.2500   22.5630   42.0880 N.am  337  VAL337     -0.1966
     77  CA        38.0670   21.1190   42.2330 C.3   337  VAL337      0.1712
     78  C         39.2700   20.5320   42.9780 C.2   337  VAL337      0.2458
     79  O         40.4110   20.7600   42.5760 O.2   337  VAL337     -0.2730
     80  CB        37.8410   20.4260   40.8560 C.3   337  VAL337      0.0289
     81  CG1       37.9050   18.9040   40.9750 C.3   337  VAL337      0.0023
     82  CG2       36.5060   20.8470   40.2600 C.3   337  VAL337      0.0023
     83  N         39.0170   19.8010   44.0840 N.am  338  PRO338     -0.2727
     84  CA        40.0910   19.2420   44.9120 C.3   338  PRO338      0.1402
     85  C         41.1440   18.4810   44.1010 C.2   338  PRO338      0.2269
     86  O         40.8020   17.6730   43.2350 O.2   338  PRO338     -0.2865
     87  CB        39.3440   18.2910   45.8520 C.3   338  PRO338      0.0296
     88  CG        37.9950   18.9030   45.9890 C.3   338  PRO338      0.0237
     89  CD        37.6840   19.4920   44.6400 C.3   338  PRO338      0.0939
     90  N         38.8660   33.2360   46.4770 N.3   387  TYR387     -0.1241
     91  CA        37.6810   32.4450   46.7990 C.3   387  TYR387      0.1605
     92  C         37.8610   31.6590   48.0980 C.2   387  TYR387      0.2264
     93  O         36.9540   31.6190   48.9260 O.2   387  TYR387     -0.2867
     94  CB        37.3110   31.5000   45.6440 C.3   387  TYR387      0.0534
     95  CG        36.5070   30.2900   46.0770 C.ar  387  TYR387     -0.0201
     96  CD1       35.1780   30.4180   46.4910 C.ar  387  TYR387     -0.0009
     97  CD2       37.0810   29.0170   46.0880 C.ar  387  TYR387     -0.0009
     98  CE1       34.4460   29.3110   46.9060 C.ar  387  TYR387      0.0417
     99  CE2       36.3540   27.9020   46.4950 C.ar  387  TYR387      0.0417
    100  CZ        35.0400   28.0560   46.9010 C.ar  387  TYR387      0.1957
    101  OH        34.3180   26.9560   47.3010 O.3   387  TYR387     -0.2866
    102  N         35.4810   31.6120   51.1630 N.3   391  ASN391     -0.1240
    103  CA        34.8280   30.3450   51.4860 C.3   391  ASN391      0.1653
    104  C         35.0290   29.9620   52.9490 C.2   391  ASN391      0.2266
    105  O         34.1210   29.4270   53.5810 O.2   391  ASN391     -0.2867
    106  CB        35.3300   29.2270   50.5670 C.3   391  ASN391      0.1155
    107  CG        34.5850   27.9190   50.7740 C.2   391  ASN391      0.2627
    108  OD1       33.3580   27.8680   50.6870 O.2   391  ASN391     -0.2716
    109  ND2       35.3300   26.8520   51.0460 N.am  391  ASN391     -0.0877
    110  N         27.1350   24.3590   50.1330 N.3   422  GLY422     -0.1210
    111  CA        27.6650   24.7850   48.8350 C.3   422  GLY422      0.1956
    112  C         27.7130   23.6860   47.7900 C.2   422  GLY422      0.2612
    113  O         28.7220   23.5170   47.1020 O.2   422  GLY422     -0.2717
    114  N         26.6200   22.9360   47.6830 N.am  423  ILE423     -0.1965
    115  CA        26.5110   21.8470   46.7120 C.3   423  ILE423      0.1727
    116  C         25.9280   22.3540   45.3920 C.2   423  ILE423      0.2616
    117  O         25.1990   23.3480   45.3720 O.2   423  ILE423     -0.2715
    118  CB        25.6800   20.6530   47.2640 C.3   423  ILE423      0.0290
    119  CG1       24.3160   21.1230   47.7920 C.3   423  ILE423      0.0022
    120  CG2       26.4690   19.9130   48.3480 C.3   423  ILE423      0.0023
    121  CD1       23.3030   20.0050   48.0020 C.3   423  ILE423      0.0001
    122  N         26.2550   21.6660   44.2990 N.am  424  PHE424     -0.1974
    123  CA        25.8180   22.0670   42.9570 C.3   424  PHE424      0.1639
    124  C         24.2980   22.1770   42.8360 C.2   424  PHE424      0.2290
    125  O         23.7880   23.0580   42.1350 O.2   424  PHE424     -0.2864
    126  CB        26.3680   21.1100   41.8910 C.3   424  PHE424      0.0560
    127  CG        25.9760   21.4800   40.4860 C.ar  424  PHE424     -0.0200
    128  CD1       26.6250   22.5130   39.8170 C.ar  424  PHE424     -0.0042
    129  CD2       24.9470   20.8040   39.8370 C.ar  424  PHE424     -0.0042
    130  CE1       26.2600   22.8640   38.5230 C.ar  424  PHE424     -0.0003
    131  CE2       24.5760   21.1480   38.5420 C.ar  424  PHE424     -0.0003
    132  CZ        25.2340   22.1790   37.8860 C.ar  424  PHE424     -0.0000
    133  N         29.2790   29.9670   46.4830 N.3   443  LEU443     -0.1245
    134  CA        29.1640   28.9010   45.4940 C.3   443  LEU443      0.1561
    135  C         29.3610   29.4710   44.0900 C.2   443  LEU443      0.2260
    136  O         30.1580   28.9490   43.3110 O.2   443  LEU443     -0.2867
    137  CB        27.8060   28.1930   45.6130 C.3   443  LEU443      0.0270
    138  CG        27.4430   27.0430   44.6630 C.3   443  LEU443      0.0019
    139  CD1       28.4920   25.9350   44.6690 C.3   443  LEU443      0.0001
    140  CD2       26.0780   26.4840   45.0270 C.3   443  LEU443      0.0001
    141  N         33.0140   30.6030   43.1530 N.3   446  ALA446     -0.1231
    142  CA        33.8550   29.5490   42.6040 C.3   446  ALA446      0.1694
    143  C         33.3230   29.0360   41.2690 C.2   446  ALA446      0.2591
    144  O         34.0340   29.0540   40.2650 O.2   446  ALA446     -0.2718
    145  CB        33.9800   28.4070   43.5950 C.3   446  ALA446      0.0304
    146  N         32.0690   28.5850   41.2740 N.am  447  GLU447     -0.1979
    147  CA        31.4450   27.9320   40.1210 C.3   447  GLU447      0.1602
    148  C         31.3610   28.8390   38.8940 C.2   447  GLU447      0.2287
    149  O         31.5290   28.3780   37.7640 O.2   447  GLU447     -0.2864
    150  CB        30.0540   27.4110   40.5030 C.3   447  GLU447      0.0415
    151  CG        29.2940   26.6880   39.3890 C.3   447  GLU447      0.1163
    152  CD        29.7320   25.2430   39.1830 C.2   447  GLU447      0.3649
    153  OE1       30.4450   24.6880   40.0490 O.co2 447  GLU447     -0.2457
    154  OE2       29.3450   24.6590   38.1460 O.co2 447  GLU447     -0.2457
@<TRIPOS>BOND
     1    35    36    1
     2    36    37    1
     3    36    39    1
     4    40    39    1
     5    40    41    1
     6    37    38    2
     7    41    42    1
     8    42    43    2
     9    64    63    1
    10    31    30    2
    11    62    63   ar
    12    62    60   ar
    13    43    44    1
    14    43    45    1
    15    63    61   ar
    16    30    29    1
    17    53    54    1
    18    60    58   ar
    19    61    59   ar
    20    51    50    1
    21    24    26   ar
    22    24    21   ar
    23    26    27   ar
    24    18    19    1
    25    18    15    1
    26    21    19   ar
    27    21    23   ar
    28    27    25   ar
    29    19    20   ar
    30    23    25   ar
    31    23    22   ar
    32    20    22   ar
    33    32    29    1
    34    32    33    1
    35    58    59   ar
    36    58    57    1
    37    29    28    1
    38    46    47    1
    39    50    47    1
    40    50    52    1
    41    54    57    1
    42    54    55    1
    43    28    34    1
    44    28    16   am
    45    34    33    1
    46   149   148    2
    47    16    17    2
    48    16    15    1
    49   132   130   ar
    50   132   131   ar
    51    15    14    1
    52   154   152   ar
    53    47    48    1
    54    55    56    2
    55    49    48    2
    56   130   128   ar
    57   131   129   ar
    58    14     7   am
    59   148   147    1
    60   152   151    1
    61   152   153   ar
    62   151   150    1
    63     9     6    1
    64     9    10    1
    65     7     8    2
    66     7     6    1
    67   128   127   ar
    68   129   127   ar
    69    12    11    2
    70   147   150    1
    71   147   146    1
    72    82    80    1
    73   144   143    2
    74     5     6    1
    75     5     3   am
    76   127   126    1
    77    11    10    1
    78    11    13   am
    79    74    75   ar
    80    74    72   ar
    81     2     1    1
    82     2     3    1
    83     3     4    2
    84    80    81    1
    85    80    77    1
    86    75    73   ar
    87   143   146   am
    88   143   142    1
    89    72    70   ar
    90    65    66    1
    91   126   123    1
    92    73    71   ar
    93    76    77    1
    94    76    67   am
    95   125   124    2
    96    77    78    1
    97    70    71   ar
    98    70    69    1
    99    79    78    2
   100   142   141    1
   101   142   145    1
   102    66    67    1
   103    66    69    1
   104   124   123    1
   105   123   122    1
   106    78    83   am
   107    67    68    2
   108    86    85    2
   109   136   135    2
   110    83    89    1
   111    83    84    1
   112   135   134    1
   113    85    84    1
   114   122   116   am
   115    89    88    1
   116   138   139    1
   117   138   140    1
   118   138   137    1
   119    84    87    1
   120   117   116    2
   121   116   115    1
   122   134   137    1
   123   134   133    1
   124    94    95    1
   125    94    91    1
   126    87    88    1
   127    95    97   ar
   128    95    96   ar
   129    97    99   ar
   130    90    91    1
   131    96    98   ar
   132    99   100   ar
   133   115   118    1
   134   115   114    1
   135    91    92    1
   136   100    98   ar
   137   100   101    1
   138   113   112    2
   139   118   119    1
   140   118   120    1
   141   114   112   am
   142   112   111    1
   143   119   121    1
   144    92    93    2
   145   111   110    1
   146   106   107    1
   147   106   103    1
   148   108   107    2
   149   107   109   am
   150   102   103    1
   151   103   104    1
   152   104   105    2
