@<TRIPOS>MOLECULE
tmp/4n4oA09.pdb
 106 104 0 0 0
SMALL
GASTEIGER

@<TRIPOS>ATOM
      1  N         41.4630   68.6110   34.8400 N.3   196  GLN196     -0.1231
      2  CA        40.5460   67.4880   35.0510 C.3   196  GLN196      0.1698
      3  C         41.2940   66.1560   35.0240 C.2   196  GLN196      0.2592
      4  O         41.1200   65.3170   35.9090 O.2   196  GLN196     -0.2718
      5  CB        39.4410   67.4910   33.9880 C.3   196  GLN196      0.0381
      6  CG        38.3580   68.5550   34.1840 C.3   196  GLN196      0.0905
      7  CD        38.7210   69.9240   33.6150 C.2   196  GLN196      0.2608
      8  OE1       39.8380   70.1490   33.1470 O.2   196  GLN196     -0.2717
      9  NE2       37.7660   70.8460   33.6560 N.am  196  GLN196     -0.0878
     10  N         42.1230   65.9820   33.9980 N.am  197  TRP197     -0.1963
     11  CA        43.0270   64.8450   33.8860 C.3   197  TRP197      0.1756
     12  C         44.4630   65.3620   33.7880 C.2   197  TRP197      0.2461
     13  O         44.6760   66.5100   33.3810 O.2   197  TRP197     -0.2730
     14  CB        42.7050   64.0300   32.6330 C.3   197  TRP197      0.0590
     15  CG        41.3740   63.3540   32.6420 C.ar  197  TRP197      0.0006
     16  CD1       40.1760   63.8950   32.2740 C.ar  197  TRP197      0.0946
     17  CD2       41.1040   61.9980   33.0160 C.ar  197  TRP197      0.0152
     18  NE1       39.1750   62.9630   32.4030 N.ar  197  TRP197     -0.2442
     19  CE2       39.7160   61.7900   32.8580 C.ar  197  TRP197      0.0810
     20  CE3       41.9000   60.9390   33.4740 C.ar  197  TRP197      0.0012
     21  CZ2       39.1040   60.5650   33.1410 C.ar  197  TRP197      0.0191
     22  CZ3       41.2890   59.7240   33.7590 C.ar  197  TRP197      0.0001
     23  CH2       39.9050   59.5470   33.5890 C.ar  197  TRP197      0.0015
     24  N         45.4540   64.5250   34.1620 N.am  198  PRO198     -0.2727
     25  CA        46.8600   64.8690   33.9210 C.3   198  PRO198      0.1402
     26  C         47.1210   65.2180   32.4530 C.2   198  PRO198      0.2269
     27  O         46.5270   64.6090   31.5590 O.2   198  PRO198     -0.2865
     28  CB        47.6000   63.5860   34.3010 C.3   198  PRO198      0.0296
     29  CG        46.7390   62.9610   35.3420 C.3   198  PRO198      0.0237
     30  CD        45.3210   63.2940   34.9680 C.3   198  PRO198      0.0939
     31  N         46.6480   63.2010   28.9140 N.3   201  ARG201     -0.1245
     32  CA        45.8230   62.0470   29.2680 C.3   201  ARG201      0.1563
     33  C         44.3320   62.4020   29.3320 C.2   201  ARG201      0.2260
     34  O         43.9830   63.5360   29.6610 O.2   201  ARG201     -0.2867
     35  CB        46.2920   61.4470   30.5980 C.3   201  ARG201      0.0307
     36  CG        47.5430   60.5860   30.4870 C.3   201  ARG201      0.0489
     37  CD        48.2110   60.3930   31.8380 C.3   201  ARG201      0.2205
     38  NE        47.3660   59.6670   32.7820 N.pl3 201  ARG201     -0.0865
     39  CZ        47.6680   59.4590   34.0610 C.cat 201  ARG201      0.5346
     40  NH1       48.8020   59.9230   34.5710 N.pl3 201  ARG201      0.1354
     41  NH2       46.8280   58.7860   34.8370 N.pl3 201  ARG201      0.1354
     42  N         49.0540   54.0870   38.4300 N.3   214  THR214     -0.1218
     43  CA        47.8770   53.7200   39.2090 C.3   214  THR214      0.1862
     44  C         48.3500   52.9810   40.4560 C.2   214  THR214      0.2287
     45  O         49.0660   51.9780   40.3610 O.2   214  THR214     -0.2866
     46  CB        46.9160   52.8340   38.3940 C.3   214  THR214      0.1770
     47  OG1       46.5660   53.5050   37.1780 O.3   214  THR214     -0.2211
     48  CG2       45.6450   52.5250   39.1850 C.3   214  THR214      0.0375
     49  N         33.7210   48.9930   32.7620 N.3   267  ASP267     -0.1239
     50  CA        33.9060   50.4290   32.9960 C.3   267  ASP267      0.1674
     51  C         33.9990   51.2650   31.7120 C.2   267  ASP267      0.2266
     52  O         34.1690   52.4840   31.7740 O.2   267  ASP267     -0.2867
     53  CB        35.1130   50.6840   33.9160 C.3   267  ASP267      0.1410
     54  CG        36.4160   50.1360   33.3530 C.2   267  ASP267      0.3668
     55  OD1       36.3800   49.2050   32.5190 O.co2 267  ASP267     -0.2456
     56  OD2       37.4870   50.6390   33.7610 O.co2 267  ASP267     -0.2456
     57  N         34.5500   58.6960   31.9220 N.3   334  TYR334     -0.1241
     58  CA        34.1350   58.7580   33.3200 C.3   334  TYR334      0.1605
     59  C         33.5860   60.1470   33.6640 C.2   334  TYR334      0.2264
     60  O         34.3580   61.0780   33.9040 O.2   334  TYR334     -0.2867
     61  CB        35.3090   58.4040   34.2410 C.3   334  TYR334      0.0534
     62  CG        35.9650   57.0700   33.9480 C.ar  334  TYR334     -0.0201
     63  CD1       35.4580   55.8860   34.4880 C.ar  334  TYR334     -0.0009
     64  CD2       37.1050   56.9920   33.1440 C.ar  334  TYR334     -0.0009
     65  CE1       36.0630   54.6570   34.2290 C.ar  334  TYR334      0.0417
     66  CE2       37.7170   55.7680   32.8780 C.ar  334  TYR334      0.0417
     67  CZ        37.1900   54.6060   33.4250 C.ar  334  TYR334      0.1957
     68  OH        37.7870   53.3940   33.1660 O.3   334  TYR334     -0.2866
     69  N         32.1360   61.3260   36.2400 N.3   336  PHE336     -0.1227
     70  CA        32.2080   61.7160   37.6500 C.3   336  PHE336      0.1736
     71  C         33.4930   62.4650   38.0100 C.2   336  PHE336      0.2595
     72  O         33.5520   63.1390   39.0420 O.2   336  PHE336     -0.2718
     73  CB        32.0200   60.4970   38.5660 C.3   336  PHE336      0.0547
     74  CG        32.9890   59.3760   38.3020 C.ar  336  PHE336     -0.0202
     75  CD1       34.2250   59.3390   38.9440 C.ar  336  PHE336     -0.0042
     76  CD2       32.6630   58.3520   37.4160 C.ar  336  PHE336     -0.0042
     77  CE1       35.1200   58.3030   38.7030 C.ar  336  PHE336     -0.0003
     78  CE2       33.5490   57.3140   37.1720 C.ar  336  PHE336     -0.0003
     79  CZ        34.7810   57.2900   37.8140 C.ar  336  PHE336     -0.0000
     80  N         34.5130   62.3360   37.1640 N.am  337  VAL337     -0.1980
     81  CA        35.7910   63.0250   37.3620 C.3   337  VAL337      0.1595
     82  C         35.5480   64.5300   37.5280 C.2   337  VAL337      0.2287
     83  O         34.9380   65.1540   36.6570 O.2   337  VAL337     -0.2864
     84  CB        36.7740   62.7430   36.1960 C.3   337  VAL337      0.0276
     85  CG1       38.0310   63.5930   36.3160 C.3   337  VAL337      0.0022
     86  CG2       37.1410   61.2680   36.1540 C.3   337  VAL337      0.0022
     87  N         39.7110   53.9520   43.8360 N.3   424  PHE424     -0.1241
     88  CA        39.8880   52.9490   42.7790 C.3   424  PHE424      0.1605
     89  C         40.5020   51.6320   43.2720 C.2   424  PHE424      0.2264
     90  O         40.1450   50.5590   42.7840 O.2   424  PHE424     -0.2867
     91  CB        40.7100   53.5170   41.6180 C.3   424  PHE424      0.0534
     92  CG        40.8880   52.5540   40.4740 C.ar  424  PHE424     -0.0203
     93  CD1       39.8590   52.3380   39.5620 C.ar  424  PHE424     -0.0042
     94  CD2       42.0790   51.8540   40.3150 C.ar  424  PHE424     -0.0042
     95  CE1       40.0160   51.4430   38.5100 C.ar  424  PHE424     -0.0003
     96  CE2       42.2440   50.9590   39.2660 C.ar  424  PHE424     -0.0003
     97  CZ        41.2130   50.7540   38.3620 C.ar  424  PHE424     -0.0000
     98  N         31.8560   54.1840   38.5140 N.3   447  GLU447     -0.1245
     99  CA        32.9410   53.5860   37.7370 C.3   447  GLU447      0.1567
    100  C         32.4520   52.7000   36.5960 C.2   447  GLU447      0.2260
    101  O         33.0200   52.7210   35.5060 O.2   447  GLU447     -0.2867
    102  CB        33.8610   52.7770   38.6570 C.3   447  GLU447      0.0388
    103  CG        35.1960   52.3890   38.0380 C.3   447  GLU447      0.1160
    104  CD        36.1900   53.5390   37.9940 C.2   447  GLU447      0.3649
    105  OE1       36.0590   54.4930   38.7970 O.co2 447  GLU447     -0.2457
    106  OE2       37.1130   53.4780   37.1560 O.co2 447  GLU447     -0.2457
@<TRIPOS>BOND
     1    31    32    1
     2    32    33    1
     3    32    35    1
     4    33    34    2
     5    36    35    1
     6    36    37    1
     7    27    26    2
     8    51    52    2
     9    51    50    1
    10    37    38    1
    11    57    58    1
    12    16    18   ar
    13    16    15   ar
    14    18    19   ar
    15    26    25    1
    16    55    54   ar
    17    14    15    1
    18    14    11    1
    19    15    17   ar
    20    49    50    1
    21    38    39    2
    22    19    17   ar
    23    19    21   ar
    24    66    64   ar
    25    66    67   ar
    26    50    53    1
    27    17    20   ar
    28    21    23   ar
    29    64    62   ar
    30     8     7    2
    31    68    67    1
    32    58    59    1
    33    58    61    1
    34    54    56   ar
    35    54    53    1
    36    13    12    2
    37    67    65   ar
    38    20    22   ar
    39    23    22   ar
    40     7     9   am
    41     7     6    1
    42    59    60    2
    43    12    11    1
    44    12    24   am
    45    11    10    1
    46    25    24    1
    47    25    28    1
    48    62    61    1
    49    62    63   ar
    50     5     6    1
    51     5     2    1
    52    10     3   am
    53    39    40    1
    54    39    41    1
    55    24    30    1
    56    65    63   ar
    57    28    29    1
    58     1     2    1
    59    30    29    1
    60     3     2    1
    61     3     4    2
    62   101   100    2
    63    86    84    1
    64    84    85    1
    65    84    81    1
    66    69    70    1
    67   100    99    1
    68    83    82    2
    69   106   104   ar
    70    80    81    1
    71    80    71   am
    72    78    76   ar
    73    78    79   ar
    74    47    46    1
    75    81    82    1
    76    76    74   ar
    77    70    71    1
    78    70    73    1
    79    99    98    1
    80    99   102    1
    81    79    77   ar
    82   104   103    1
    83   104   105   ar
    84    71    72    2
    85   103   102    1
    86    74    73    1
    87    74    75   ar
    88    97    95   ar
    89    97    96   ar
    90    46    48    1
    91    46    43    1
    92    42    43    1
    93    95    93   ar
    94    77    75   ar
    95    43    44    1
    96    96    94   ar
    97    93    92   ar
    98    94    92   ar
    99    45    44    2
   100    92    91    1
   101    91    88    1
   102    88    89    1
   103    88    87    1
   104    90    89    2
