@<TRIPOS>MOLECULE
tmp/4n4sA00.pdb
 214 198 0 0 0
SMALL
GASTEIGER

@<TRIPOS>ATOM
      1  N        -19.4300   17.3930    4.6130 N.3    22  ILE22      -0.1231
      2  CA       -19.2140   16.2680    3.7140 C.3    22  ILE22       0.1692
      3  C        -18.2810   15.2650    4.3720 C.2    22  ILE22       0.2593
      4  O        -18.5800   14.0790    4.4110 O.2    22  ILE22      -0.2718
      5  CB       -18.6010   16.6830    2.3550 C.3    22  ILE22       0.0266
      6  CG1      -19.5100   17.6820    1.6250 C.3    22  ILE22       0.0019
      7  CG2      -18.3690   15.4430    1.4950 C.3    22  ILE22       0.0020
      8  CD1      -18.9430   18.1800    0.3140 C.3    22  ILE22       0.0001
      9  N        -17.1450   15.7400    4.8670 N.am   23  GLY23      -0.1942
     10  CA       -16.1330   14.8510    5.4170 C.3    23  GLY23       0.2014
     11  C        -14.8390   15.5570    5.7850 C.2    23  GLY23       0.2639
     12  O        -14.7240   16.7820    5.6690 O.2    23  GLY23      -0.2714
     13  N        -13.8710   14.7640    6.2410 N.am   24  GLU24      -0.1963
     14  CA       -12.5370   15.2570    6.5760 C.3    24  GLU24       0.1733
     15  C        -11.5920   14.9730    5.4270 C.2    24  GLU24       0.2616
     16  O        -11.4240   13.8250    5.0320 O.2    24  GLU24      -0.2715
     17  CB       -12.0010   14.5750    7.8380 C.3    24  GLU24       0.0429
     18  CG       -12.8140   14.8310    9.0990 C.3    24  GLU24       0.1163
     19  CD       -12.8160   16.2900    9.5360 C.2    24  GLU24       0.3649
     20  OE1      -11.8540   17.0300    9.2240 O.co2  24  GLU24      -0.2457
     21  OE2      -13.7900   16.6930   10.2070 O.co2  24  GLU24      -0.2457
     22  N        -10.9850   16.0240    4.8860 N.am   25  GLY25      -0.1955
     23  CA        -9.8900   15.8700    3.9300 C.3    25  GLY25       0.1869
     24  C         -8.5890   15.6630    4.6790 C.2    25  GLY25       0.2309
     25  O         -8.5680   15.6740    5.9070 O.2    25  GLY25      -0.2863
     26  N         -6.1010   17.6970    4.8200 N.3    27  TYR27      -0.1241
     27  CA        -5.6010   18.9770    5.3410 C.3    27  TYR27       0.1605
     28  C         -6.6620   19.7740    6.1180 C.2    27  TYR27       0.2264
     29  O         -6.3500   20.8100    6.7050 O.2    27  TYR27      -0.2867
     30  CB        -5.0650   19.8560    4.1950 C.3    27  TYR27       0.0534
     31  CG        -3.7920   19.3970    3.5170 C.ar   27  TYR27      -0.0201
     32  CD1       -3.8310   18.5420    2.4160 C.ar   27  TYR27      -0.0009
     33  CD2       -2.5480   19.8680    3.9360 C.ar   27  TYR27      -0.0009
     34  CE1       -2.6630   18.1400    1.7760 C.ar   27  TYR27       0.0417
     35  CE2       -1.3790   19.4700    3.3060 C.ar   27  TYR27       0.0417
     36  CZ        -1.4400   18.6090    2.2280 C.ar   27  TYR27       0.1957
     37  OH        -0.2780   18.2160    1.6040 O.3    27  TYR27      -0.2866
     38  N        -14.0680   19.3550    4.9840 N.3    30  VAL30      -0.1245
     39  CA       -14.6690   19.6480    3.6850 C.3    30  VAL30       0.1561
     40  C        -16.1890   19.7320    3.8110 C.2    30  VAL30       0.2260
     41  O        -16.8320   18.7820    4.2420 O.2    30  VAL30      -0.2867
     42  CB       -14.3050   18.5670    2.6460 C.3    30  VAL30       0.0252
     43  CG1      -15.0040   18.8270    1.3160 C.3    30  VAL30       0.0019
     44  CG2      -12.7990   18.5150    2.4570 C.3    30  VAL30       0.0019
     45  N        -17.7870   22.4660   -3.3770 N.3    43  ALA43      -0.1245
     46  CA       -17.0870   21.9290   -2.2140 C.3    43  ALA43       0.1562
     47  C        -16.0840   22.9520   -1.6910 C.2    43  ALA43       0.2260
     48  O        -15.3550   23.5830   -2.4700 O.2    43  ALA43      -0.2867
     49  CB       -16.3860   20.6380   -2.5620 C.3    43  ALA43       0.0290
     50  N        -13.0270   23.3960    1.2040 N.3    45  LYS45      -0.1245
     51  CA       -12.1210   22.8390    2.2000 C.3    45  LYS45       0.1561
     52  C        -11.5350   23.9490    3.0670 C.2    45  LYS45       0.2260
     53  O        -10.9590   24.9020    2.5440 O.2    45  LYS45      -0.2867
     54  CB       -10.9900   22.0760    1.5130 C.3    45  LYS45       0.0271
     55  CG       -10.1080   21.2890    2.4700 C.3    45  LYS45       0.0035
     56  CD        -9.1640   20.3680    1.7180 C.3    45  LYS45       0.0206
     57  CE        -8.6320   19.2810    2.6230 C.3    45  LYS45       0.1093
     58  NZ        -7.7990   18.2890    1.8850 N.3    45  LYS45      -0.1314
     59  N         -8.7160   25.1420    5.7080 N.3    47  ILE47      -0.1245
     60  CA        -7.3380   24.7940    6.0640 C.3    47  ILE47       0.1561
     61  C         -6.7610   25.7690    7.0840 C.2    47  ILE47       0.2260
     62  O         -6.8730   26.9900    6.9330 O.2    47  ILE47      -0.2867
     63  CB        -6.4370   24.7280    4.8180 C.3    47  ILE47       0.0252
     64  CG1       -6.9980   23.6840    3.8460 C.3    47  ILE47       0.0019
     65  CG2       -5.0100   24.3820    5.2150 C.3    47  ILE47       0.0019
     66  CD1       -6.1660   23.4650    2.6040 C.3    47  ILE47       0.0001
     67  N          0.9150   23.3880    2.0980 N.3    59  THR59      -0.1218
     68  CA        -0.1850   24.2190    1.6070 C.3    59  THR59       0.1862
     69  C          0.2690   25.0800    0.4330 C.2    59  THR59       0.2287
     70  O         -0.3660   25.0950   -0.6130 O.2    59  THR59      -0.2866
     71  CB        -0.7540   25.1040    2.7340 C.3    59  THR59       0.1770
     72  OG1       -1.3470   24.2710    3.7370 O.3    59  THR59      -0.2211
     73  CG2       -1.8080   26.0670    2.2090 C.3    59  THR59       0.0375
     74  N          0.9090   22.9110   -2.6990 N.3    62  GLU62      -0.1231
     75  CA        -0.3280   22.4270   -3.3230 C.3    62  GLU62       0.1699
     76  C         -1.0700   23.5310   -4.0820 C.2    62  GLU62       0.2592
     77  O         -1.6030   23.3030   -5.1730 O.2    62  GLU62      -0.2718
     78  CB        -1.2580   21.8240   -2.2690 C.3    62  GLU62       0.0402
     79  CG        -2.3280   20.8950   -2.8330 C.3    62  GLU62       0.1161
     80  CD        -1.8110   19.5020   -3.1110 C.2    62  GLU62       0.3649
     81  OE1       -2.5810   18.6870   -3.6550 O.co2  62  GLU62      -0.2457
     82  OE2       -0.6350   19.2190   -2.7940 O.co2  62  GLU62      -0.2457
     83  N         -1.1110   24.7260   -3.5050 N.am   63  ILE63      -0.1980
     84  CA        -1.7810   25.8450   -4.1660 C.3    63  ILE63       0.1595
     85  C         -1.0740   26.1900   -5.4840 C.2    63  ILE63       0.2287
     86  O         -1.7350   26.4270   -6.4870 O.2    63  ILE63      -0.2864
     87  CB        -1.8830   27.0730   -3.2440 C.3    63  ILE63       0.0276
     88  CG1       -2.8440   26.7730   -2.0920 C.3    63  ILE63       0.0022
     89  CG2       -2.3570   28.2940   -4.0190 C.3    63  ILE63       0.0022
     90  CD1       -2.8940   27.8440   -1.0160 C.3    63  ILE63       0.0001
     91  N         -1.7150   22.9970   -8.1740 N.3    66  LEU66      -0.1245
     92  CA        -3.0990   22.9440   -8.6420 C.3    66  LEU66       0.1561
     93  C         -3.5040   24.1690   -9.4600 C.2    66  LEU66       0.2260
     94  O         -4.3690   24.0570  -10.3310 O.2    66  LEU66      -0.2867
     95  CB        -4.0680   22.7760   -7.4720 C.3    66  LEU66       0.0270
     96  CG        -3.9250   21.4700   -6.7050 C.3    66  LEU66       0.0019
     97  CD1       -4.8940   21.4490   -5.5400 C.3    66  LEU66       0.0001
     98  CD2       -4.1470   20.2690   -7.6140 C.3    66  LEU66       0.0001
     99  N         -8.1470   17.7600   -9.9300 N.3    75  ILE75      -0.1245
    100  CA        -8.9420   18.7420   -9.1910 C.3    75  ILE75       0.1561
    101  C         -8.4170   20.1780   -9.3930 C.2    75  ILE75       0.2260
    102  O         -7.2180   20.4150   -9.2940 O.2    75  ILE75      -0.2867
    103  CB        -9.0000   18.3980   -7.6820 C.3    75  ILE75       0.0252
    104  CG1       -9.9460   19.3500   -6.9540 C.3    75  ILE75       0.0019
    105  CG2       -7.6190   18.4500   -7.0380 C.3    75  ILE75       0.0019
    106  CD1      -10.2790   18.9200   -5.5430 C.3    75  ILE75       0.0001
    107  N         -8.8740   24.6280   -8.6370 N.3    77  ILE77      -0.1245
    108  CA        -9.2600   25.6020   -7.6210 C.3    77  ILE77       0.1561
    109  C        -10.1090   26.6650   -8.2940 C.2    77  ILE77       0.2260
    110  O         -9.6080   27.3920   -9.1450 O.2    77  ILE77      -0.2867
    111  CB        -8.0210   26.2650   -6.9620 C.3    77  ILE77       0.0252
    112  CG1       -7.2320   25.2260   -6.1590 C.3    77  ILE77       0.0019
    113  CG2       -8.4400   27.4300   -6.0580 C.3    77  ILE77       0.0019
    114  CD1       -5.9540   25.7560   -5.5360 C.3    77  ILE77       0.0001
    115  N        -10.5080   26.8620    0.3940 N.3    94  ILE94      -0.1245
    116  CA       -10.3030   26.5490   -1.0160 C.3    94  ILE94       0.1561
    117  C        -11.6050   26.0180   -1.5890 C.2    94  ILE94       0.2260
    118  O        -12.2180   25.1380   -0.9940 O.2    94  ILE94      -0.2867
    119  CB        -9.2200   25.4640   -1.2040 C.3    94  ILE94       0.0252
    120  CG1       -7.9690   25.7850   -0.3700 C.3    94  ILE94       0.0019
    121  CG2       -8.8760   25.3080   -2.6840 C.3    94  ILE94       0.0019
    122  CD1       -7.2700   27.0730   -0.7560 C.3    94  ILE94       0.0001
    123  N        -13.8120   24.2580   -4.7460 N.3    96  ALA96      -0.1231
    124  CA       -13.6880   23.3840   -5.9060 C.3    96  ALA96       0.1694
    125  C        -15.0360   22.7930   -6.2950 C.2    96  ALA96       0.2592
    126  O        -15.9880   22.8720   -5.5380 O.2    96  ALA96      -0.2718
    127  CB       -12.6940   22.2680   -5.6110 C.3    96  ALA96       0.0304
    128  N        -15.0990   22.1920   -7.4800 N.am   97  ASP97      -0.1960
    129  CA       -16.3110   21.5230   -7.9510 C.3    97  ASP97       0.1840
    130  C        -16.7840   20.4770   -6.9440 C.2    97  ASP97       0.2622
    131  O        -15.9770   19.7580   -6.3580 O.2    97  ASP97      -0.2715
    132  CB       -16.0640   20.8400   -9.3010 C.3    97  ASP97       0.1450
    133  CG       -15.8010   21.8190  -10.4280 C.2    97  ASP97       0.3671
    134  OD1      -15.9640   23.0450  -10.2520 O.co2  97  ASP97      -0.2456
    135  OD2      -15.4280   21.3500  -11.5160 O.co2  97  ASP97      -0.2456
    136  N        -18.0920   20.3930   -6.7510 N.am   98  LEU98      -0.1963
    137  CA       -18.6900   19.4020   -5.8620 C.3    98  LEU98       0.1728
    138  C        -18.8090   18.0650   -6.5930 C.2    98  LEU98       0.2616
    139  O        -19.4040   17.9660   -7.6720 O.2    98  LEU98      -0.2715
    140  CB       -20.0800   19.8490   -5.4060 C.3    98  LEU98       0.0311
    141  CG       -20.8030   18.9750   -4.3700 C.3    98  LEU98       0.0022
    142  CD1      -20.0520   18.9310   -3.0560 C.3    98  LEU98       0.0001
    143  CD2      -22.2190   19.4760   -4.1410 C.3    98  LEU98       0.0001
    144  N        -18.2460   17.0390   -5.9870 N.am   99  MET99      -0.1963
    145  CA       -18.3050   15.6970   -6.5300 C.3    99  MET99       0.1736
    146  C        -19.2120   14.8920   -5.6030 C.2    99  MET99       0.2616
    147  O        -19.7950   15.4360   -4.6790 O.2    99  MET99      -0.2715
    148  CB       -16.8820   15.1300   -6.5660 C.3    99  MET99       0.0427
    149  CG       -15.8700   16.0190   -7.2850 C.3    99  MET99       0.0599
    150  SD       -16.1230   16.0580   -9.0710 S.3    99  MET99      -0.1393
    151  CE       -15.4260   14.4740   -9.5300 C.3    99  MET99       0.0692
    152  N        -19.3480   13.6010   -5.8430 N.am  100  GLU100     -0.1963
    153  CA       -20.3020   12.7900   -5.0780 C.3   100  GLU100      0.1733
    154  C        -19.6230   12.0580   -3.9350 C.2   100  GLU100      0.2617
    155  O        -20.0840   12.0910   -2.7900 O.2   100  GLU100     -0.2715
    156  CB       -21.0770   11.8470   -6.0120 C.3   100  GLU100      0.0429
    157  CG       -21.9900   12.6610   -6.8980 C.3   100  GLU100      0.1163
    158  CD       -23.1160   13.3130   -6.1210 C.2   100  GLU100      0.3649
    159  OE1      -24.0270   12.5710   -5.6970 O.co2 100  GLU100     -0.2457
    160  OE2      -23.0790   14.5550   -5.9220 O.co2 100  GLU100     -0.2457
    161  N        -18.4780   11.4650   -4.2400 N.am  101  THR101     -0.1937
    162  CA       -17.7720   10.6280   -3.2850 C.3   101  THR101      0.2028
    163  C        -16.3400   10.4050   -3.7470 C.2   101  THR101      0.2642
    164  O        -15.9530   10.8540   -4.8260 O.2   101  THR101     -0.2714
    165  CB       -18.4800    9.2620   -3.1560 C.3   101  THR101      0.1808
    166  OG1      -17.7980    8.4590   -2.1950 O.3   101  THR101     -0.2208
    167  CG2      -18.4940    8.5220   -4.4970 C.3   101  THR101      0.0379
    168  N        -15.5640    9.7080   -2.9260 N.am  102  ASP102     -0.1971
    169  CA       -14.2570    9.2320   -3.3440 C.3   102  ASP102      0.1709
    170  C        -14.3340    7.7430   -3.6450 C.2   102  ASP102      0.2293
    171  O        -15.3210    7.0790   -3.3150 O.2   102  ASP102     -0.2864
    172  CB       -13.1700    9.5580   -2.3140 C.3   102  ASP102      0.1436
    173  CG       -13.3920    8.8920   -0.9670 C.2   102  ASP102      0.3671
    174  OD1      -14.2170    7.9600   -0.8590 O.co2 102  ASP102     -0.2456
    175  OD2      -12.7180    9.3030   -0.0020 O.co2 102  ASP102     -0.2456
    176  N        -14.7940    5.2870   -0.5730 N.3   105  LYS105     -0.1245
    177  CA       -16.1390    5.0890   -0.0380 C.3   105  LYS105      0.1561
    178  C        -17.0340    4.3050   -0.9970 C.2   105  LYS105      0.2260
    179  O        -17.8410    3.4840   -0.5650 O.2   105  LYS105     -0.2867
    180  CB       -16.7700    6.4280    0.3510 C.3   105  LYS105      0.0271
    181  CG       -16.1730    6.9830    1.6460 C.3   105  LYS105      0.0035
    182  CD       -16.8290    8.2830    2.1020 C.3   105  LYS105      0.0206
    183  CE       -16.0860    9.5020    1.5840 C.3   105  LYS105      0.1093
    184  NZ       -16.5780   10.7470    2.2400 N.3   105  LYS105     -0.1314
    185  N         -8.7810    6.9040   -1.8990 N.3   144  SER144     -0.1217
    186  CA        -9.2020    8.1190   -1.2130 C.3   144  SER144      0.1889
    187  C         -8.7150    9.4050   -1.8910 C.2   144  SER144      0.2288
    188  O         -9.2250   10.4710   -1.5940 O.2   144  SER144     -0.2866
    189  CB        -8.7980    8.0970    0.2690 C.3   144  SER144      0.2089
    190  OG        -7.4260    7.8570    0.4310 O.3   144  SER144     -0.2183
    191  N        -11.6920   11.4310   -6.6240 N.3   147  LEU147     -0.1245
    192  CA       -13.0720   11.8810   -6.4960 C.3   147  LEU147      0.1561
    193  C        -13.9030   11.5080   -7.7190 C.2   147  LEU147      0.2260
    194  O        -13.4350   11.5890   -8.8540 O.2   147  LEU147     -0.2867
    195  CB       -13.1290   13.3950   -6.3110 C.3   147  LEU147      0.0270
    196  CG       -12.7730   13.9520   -4.9350 C.3   147  LEU147      0.0019
    197  CD1      -12.9970   15.4590   -4.9340 C.3   147  LEU147      0.0001
    198  CD2      -13.5770   13.2860   -3.8210 C.3   147  LEU147      0.0001
    199  N         -6.6560   13.8620   -6.6860 N.3   157  LEU157     -0.1231
    200  CA        -6.3320   14.7970   -5.6100 C.3   157  LEU157      0.1693
    201  C         -4.9270   14.5940   -5.0300 C.2   157  LEU157      0.2592
    202  O         -4.2850   13.5700   -5.2520 O.2   157  LEU157     -0.2718
    203  CB        -7.2880   14.6090   -4.4260 C.3   157  LEU157      0.0284
    204  CG        -8.7690   14.3450   -4.6240 C.3   157  LEU157      0.0019
    205  CD1       -9.4050   13.9930   -3.2790 C.3   157  LEU157      0.0001
    206  CD2       -9.4310   15.5560   -5.2460 C.3   157  LEU157      0.0001
    207  N         -4.5000   15.5860   -4.2570 N.am  158  ASP158     -0.1974
    208  CA        -3.4020   15.4770   -3.2910 C.3   158  ASP158      0.1709
    209  C         -2.0210   15.2500   -3.8980 C.2   158  ASP158      0.2293
    210  O         -1.5680   14.1150   -4.0740 O.2   158  ASP158     -0.2864
    211  CB        -3.7090   14.4080   -2.2360 C.3   158  ASP158      0.1436
    212  CG        -2.8100   14.5100   -1.0060 C.2   158  ASP158      0.3671
    213  OD1       -2.0160   15.4770   -0.8830 O.co2 158  ASP158     -0.2456
    214  OD2       -2.8970   13.6070   -0.1480 O.co2 158  ASP158     -0.2456
@<TRIPOS>BOND
     1   135   133   ar
     2   133   134   ar
     3   133   132    1
     4    94    93    2
     5    99   100    1
     6   151   150    1
     7    93    92    1
     8   101   102    2
     9   101   100    1
    10   132   129    1
    11   100   103    1
    12   110   109    2
    13   150   149    1
    14   194   193    2
    15    92    91    1
    16    92    95    1
    17   107   108    1
    18   109   108    1
    19   129   128    1
    20   129   130    1
    21   193   192    1
    22   103   105    1
    23   103   104    1
    24   139   138    2
    25   108   111    1
    26    98    96    1
    27   128   125   am
    28    95    96    1
    29   149   148    1
    30   111   112    1
    31   111   113    1
    32   104   106    1
    33   130   136   am
    34   130   131    2
    35   157   158    1
    36   157   156    1
    37   136   137    1
    38    96    97    1
    39   199   200    1
    40   191   192    1
    41   138   144   am
    42   138   137    1
    43   148   145    1
    44   145   144    1
    45   145   146    1
    46   192   195    1
    47    86    85    2
    48   195   196    1
    49   125   124    1
    50   125   126    2
    51   112   114    1
    52   158   160   ar
    53   158   159   ar
    54   156   153    1
    55   124   127    1
    56   124   123    1
    57   137   140    1
    58   152   146   am
    59   152   153    1
    60   200   201    1
    61   200   203    1
    62   146   147    2
    63    85    84    1
    64   140   141    1
    65   202   201    2
    66   206   204    1
    67    77    76    2
    68   153   154    1
    69   201   207   am
    70   196   197    1
    71   196   198    1
    72   164   163    2
    73   204   203    1
    74   204   205    1
    75   167   165    1
    76   141   143    1
    77   141   142    1
    78   207   208    1
    79   161   154   am
    80   161   162    1
    81    84    83    1
    82    84    87    1
    83    76    83   am
    84    76    75    1
    85   210   209    2
    86    89    87    1
    87   154   155    2
    88   209   208    1
    89   163   162    1
    90   163   168   am
    91    81    80   ar
    92   170   169    1
    93   170   171    2
    94    45    46    1
    95   169   168    1
    96   169   172    1
    97    75    74    1
    98    75    78    1
    99   208   211    1
   100   162   165    1
   101    87    88    1
   102   165   166    1
   103    80    79    1
   104    80    82   ar
   105    79    78    1
   106   121   119    1
   107    49    46    1
   108    48    47    2
   109   172   173    1
   110   211   212    1
   111    46    47    1
   112    88    90    1
   113   185   186    1
   114   187   188    2
   115   187   186    1
   116   117   116    1
   117   117   118    2
   118   186   189    1
   119   119   116    1
   120   119   120    1
   121   116   115    1
   122   212   213   ar
   123   212   214   ar
   124   178   179    2
   125   178   177    1
   126   173   174   ar
   127   173   175   ar
   128   122   120    1
   129    70    69    2
   130   176   177    1
   131   177   180    1
   132   189   190    1
   133     8     6    1
   134   180   181    1
   135    69    68    1
   136    50    51    1
   137    43    42    1
   138     7     5    1
   139    54    51    1
   140    54    55    1
   141   183   182    1
   142   183   184    1
   143    37    36    1
   144    68    67    1
   145    68    71    1
   146     6     5    1
   147   181   182    1
   148    56    55    1
   149    56    57    1
   150    34    36   ar
   151    34    32   ar
   152    58    57    1
   153    51    52    1
   154    73    71    1
   155    36    35   ar
   156     5     2    1
   157    32    31   ar
   158    44    42    1
   159    53    52    2
   160    66    64    1
   161    42    39    1
   162    71    72    1
   163    35    33   ar
   164    31    33   ar
   165    31    30    1
   166    39    40    1
   167    39    38    1
   168     2     3    1
   169     2     1    1
   170    40    41    2
   171    64    63    1
   172    23    24    1
   173    23    22    1
   174    30    27    1
   175     3     4    2
   176     3     9   am
   177    24    25    2
   178    63    65    1
   179    63    60    1
   180    26    27    1
   181     9    10    1
   182    22    15   am
   183    16    15    2
   184    27    28    1
   185    10    11    1
   186    15    14    1
   187    12    11    2
   188    59    60    1
   189    11    13   am
   190    60    61    1
   191    28    29    2
   192    13    14    1
   193    14    17    1
   194    62    61    2
   195    17    18    1
   196    18    19    1
   197    20    19   ar
   198    19    21   ar
