@<TRIPOS>MOLECULE
tmp/4n4tB00.pdb
 173 174 0 0 0
SMALL
GASTEIGER

@<TRIPOS>ATOM
      1  N         20.9890   38.9770   -2.5180 N.3    81  HIS81      -0.1226
      2  CA        22.2400   39.6550   -2.2080 C.3    81  HIS81       0.1752
      3  C         22.9250   40.1290   -3.4850 C.2    81  HIS81       0.2597
      4  O         23.1690   39.3410   -4.4010 O.2    81  HIS81      -0.2718
      5  CB        23.2230   38.7610   -1.4570 C.3    81  HIS81       0.0759
      6  CG        24.5820   39.3770   -1.3260 C.ar   81  HIS81       0.0818
      7  ND1       24.7850   40.5920   -0.7080 N.ar   81  HIS81      -0.2268
      8  CD2       25.7830   39.0040   -1.8240 C.ar   81  HIS81       0.1154
      9  CE1       26.0510   40.9440   -0.8400 C.ar   81  HIS81       0.1986
     10  NE2       26.6790   39.9980   -1.5150 N.ar   81  HIS81      -0.2212
     11  N         23.2400   41.4190   -3.5390 N.am   82  GLY82      -0.1942
     12  CA        23.9150   41.9540   -4.7050 C.3    82  GLY82       0.2014
     13  C         25.2050   42.6240   -4.2850 C.2    82  GLY82       0.2640
     14  O         25.2340   43.3210   -3.2780 O.2    82  GLY82      -0.2714
     15  N         26.2790   42.3880   -5.0300 N.am   83  SER83      -0.1936
     16  CA        27.5630   43.0130   -4.7340 C.3    83  SER83       0.2040
     17  C         28.5960   42.6100   -5.7810 C.2    83  SER83       0.2485
     18  O         28.4380   41.5930   -6.4530 O.2    83  SER83      -0.2729
     19  CB        28.0700   42.6020   -3.3560 C.3    83  SER83       0.2129
     20  OG        28.7090   41.3500   -3.4310 O.3    83  SER83      -0.2179
     21  N         29.6700   43.4060   -5.9260 N.am   84  PRO84      -0.2715
     22  CA        30.7420   43.1420   -6.8890 C.3    84  PRO84       0.1536
     23  C         31.5590   41.8900   -6.5440 C.2    84  PRO84       0.2598
     24  O         32.3830   41.4390   -7.3400 O.2    84  PRO84      -0.2715
     25  CB        31.6070   44.4040   -6.8000 C.3    84  PRO84       0.0310
     26  CG        30.6440   45.4680   -6.3470 C.3    84  PRO84       0.0237
     27  CD        29.8510   44.7260   -5.3000 C.3    84  PRO84       0.0939
     28  N         31.3100   41.3220   -5.3690 N.am   85  PHE85      -0.1974
     29  CA        32.0880   40.1840   -4.9070 C.3    85  PHE85       0.1639
     30  C         31.4990   38.7970   -5.0760 C.2    85  PHE85       0.2290
     31  O         32.0980   37.8200   -4.6490 O.2    85  PHE85      -0.2864
     32  CB        32.4450   40.4260   -3.4410 C.3    85  PHE85       0.0560
     33  CG        32.8600   41.8390   -3.1610 C.ar   85  PHE85      -0.0200
     34  CD1       34.0750   42.3270   -3.6280 C.ar   85  PHE85      -0.0042
     35  CD2       31.9950   42.7110   -2.5110 C.ar   85  PHE85      -0.0042
     36  CE1       34.4190   43.6600   -3.4600 C.ar   85  PHE85      -0.0003
     37  CE2       32.3260   44.0410   -2.3360 C.ar   85  PHE85      -0.0003
     38  CZ        33.5430   44.5230   -2.8150 C.ar   85  PHE85      -0.0000
     39  N         33.7360   35.7280   -5.6360 N.3    88  ALA88      -0.1231
     40  CA        34.5460   35.2850   -4.5190 C.3    88  ALA88       0.1694
     41  C         33.6520   34.5430   -3.5170 C.2    88  ALA88       0.2591
     42  O         34.0260   33.4970   -2.9960 O.2    88  ALA88      -0.2718
     43  CB        35.1970   36.4760   -3.8620 C.3    88  ALA88       0.0304
     44  N         32.4590   35.0850   -3.2750 N.am   89  ILE89      -0.1980
     45  CA        31.5070   34.5070   -2.3260 C.3    89  ILE89       0.1595
     46  C         31.0830   33.0770   -2.6540 C.2    89  ILE89       0.2287
     47  O         31.0350   32.2310   -1.7640 O.2    89  ILE89      -0.2864
     48  CB        30.2500   35.4000   -2.2000 C.3    89  ILE89       0.0276
     49  CG1       30.6560   36.7650   -1.6300 C.3    89  ILE89       0.0022
     50  CG2       29.2110   34.7400   -1.3060 C.3    89  ILE89       0.0022
     51  CD1       29.5620   37.8230   -1.7220 C.3    89  ILE89       0.0001
     52  N         34.4710   31.0360   -1.8150 N.3    92  LYS92      -0.1231
     53  CA        34.9750   31.0190   -0.4420 C.3    92  LYS92       0.1693
     54  C         33.9040   31.2140    0.6270 C.2    92  LYS92       0.2593
     55  O         34.1550   30.9810    1.8020 O.2    92  LYS92      -0.2718
     56  CB        36.0280   32.1120   -0.3080 C.3    92  LYS92       0.0285
     57  CG        37.0070   32.1200   -1.4810 C.3    92  LYS92       0.0035
     58  CD        37.6870   33.4820   -1.6870 C.3    92  LYS92       0.0206
     59  CE        38.6480   33.4300   -2.8930 C.3    92  LYS92       0.1093
     60  NZ        39.4660   34.6790   -3.0190 N.3    92  LYS92      -0.1314
     61  N         32.7180   31.6470    0.2180 N.am   93  GLY93      -0.1942
     62  CA        31.6500   31.8810    1.1680 C.3    93  GLY93       0.2014
     63  C         31.6470   33.3260    1.6240 C.2    93  GLY93       0.2639
     64  O         32.5520   34.0900    1.2840 O.2    93  GLY93      -0.2714
     65  N         30.6150   33.7110    2.3700 N.am   94  PHE94      -0.1959
     66  CA        30.5230   35.0660    2.8970 C.3    94  PHE94       0.1771
     67  C         31.5580   35.2010    4.0180 C.2    94  PHE94       0.2619
     68  O         31.6710   34.3370    4.8910 O.2    94  PHE94      -0.2715
     69  CB        29.1230   35.3340    3.4410 C.3    94  PHE94       0.0574
     70  CG        28.0640   35.4290    2.3790 C.ar   94  PHE94      -0.0200
     71  CD1       27.9220   36.5800    1.6200 C.ar   94  PHE94      -0.0042
     72  CD2       27.2040   34.3670    2.1480 C.ar   94  PHE94      -0.0042
     73  CE1       26.9310   36.6760    0.6420 C.ar   94  PHE94      -0.0003
     74  CE2       26.2140   34.4480    1.1790 C.ar   94  PHE94      -0.0003
     75  CZ        26.0750   35.6090    0.4190 C.ar   94  PHE94      -0.0000
     76  N         32.2980   36.2960    4.0000 N.am   95  ASP95      -0.1971
     77  CA        33.3450   36.5200    4.9820 C.3    95  ASP95       0.1709
     78  C         33.2390   37.9520    5.4870 C.2    95  ASP95       0.2293
     79  O         33.5760   38.8840    4.7610 O.2    95  ASP95      -0.2864
     80  CB        34.6950   36.2820    4.2950 C.3    95  ASP95       0.1436
     81  CG        35.8660   36.3090    5.2560 C.2    95  ASP95       0.3671
     82  OD1       35.6830   36.7570    6.4040 O.co2  95  ASP95      -0.2456
     83  OD2       36.9780   35.8950    4.8460 O.co2  95  ASP95      -0.2456
     84  N         35.5550   41.2340    5.1790 N.3    98  HIS98      -0.1226
     85  CA        35.5830   42.1600    4.0460 C.3    98  HIS98       0.1752
     86  C         34.5350   43.2500    4.1980 C.2    98  HIS98       0.2596
     87  O         34.3810   44.0840    3.3160 O.2    98  HIS98      -0.2718
     88  CB        35.3480   41.4320    2.7090 C.3    98  HIS98       0.0759
     89  CG        36.5210   40.6340    2.2360 C.ar   98  HIS98       0.0818
     90  ND1       36.5850   39.2600    2.3460 N.ar   98  HIS98      -0.2268
     91  CD2       37.7000   41.0230    1.6950 C.ar   98  HIS98       0.1154
     92  CE1       37.7540   38.8380    1.9000 C.ar   98  HIS98       0.1986
     93  NE2       38.4500   39.8880    1.4990 N.ar   98  HIS98      -0.2212
     94  N         33.8180   43.2300    5.3180 N.am   99  ALA99      -0.1966
     95  CA        32.7720   44.2160    5.6060 C.3    99  ALA99       0.1728
     96  C         33.3050   45.3090    6.5520 C.2    99  ALA99       0.2616
     97  O         33.9640   44.9860    7.5540 O.2    99  ALA99      -0.2715
     98  CB        31.5740   43.5030    6.2350 C.3    99  ALA99       0.0334
     99  N         33.0230   46.5860    6.2520 N.am  100  TYR100     -0.1974
    100  CA        33.5020   47.7070    7.0890 C.3   100  TYR100      0.1639
    101  C         32.4900   48.7830    7.5190 C.2   100  TYR100      0.2290
    102  O         31.4940   49.0370    6.8350 O.2   100  TYR100     -0.2864
    103  CB        34.6610   48.3930    6.3840 C.3   100  TYR100      0.0560
    104  CG        35.7460   47.4350    5.9770 C.ar  100  TYR100     -0.0198
    105  CD1       36.6780   46.9680    6.9010 C.ar  100  TYR100     -0.0009
    106  CD2       35.8650   47.0270    4.6560 C.ar  100  TYR100     -0.0009
    107  CE1       37.7120   46.1280    6.5100 C.ar  100  TYR100      0.0417
    108  CE2       36.8850   46.1880    4.2520 C.ar  100  TYR100      0.0417
    109  CZ        37.8150   45.7470    5.1760 C.ar  100  TYR100      0.1957
    110  OH        38.8880   44.9970    4.7300 O.3   100  TYR100     -0.2866
    111  N         26.4490   52.1650    6.4400 N.3   102  PHE102     -0.1227
    112  CA        26.3100   50.7330    6.7040 C.3   102  PHE102      0.1736
    113  C         27.2840   50.3400    7.8020 C.2   102  PHE102      0.2596
    114  O         28.2740   51.0460    8.0360 O.2   102  PHE102     -0.2718
    115  CB        26.6090   49.9340    5.4370 C.3   102  PHE102      0.0547
    116  CG        26.6400   50.7720    4.1990 C.ar  102  PHE102     -0.0202
    117  CD1       27.7650   51.5220    3.8970 C.ar  102  PHE102     -0.0042
    118  CD2       25.5200   50.8780    3.3830 C.ar  102  PHE102     -0.0042
    119  CE1       27.7860   52.3690    2.7960 C.ar  102  PHE102     -0.0003
    120  CE2       25.5180   51.7180    2.2770 C.ar  102  PHE102     -0.0003
    121  CZ        26.6580   52.4780    1.9820 C.ar  102  PHE102     -0.0000
    122  N         27.0000   49.2280    8.4790 N.am  103  GLY103     -0.1957
    123  CA        27.8590   48.7640    9.5580 C.3   103  GLY103      0.1869
    124  C         28.8030   47.7230    8.9930 C.2   103  GLY103      0.2309
    125  O         28.7850   47.4770    7.7880 O.2   103  GLY103     -0.2863
    126  N         28.7940   44.7550    8.3070 N.3   105  GLY105     -0.1210
    127  CA        28.0620   43.5270    8.0450 C.3   105  GLY105      0.1956
    128  C         27.7950   43.2360    6.5690 C.2   105  GLY105      0.2612
    129  O         28.2420   43.9600    5.6870 O.2   105  GLY105     -0.2717
    130  N         27.0650   42.1550    6.3160 N.am  106  ILE106     -0.1965
    131  CA        26.7080   41.7130    4.9660 C.3   106  ILE106      0.1727
    132  C         25.2020   42.0080    4.8250 C.2   106  ILE106      0.2616
    133  O         24.3920   41.5740    5.6550 O.2   106  ILE106     -0.2715
    134  CB        26.9970   40.1870    4.8150 C.3   106  ILE106      0.0290
    135  CG1       28.3900   39.8750    5.3800 C.3   106  ILE106      0.0022
    136  CG2       26.9330   39.7690    3.3600 C.3   106  ILE106      0.0023
    137  CD1       28.7580   38.4040    5.4090 C.3   106  ILE106      0.0001
    138  N         24.8390   42.7580    3.7860 N.am  107  TYR107     -0.1974
    139  CA        23.4530   43.1650    3.5630 C.3   107  TYR107      0.1639
    140  C         22.6650   42.3090    2.5760 C.2   107  TYR107      0.2290
    141  O         23.1740   41.9060    1.5360 O.2   107  TYR107     -0.2864
    142  CB        23.4170   44.6370    3.1420 C.3   107  TYR107      0.0560
    143  CG        23.8060   45.5910    4.2580 C.ar  107  TYR107     -0.0198
    144  CD1       25.0580   45.5100    4.8720 C.ar  107  TYR107     -0.0009
    145  CD2       22.9170   46.5530    4.7180 C.ar  107  TYR107     -0.0009
    146  CE1       25.4120   46.3590    5.9150 C.ar  107  TYR107      0.0417
    147  CE2       23.2590   47.4140    5.7680 C.ar  107  TYR107      0.0417
    148  CZ        24.5110   47.3080    6.3650 C.ar  107  TYR107      0.1957
    149  OH        24.8300   48.1220    7.4410 O.3   107  TYR107     -0.2866
    150  N         23.2170   47.3830   -5.7530 N.3   118  TYR118     -0.1241
    151  CA        24.5790   47.1790   -5.2560 C.3   118  TYR118      0.1605
    152  C         25.4620   46.3340   -6.1450 C.2   118  TYR118      0.2264
    153  O         26.6450   46.1460   -5.8580 O.2   118  TYR118     -0.2867
    154  CB        24.5380   46.5320   -3.8740 C.3   118  TYR118      0.0534
    155  CG        23.9420   47.4340   -2.8370 C.ar  118  TYR118     -0.0201
    156  CD1       24.5830   48.6230   -2.4780 C.ar  118  TYR118     -0.0009
    157  CD2       22.7080   47.1470   -2.2650 C.ar  118  TYR118     -0.0009
    158  CE1       24.0030   49.5100   -1.5790 C.ar  118  TYR118      0.0417
    159  CE2       22.1170   48.0240   -1.3680 C.ar  118  TYR118      0.0417
    160  CZ        22.7690   49.2080   -1.0300 C.ar  118  TYR118      0.1957
    161  OH        22.1740   50.1090   -0.1760 O.3   118  TYR118     -0.2866
    162  N         28.3480   48.3300   -7.0630 N.3   121  GLY121     -0.1210
    163  CA        28.9270   49.1000   -5.9830 C.3   121  GLY121      0.1956
    164  C         27.8690   49.8750   -5.2250 C.2   121  GLY121      0.2611
    165  O         26.6950   49.8460   -5.5900 O.2   121  GLY121     -0.2717
    166  N         28.2840   50.5530   -4.1580 N.am  122  ILE122     -0.1979
    167  CA        27.3810   51.3670   -3.3610 C.3   122  ILE122      0.1595
    168  C         26.8120   52.4360   -4.2790 C.2   122  ILE122      0.2287
    169  O         27.5380   53.0090   -5.0960 O.2   122  ILE122     -0.2864
    170  CB        28.1330   52.0720   -2.2040 C.3   122  ILE122      0.0276
    171  CG1       28.7180   51.0280   -1.2570 C.3   122  ILE122      0.0022
    172  CG2       27.1920   52.9990   -1.4430 C.3   122  ILE122      0.0022
    173  CD1       29.4890   51.6280   -0.1120 C.3   122  ILE122      0.0001
@<TRIPOS>BOND
     1    24    23    2
     2   162   163    1
     3    22    25    1
     4    22    23    1
     5    22    21    1
     6    25    26    1
     7    23    28   am
     8    18    17    2
     9    26    27    1
    10   152   153    2
    11   152   151    1
    12   163   164    1
    13    21    17   am
    14    21    27    1
    15    17    16    1
    16   150   151    1
    17    39    40    1
    18   165   164    2
    19    28    29    1
    20   151   154    1
    21   164   166   am
    22   169   168    2
    23    30    29    1
    24    30    31    2
    25    15    16    1
    26    15    13   am
    27    29    32    1
    28    16    19    1
    29    12    13    1
    30    12    11    1
    31    40    43    1
    32    40    41    1
    33     4     3    2
    34    13    14    2
    35   168   167    1
    36   166   167    1
    37   154   155    1
    38    34    36   ar
    39    34    33   ar
    40    11     3   am
    41    41    44   am
    42    41    42    2
    43     3     2    1
    44    36    38   ar
    45    32    33    1
    46    20    19    1
    47   167   170    1
    48    44    45    1
    49    33    35   ar
    50    60    59    1
    51    59    58    1
    52   155   156   ar
    53   155   157   ar
    54    38    37   ar
    55    46    45    1
    56    46    47    2
    57     1     2    1
    58    35    37   ar
    59   156   158   ar
    60    45    48    1
    61   157   159   ar
    62     2     5    1
    63   170   172    1
    64   170   171    1
    65    48    49    1
    66    48    50    1
    67     8    10   ar
    68     8     6   ar
    69    52    53    1
    70    51    49    1
    71    58    57    1
    72   158   160   ar
    73    10     9   ar
    74    57    56    1
    75     5     6    1
    76   159   160   ar
    77     6     7   ar
    78   171   173    1
    79   160   161    1
    80     9     7   ar
    81    53    56    1
    82    53    54    1
    83    61    54   am
    84    61    62    1
    85    75    73   ar
    86    75    74   ar
    87    54    55    2
    88    73    71   ar
    89    62    63    1
    90    74    72   ar
    91    64    63    2
    92    93    91   ar
    93    93    92   ar
    94   141   140    2
    95    71    70   ar
    96    63    65   am
    97    91    89   ar
    98    92    90   ar
    99   121   120   ar
   100   121   119   ar
   101    72    70   ar
   102    89    90   ar
   103    89    88    1
   104   120   118   ar
   105    65    66    1
   106    70    69    1
   107   140   139    1
   108    88    85    1
   109   119   117   ar
   110    66    69    1
   111    66    67    1
   112   142   139    1
   113   142   143    1
   114    87    86    2
   115   136   134    1
   116   118   116   ar
   117   139   138    1
   118   138   132   am
   119   117   116   ar
   120    76    67   am
   121    76    77    1
   122    67    68    2
   123    85    86    1
   124    85    84    1
   125    86    94   am
   126   116   115    1
   127   108   106   ar
   128   108   109   ar
   129   143   145   ar
   130   143   144   ar
   131    80    77    1
   132    80    81    1
   133   106   104   ar
   134   145   147   ar
   135   110   109    1
   136    79    78    2
   137   134   131    1
   138   134   135    1
   139   132   131    1
   140   132   133    2
   141    83    81   ar
   142   144   146   ar
   143   131   130    1
   144    77    78    1
   145   109   107   ar
   146    81    82   ar
   147    94    95    1
   148   135   137    1
   149   115   112    1
   150    95    98    1
   151    95    96    1
   152   129   128    2
   153   147   148   ar
   154   146   148   ar
   155   104   103    1
   156   104   105   ar
   157    99    96   am
   158    99   100    1
   159   130   128   am
   160   148   149    1
   161   103   100    1
   162   111   112    1
   163   107   105   ar
   164    96    97    2
   165   128   127    1
   166   112   113    1
   167   102   101    2
   168   100   101    1
   169   125   124    2
   170   113   114    2
   171   113   122   am
   172   127   126    1
   173   122   123    1
   174   124   123    1
