@<TRIPOS>MOLECULE
tmp/4n4wA01.pdb
 214 198 0 0 0
SMALL
GASTEIGER

@<TRIPOS>ATOM
      1  N         -2.7640  -25.2600  -17.9100 N.3   150  MET150     -0.1245
      2  CA        -3.8030  -25.1910  -16.8810 C.3   150  MET150      0.1570
      3  C         -3.8790  -26.4670  -16.0810 C.2   150  MET150      0.2261
      4  O         -4.0390  -26.4140  -14.8620 O.2   150  MET150     -0.2867
      5  CB        -5.1820  -24.9080  -17.4830 C.3   150  MET150      0.0387
      6  CG        -5.6000  -23.4920  -17.3280 C.3   150  MET150      0.0595
      7  SD        -5.6070  -22.9160  -15.6270 S.3   150  MET150     -0.1393
      8  CE        -6.4700  -21.3790  -15.8770 C.3   150  MET150      0.0692
      9  N         -3.5260  -26.6540  -12.0290 N.3   154  ILE154     -0.1245
     10  CA        -4.5940  -27.2720  -11.2500 C.3   154  ILE154      0.1561
     11  C         -4.0670  -28.5190  -10.5310 C.2   154  ILE154      0.2260
     12  O         -4.3610  -28.6540   -9.3610 O.2   154  ILE154     -0.2867
     13  CB        -5.8380  -27.5780  -12.1160 C.3   154  ILE154      0.0252
     14  CG1       -6.5210  -26.2530  -12.5860 C.3   154  ILE154      0.0019
     15  CG2       -6.8160  -28.5200  -11.3630 C.3   154  ILE154      0.0019
     16  CD1       -7.7440  -26.3800  -13.5480 C.3   154  ILE154      0.0001
     17  N        -12.9580  -27.9360    1.3820 N.3   194  PHE194     -0.1241
     18  CA       -11.8340  -27.7480    0.4380 C.3   194  PHE194      0.1605
     19  C        -11.2200  -29.0810    0.0170 C.2   194  PHE194      0.2264
     20  O        -10.8670  -29.2540   -1.1540 O.2   194  PHE194     -0.2867
     21  CB       -10.7640  -26.8180    1.0200 C.3   194  PHE194      0.0534
     22  CG       -11.2420  -25.3920    0.9420 C.ar  194  PHE194     -0.0203
     23  CD1      -12.0210  -24.8490    1.9550 C.ar  194  PHE194     -0.0042
     24  CD2      -11.0230  -24.6310   -0.2060 C.ar  194  PHE194     -0.0042
     25  CE1      -12.5290  -23.5570    1.8530 C.ar  194  PHE194     -0.0003
     26  CE2      -11.5340  -23.3370   -0.3090 C.ar  194  PHE194     -0.0003
     27  CZ       -12.2830  -22.8130    0.7250 C.ar  194  PHE194     -0.0000
     28  N        -11.7960  -31.3430   -8.3340 N.3   201  TRP201     -0.1241
     29  CA       -10.8670  -30.6560   -9.2400 C.3   201  TRP201      0.1605
     30  C         -9.7690  -31.5740   -9.7700 C.2   201  TRP201      0.2264
     31  O         -9.2340  -31.3190  -10.8550 O.2   201  TRP201     -0.2867
     32  CB       -10.2180  -29.4520   -8.5430 C.3   201  TRP201      0.0550
     33  CG       -11.0630  -28.2130   -8.5880 C.ar  201  TRP201      0.0003
     34  CD1      -11.8540  -27.7170   -7.5900 C.ar  201  TRP201      0.0946
     35  CD2      -11.2290  -27.3330   -9.7070 C.ar  201  TRP201      0.0152
     36  NE1      -12.4950  -26.5760   -8.0160 N.ar  201  TRP201     -0.2442
     37  CE2      -12.1380  -26.3210   -9.3140 C.ar  201  TRP201      0.0810
     38  CE3      -10.7020  -27.3000  -11.0090 C.ar  201  TRP201      0.0012
     39  CZ2      -12.5390  -25.2970  -10.1840 C.ar  201  TRP201      0.0191
     40  CZ3      -11.0670  -26.2620  -11.8520 C.ar  201  TRP201      0.0001
     41  CH2      -11.9720  -25.2740  -11.4390 C.ar  201  TRP201      0.0015
     42  N        -17.4870  -26.2470   -2.3870 N.3   245  LEU245     -0.1231
     43  CA       -16.9760  -24.8690   -2.3140 C.3   245  LEU245      0.1693
     44  C        -18.0330  -23.8840   -1.7810 C.2   245  LEU245      0.2591
     45  O        -17.6690  -22.9350   -1.0650 O.2   245  LEU245     -0.2718
     46  CB       -16.4000  -24.3910   -3.6690 C.3   245  LEU245      0.0284
     47  CG       -15.1340  -25.1460   -4.1320 C.3   245  LEU245      0.0019
     48  CD1      -14.8160  -24.8640   -5.5690 C.3   245  LEU245      0.0001
     49  CD2      -13.9280  -24.8140   -3.2810 C.3   245  LEU245      0.0001
     50  N        -19.3250  -24.1260   -2.0820 N.am  246  MET246     -0.1979
     51  CA       -20.3940  -23.2650   -1.5760 C.3   246  MET246      0.1605
     52  C        -20.6310  -23.5360   -0.0790 C.2   246  MET246      0.2287
     53  O        -20.8950  -22.5980    0.6570 O.2   246  MET246     -0.2864
     54  CB       -21.6930  -23.4020   -2.3840 C.3   246  MET246      0.0413
     55  CG       -21.6320  -22.7670   -3.7640 C.3   246  MET246      0.0598
     56  SD       -21.3120  -20.9930   -3.7790 S.3   246  MET246     -0.1393
     57  CE       -19.6920  -20.9830   -4.4330 C.3   246  MET246      0.0692
     58  N        -17.7020  -21.8190    1.8330 N.3   249  VAL249     -0.1245
     59  CA       -17.8030  -20.3570    1.9340 C.3   249  VAL249      0.1561
     60  C        -18.8780  -19.9990    2.9800 C.2   249  VAL249      0.2260
     61  O        -18.7720  -18.9450    3.6000 O.2   249  VAL249     -0.2867
     62  CB       -17.9560  -19.5710    0.5840 C.3   249  VAL249      0.0252
     63  CG1      -16.6920  -19.6880   -0.2480 C.3   249  VAL249      0.0019
     64  CG2      -19.1720  -20.0050   -0.2270 C.3   249  VAL249      0.0019
     65  N        -15.8460  -27.8210  -19.3860 N.3   304  ASP304     -0.1239
     66  CA       -14.7170  -27.0830  -19.9580 C.3   304  ASP304      0.1674
     67  C        -13.4610  -27.9630  -19.9530 C.2   304  ASP304      0.2266
     68  O        -13.1310  -28.5570  -18.9240 O.2   304  ASP304     -0.2867
     69  CB       -14.4490  -25.7340  -19.2620 C.3   304  ASP304      0.1410
     70  CG       -13.6540  -24.7070  -20.0790 C.2   304  ASP304      0.3668
     71  OD1      -13.3480  -23.6300  -19.5380 O.co2 304  ASP304     -0.2456
     72  OD2      -13.3380  -24.9850  -21.2530 O.co2 304  ASP304     -0.2456
     73  N        -10.3060  -26.8700  -20.6070 N.3   306  VAL306     -0.1231
     74  CA        -9.1840  -26.1590  -20.0010 C.3   306  VAL306      0.1692
     75  C         -9.3280  -26.2670  -18.4510 C.2   306  VAL306      0.2592
     76  O         -8.3780  -26.7080  -17.7990 O.2   306  VAL306     -0.2718
     77  CB        -8.9880  -24.7150  -20.5790 C.3   306  VAL306      0.0266
     78  CG1      -10.2560  -23.8780  -20.5400 C.3   306  VAL306      0.0020
     79  CG2       -7.8200  -23.9780  -19.9490 C.3   306  VAL306      0.0020
     80  N        -10.5400  -26.0330  -17.8940 N.am  307  SER307     -0.1952
     81  CA       -10.7790  -26.1930  -16.4570 C.3   307  SER307      0.1924
     82  C        -10.7540  -27.6740  -16.0440 C.2   307  SER307      0.2314
     83  O        -10.2440  -27.9970  -14.9730 O.2   307  SER307     -0.2863
     84  CB       -12.0960  -25.5500  -16.0460 C.3   307  SER307      0.2116
     85  OG       -13.1860  -26.4310  -16.2220 O.3   307  SER307     -0.2180
     86  N        -13.3090  -29.4720  -15.2430 N.3   309  ILE309     -0.1245
     87  CA       -14.4970  -29.7780  -14.4410 C.3   309  ILE309      0.1561
     88  C        -15.7860  -29.3140  -15.1890 C.2   309  ILE309      0.2260
     89  O        -15.7280  -28.6980  -16.2570 O.2   309  ILE309     -0.2867
     90  CB       -14.4210  -29.1830  -12.9830 C.3   309  ILE309      0.0252
     91  CG1      -14.2410  -27.6530  -12.9910 C.3   309  ILE309      0.0019
     92  CG2      -13.3640  -29.8840  -12.1100 C.3   309  ILE309      0.0019
     93  CD1      -15.2520  -26.9060  -12.1780 C.3   309  ILE309      0.0001
     94  N        -19.3040  -27.0660  -14.5120 N.3   311  PHE311     -0.1241
     95  CA       -19.7370  -26.0060  -13.6250 C.3   311  PHE311      0.1605
     96  C        -20.9800  -25.3030  -14.1400 C.2   311  PHE311      0.2264
     97  O        -21.4640  -25.5890  -15.2360 O.2   311  PHE311     -0.2867
     98  CB       -18.5980  -25.0000  -13.3860 C.3   311  PHE311      0.0534
     99  CG       -18.5660  -24.4850  -11.9650 C.ar  311  PHE311     -0.0203
    100  CD1      -18.2690  -25.3370  -10.9010 C.ar  311  PHE311     -0.0042
    101  CD2      -18.8700  -23.1590  -11.6800 C.ar  311  PHE311     -0.0042
    102  CE1      -18.2740  -24.8680   -9.5880 C.ar  311  PHE311     -0.0003
    103  CE2      -18.8430  -22.6850  -10.3650 C.ar  311  PHE311     -0.0003
    104  CZ       -18.5580  -23.5460   -9.3310 C.ar  311  PHE311     -0.0000
    105  N        -21.0620  -21.7340  -17.5040 N.3   314  TYR314     -0.1241
    106  CA       -19.9220  -21.7430  -18.3940 C.3   314  TYR314      0.1605
    107  C        -20.3710  -21.1430  -19.7340 C.2   314  TYR314      0.2264
    108  O        -19.6900  -20.2390  -20.2330 O.2   314  TYR314     -0.2867
    109  CB       -19.3260  -23.1540  -18.5380 C.3   314  TYR314      0.0534
    110  CG       -18.2310  -23.4960  -17.5440 C.ar  314  TYR314     -0.0201
    111  CD1      -17.6190  -22.5070  -16.7770 C.ar  314  TYR314     -0.0009
    112  CD2      -17.7650  -24.7990  -17.4150 C.ar  314  TYR314     -0.0009
    113  CE1      -16.5830  -22.8140  -15.8900 C.ar  314  TYR314      0.0417
    114  CE2      -16.7390  -25.1190  -16.5240 C.ar  314  TYR314      0.0417
    115  CZ       -16.1280  -24.1180  -15.7860 C.ar  314  TYR314      0.1957
    116  OH       -15.0870  -24.4290  -14.9370 O.3   314  TYR314     -0.2866
    117  N        -24.3300  -17.7710  -14.1440 N.3   320  ARG320     -0.1245
    118  CA       -23.0820  -17.6880  -13.3860 C.3   320  ARG320      0.1563
    119  C        -23.1740  -16.5680  -12.3560 C.2   320  ARG320      0.2260
    120  O        -22.7200  -16.7580  -11.2300 O.2   320  ARG320     -0.2867
    121  CB       -21.8880  -17.4770  -14.3190 C.3   320  ARG320      0.0307
    122  CG       -20.5740  -17.9900  -13.7570 C.3   320  ARG320      0.0489
    123  CD       -19.5810  -16.8450  -13.6680 C.3   320  ARG320      0.2205
    124  NE       -18.1950  -17.3150  -13.6910 N.pl3 320  ARG320     -0.0865
    125  CZ       -17.4710  -17.4760  -14.7930 C.cat 320  ARG320      0.5346
    126  NH1      -18.0000  -17.2210  -15.9890 N.pl3 320  ARG320      0.1354
    127  NH2      -16.2180  -17.9060  -14.7110 N.pl3 320  ARG320      0.1354
    128  N        -23.1430  -17.9570   -8.6820 N.3   324  VAL324     -0.1245
    129  CA       -21.7440  -17.8900   -8.2320 C.3   324  VAL324      0.1561
    130  C        -21.4800  -16.4810   -7.6810 C.2   324  VAL324      0.2260
    131  O        -21.2180  -16.3530   -6.4890 O.2   324  VAL324     -0.2867
    132  CB       -20.6380  -18.3630   -9.2370 C.3   324  VAL324      0.0252
    133  CG1      -19.3740  -18.7600   -8.4800 C.3   324  VAL324      0.0019
    134  CG2      -21.1020  -19.5400  -10.1050 C.3   324  VAL324      0.0019
    135  N        -21.3550  -15.7090   -3.5090 N.3   328  ILE328     -0.1245
    136  CA       -20.0280  -15.2080   -3.0940 C.3   328  ILE328      0.1561
    137  C        -20.1690  -13.7280   -2.6580 C.2   328  ILE328      0.2260
    138  O        -19.5780  -13.3410   -1.6500 O.2   328  ILE328     -0.2867
    139  CB       -18.9290  -15.4330   -4.1830 C.3   328  ILE328      0.0252
    140  CG1      -18.6440  -16.9280   -4.3860 C.3   328  ILE328      0.0019
    141  CG2      -17.6230  -14.7060   -3.8510 C.3   328  ILE328      0.0019
    142  CD1      -17.8950  -17.2200   -5.6790 C.3   328  ILE328      0.0001
    143  N        -11.8140  -14.7450   -0.8960 N.3   380  VAL380     -0.1245
    144  CA       -13.1940  -14.7170   -1.3920 C.3   380  VAL380      0.1561
    145  C        -13.3540  -13.4380   -2.2180 C.2   380  VAL380      0.2260
    146  O        -13.9890  -13.4620   -3.2870 O.2   380  VAL380     -0.2867
    147  CB       -14.2180  -14.8180   -0.2140 C.3   380  VAL380      0.0252
    148  CG1      -15.6620  -14.7460   -0.6970 C.3   380  VAL380      0.0019
    149  CG2      -14.0060  -16.1020    0.5900 C.3   380  VAL380      0.0019
    150  N        -11.6550  -14.1090   -5.6700 N.3   383  THR383     -0.1218
    151  CA       -12.5130  -14.9620   -6.5210 C.3   383  THR383      0.1862
    152  C        -13.7170  -14.1810   -7.0200 C.2   383  THR383      0.2287
    153  O        -13.9960  -14.2240   -8.2100 O.2   383  THR383     -0.2866
    154  CB       -12.9730  -16.2510   -5.8550 C.3   383  THR383      0.1770
    155  OG1      -13.7970  -15.9470   -4.7350 O.3   383  THR383     -0.2211
    156  CG2      -11.8340  -17.1650   -5.4870 C.3   383  THR383      0.0375
    157  N        -14.5090  -13.7490  -10.9310 N.3   387  HIS387     -0.1241
    158  CA       -15.8140  -14.1800  -11.4310 C.3   387  HIS387      0.1621
    159  C        -16.5570  -13.0220  -12.0830 C.2   387  HIS387      0.2264
    160  O        -17.1790  -13.2120  -13.1370 O.2   387  HIS387     -0.2867
    161  CB       -16.6550  -14.7970  -10.3080 C.3   387  HIS387      0.0745
    162  CG       -16.3620  -16.2520  -10.1450 C.ar  387  HIS387      0.0817
    163  ND1      -17.1570  -17.2170  -10.7330 N.ar  387  HIS387     -0.2268
    164  CD2      -15.3100  -16.8580   -9.5520 C.ar  387  HIS387      0.1154
    165  CE1      -16.5820  -18.3750  -10.4540 C.ar  387  HIS387      0.1986
    166  NE2      -15.4700  -18.2060   -9.7460 N.ar  387  HIS387     -0.2212
    167  N         -6.6190  -16.6100  -18.9600 N.3   419  LEU419     -0.1245
    168  CA        -6.1540  -17.7350  -18.1730 C.3   419  LEU419      0.1561
    169  C         -5.4210  -17.2290  -16.9510 C.2   419  LEU419      0.2260
    170  O         -5.4020  -17.9350  -15.9450 O.2   419  LEU419     -0.2867
    171  CB        -5.2750  -18.6890  -18.9930 C.3   419  LEU419      0.0270
    172  CG        -5.9870  -19.5160  -20.0730 C.3   419  LEU419      0.0019
    173  CD1       -5.0350  -20.5280  -20.6940 C.3   419  LEU419      0.0001
    174  CD2       -7.2550  -20.2210  -19.5340 C.3   419  LEU419      0.0001
    175  N         -8.2300  -16.6130  -14.5180 N.3   422  GLU422     -0.1245
    176  CA        -8.6940  -17.9070  -13.9800 C.3   422  GLU422      0.1567
    177  C         -7.6570  -18.5470  -13.0090 C.2   422  GLU422      0.2260
    178  O         -8.0790  -19.0730  -11.9780 O.2   422  GLU422     -0.2867
    179  CB        -9.1010  -18.9040  -15.0720 C.3   422  GLU422      0.0388
    180  CG       -10.0970  -18.3850  -16.1040 C.3   422  GLU422      0.1160
    181  CD       -11.4700  -17.8640  -15.7150 C.2   422  GLU422      0.3649
    182  OE1      -12.2640  -17.5940  -16.6460 O.co2 422  GLU422     -0.2457
    183  OE2      -11.7560  -17.7020  -14.5060 O.co2 422  GLU422     -0.2457
    184  N         -7.7520  -16.5850   -9.8130 N.3   425  ASN425     -0.1225
    185  CA        -8.9940  -17.0890   -9.2290 C.3   425  ASN425      0.1785
    186  C         -8.7590  -18.4460   -8.5420 C.2   425  ASN425      0.2597
    187  O         -9.1190  -18.6090   -7.3720 O.2   425  ASN425     -0.2718
    188  CB       -10.0430  -17.2270  -10.3470 C.3   425  ASN425      0.1169
    189  CG       -11.4770  -17.4560   -9.9270 C.2   425  ASN425      0.2627
    190  OD1      -12.4020  -17.2060  -10.7070 O.2   425  ASN425     -0.2716
    191  ND2      -11.7050  -17.9950   -8.7420 N.am  425  ASN425     -0.0877
    192  N         -8.1660  -19.4160   -9.2890 N.am  426  LEU426     -0.1980
    193  CA        -7.8430  -20.7590   -8.8080 C.3   426  LEU426      0.1596
    194  C         -6.9150  -20.6750   -7.5950 C.2   426  LEU426      0.2287
    195  O         -7.1860  -21.3250   -6.5870 O.2   426  LEU426     -0.2864
    196  CB        -7.2310  -21.6470   -9.9220 C.3   426  LEU426      0.0297
    197  CG        -8.2200  -22.2630  -10.9330 C.3   426  LEU426      0.0022
    198  CD1       -7.5080  -22.6780  -12.2290 C.3   426  LEU426      0.0001
    199  CD2       -9.0070  -23.4450  -10.3460 C.3   426  LEU426      0.0001
    200  N         -9.0160  -19.6100   -4.5620 N.3   429  MET429     -0.1245
    201  CA        -9.9200  -20.7170   -4.1920 C.3   429  MET429      0.1570
    202  C         -9.1400  -21.9090   -3.5880 C.2   429  MET429      0.2261
    203  O         -9.6460  -22.5460   -2.6710 O.2   429  MET429     -0.2867
    204  CB       -10.7440  -21.1420   -5.4160 C.3   429  MET429      0.0387
    205  CG       -11.5900  -22.3870   -5.2420 C.3   429  MET429      0.0595
    206  SD       -11.1230  -23.6170   -6.4900 S.3   429  MET429     -0.1393
    207  CE       -11.5250  -22.7530   -7.9820 C.3   429  MET429      0.0692
    208  N         -7.4840  -20.5300   -0.1200 N.3   432  THR432     -0.1218
    209  CA        -8.3760  -20.4370    1.0380 C.3   432  THR432      0.1862
    210  C         -8.2270  -21.7230    1.8520 C.2   432  THR432      0.2287
    211  O         -8.1100  -21.6430    3.0680 O.2   432  THR432     -0.2866
    212  CB        -9.8350  -20.1410    0.6490 C.3   432  THR432      0.1770
    213  OG1       -9.8790  -19.0790   -0.2940 O.3   432  THR432     -0.2211
    214  CG2      -10.6910  -19.7500    1.8480 C.3   432  THR432      0.0375
@<TRIPOS>BOND
     1    72    70   ar
     2   173   172    1
     3    73    74    1
     4    77    78    1
     5    77    74    1
     6    77    79    1
     7   108   107    2
     8    70    71   ar
     9    70    69    1
    10   172   174    1
    11   172   171    1
    12    74    75    1
    13    66    67    1
    14    66    65    1
    15    66    69    1
    16    67    68    2
    17   107   106    1
    18   171   168    1
    19   167   168    1
    20   109   106    1
    21   109   110    1
    22    75    80   am
    23    75    76    2
    24   106   105    1
    25   168   169    1
    26     1     2    1
    27    80    81    1
    28   110   112   ar
    29   110   111   ar
    30     5     6    1
    31     5     2    1
    32   112   114   ar
    33     6     7    1
    34   169   170    2
    35     2     3    1
    36   111   113   ar
    37   182   181   ar
    38   114   115   ar
    39    81    84    1
    40    81    82    1
    41    89    88    2
    42    85    84    1
    43   180   181    1
    44   180   179    1
    45     3     4    2
    46    82    83    2
    47   126   125    1
    48   113   115   ar
    49     8     7    1
    50   115   116    1
    51   181   183   ar
    52    86    87    1
    53    97    96    2
    54    88    87    1
    55   179   176    1
    56   125   127    1
    57   125   124    2
    58   175   176    1
    59    94    95    1
    60    87    90    1
    61   121   122    1
    62   121   118    1
    63   117   118    1
    64    96    95    1
    65   176   177    1
    66   122   123    1
    67   124   123    1
    68    95    98    1
    69    16    14    1
    70    98    99    1
    71   118   119    1
    72   160   159    2
    73   177   178    2
    74    91    90    1
    75    91    93    1
    76    90    92    1
    77    14    13    1
    78   119   120    2
    79   198   197    1
    80    13    15    1
    81    13    10    1
    82   159   158    1
    83     9    10    1
    84    99   101   ar
    85    99   100   ar
    86    40    41   ar
    87    40    38   ar
    88   101   103   ar
    89    41    39   ar
    90   158   157    1
    91   158   161    1
    92    10    11    1
    93    38    35   ar
    94   197   199    1
    95   197   196    1
    96   100   102   ar
    97    31    30    2
    98   163   165   ar
    99   163   162   ar
   100   190   189    2
   101    11    12    2
   102   165   166   ar
   103   103   104   ar
   104   188   189    1
   105   188   185    1
   106   161   162    1
   107    39    37   ar
   108   162   164   ar
   109   134   132    1
   110   189   191   am
   111   196   193    1
   112   184   185    1
   113    30    29    1
   114   166   164   ar
   115    35    37   ar
   116    35    33   ar
   117   102   104   ar
   118    37    36   ar
   119   192   193    1
   120   192   186   am
   121    29    32    1
   122    29    28    1
   123   132   133    1
   124   132   129    1
   125   185   186    1
   126   193   194    1
   127   128   129    1
   128    33    32    1
   129    33    34   ar
   130   186   187    2
   131   129   130    1
   132   153   152    2
   133    36    34   ar
   134   207   206    1
   135   130   131    2
   136   194   195    2
   137   152   151    1
   138   151   154    1
   139   151   150    1
   140   206   205    1
   141   154   156    1
   142   154   155    1
   143   142   140    1
   144    48    47    1
   145   204   205    1
   146   204   201    1
   147   200   201    1
   148    57    56    1
   149   140   139    1
   150   201   202    1
   151   139   141    1
   152   139   136    1
   153    47    46    1
   154    47    49    1
   155    56    55    1
   156    55    54    1
   157    46    43    1
   158   202   203    2
   159   135   136    1
   160   146   145    2
   161   136   137    1
   162   137   138    2
   163    42    43    1
   164    54    51    1
   165    43    44    1
   166   145   144    1
   167    50    44   am
   168    50    51    1
   169    44    45    2
   170    51    52    1
   171   144   143    1
   172   144   147    1
   173    20    19    2
   174   148   147    1
   175    26    24   ar
   176    26    27   ar
   177   213   212    1
   178    63    62    1
   179    64    62    1
   180   147   149    1
   181    24    22   ar
   182   208   209    1
   183    52    53    2
   184    19    18    1
   185    18    21    1
   186    18    17    1
   187    62    59    1
   188   212   209    1
   189   212   214    1
   190    27    25   ar
   191    22    21    1
   192    22    23   ar
   193   209   210    1
   194    58    59    1
   195   210   211    2
   196    25    23   ar
   197    59    60    1
   198    60    61    2
