@<TRIPOS>MOLECULE
tmp/4n4zA01.pdb
 100 98 0 0 0
SMALL
GASTEIGER

@<TRIPOS>ATOM
      1  N        -14.7960  -38.7110    1.2060 N.3   119  GLY119     -0.1210
      2  CA       -14.3880  -39.6340    2.2620 C.3   119  GLY119      0.1956
      3  C        -15.3500  -40.8000    2.4050 C.2   119  GLY119      0.2611
      4  O        -14.9400  -41.9460    2.4280 O.2   119  GLY119     -0.2717
      5  N        -16.6390  -40.4950    2.4910 N.am  120  ASP120     -0.1973
      6  CA       -17.6870  -41.5120    2.5910 C.3   120  ASP120      0.1709
      7  C        -17.5850  -42.5200    1.4410 C.2   120  ASP120      0.2293
      8  O        -17.6510  -43.7370    1.6480 O.2   120  ASP120     -0.2864
      9  CB       -19.0850  -40.8590    2.5960 C.3   120  ASP120      0.1436
     10  CG       -20.2270  -41.8840    2.5820 C.2   120  ASP120      0.3671
     11  OD1      -21.2610  -41.6310    1.9350 O.co2 120  ASP120     -0.2456
     12  OD2      -20.0960  -42.9540    3.2110 O.co2 120  ASP120     -0.2456
     13  N        -14.4510  -44.8520    1.6630 N.3   123  ALA123     -0.1245
     14  CA       -14.3680  -45.7950    2.7730 C.3   123  ALA123      0.1562
     15  C        -15.4310  -46.8640    2.7390 C.2   123  ALA123      0.2260
     16  O        -15.2530  -47.8950    3.3560 O.2   123  ALA123     -0.2867
     17  CB       -14.4580  -45.0490    4.0950 C.3   123  ALA123      0.0290
     18  N        -20.0280  -35.7440    6.7270 N.3   155  GLN155     -0.1231
     19  CA       -18.8710  -36.6280    6.8660 C.3   155  GLN155      0.1683
     20  C        -17.6560  -36.0190    6.1180 C.2   155  GLN155      0.2434
     21  O        -17.3720  -36.4010    4.9820 O.2   155  GLN155     -0.2733
     22  CB       -19.2470  -38.0520    6.3650 C.3   155  GLN155      0.0380
     23  CG       -18.4980  -39.2180    7.0290 C.3   155  GLN155      0.0905
     24  CD       -19.2660  -40.5470    7.0220 C.2   155  GLN155      0.2608
     25  OE1      -18.7230  -41.6040    6.6370 O.2   155  GLN155     -0.2717
     26  NE2      -20.5220  -40.5070    7.4610 N.am  155  GLN155     -0.0878
     27  N        -16.9400  -35.0630    6.7620 N.am  156  PRO156     -0.2729
     28  CA       -15.8030  -34.3280    6.1660 C.3   156  PRO156      0.1401
     29  C        -14.6510  -35.2020    5.6920 C.2   156  PRO156      0.2269
     30  O        -14.5180  -36.3540    6.1490 O.2   156  PRO156     -0.2865
     31  CB       -15.3150  -33.4260    7.2990 C.3   156  PRO156      0.0296
     32  CG       -16.4850  -33.2910    8.1840 C.3   156  PRO156      0.0237
     33  CD       -17.1800  -34.6120    8.1370 C.3   156  PRO156      0.0939
     34  N        -11.2730  -36.6500    5.7220 N.3   158  PRO158     -0.2102
     35  CA       -10.4910  -36.8600    6.9470 C.3   158  PRO158      0.1504
     36  C         -9.0300  -36.4570    6.9040 C.2   158  PRO158      0.2575
     37  O         -8.4220  -36.4040    7.9470 O.2   158  PRO158     -0.2718
     38  CB       -10.5820  -38.3770    7.1810 C.3   158  PRO158      0.0282
     39  CG       -11.5950  -38.8900    6.2140 C.3   158  PRO158      0.0208
     40  CD       -11.5770  -37.9300    5.0660 C.3   158  PRO158      0.0893
     41  N         -8.4600  -36.1670    5.7400 N.am  159  PHE159     -0.1977
     42  CA        -7.0330  -35.8270    5.6750 C.3   159  PHE159      0.1639
     43  C         -6.7940  -34.3440    5.3490 C.2   159  PHE159      0.2290
     44  O         -7.4430  -33.7800    4.4440 O.2   159  PHE159     -0.2864
     45  CB        -6.3120  -36.7180    4.6650 C.3   159  PHE159      0.0560
     46  CG        -6.8050  -38.1260    4.6470 C.ar  159  PHE159     -0.0200
     47  CD1       -6.7250  -38.9010    5.7630 C.ar  159  PHE159     -0.0042
     48  CD2       -7.3540  -38.6670    3.5130 C.ar  159  PHE159     -0.0042
     49  CE1       -7.1690  -40.2060    5.7610 C.ar  159  PHE159     -0.0003
     50  CE2       -7.8130  -39.9750    3.5010 C.ar  159  PHE159     -0.0003
     51  CZ        -7.7160  -40.7480    4.6320 C.ar  159  PHE159     -0.0000
     52  N          3.3430  -37.5550    6.0320 N.3   178  PHE178     -0.1241
     53  CA         2.0310  -38.2030    6.0670 C.3   178  PHE178      0.1605
     54  C          1.9590  -39.5000    5.2470 C.2   178  PHE178      0.2264
     55  O          2.5120  -39.6190    4.1320 O.2   178  PHE178     -0.2867
     56  CB         0.9400  -37.2390    5.5840 C.3   178  PHE178      0.0534
     57  CG         0.5250  -36.2210    6.6100 C.ar  178  PHE178     -0.0203
     58  CD1       -0.0570  -36.6140    7.7930 C.ar  178  PHE178     -0.0042
     59  CD2        0.6930  -34.8630    6.3700 C.ar  178  PHE178     -0.0042
     60  CE1       -0.4460  -35.6790    8.7350 C.ar  178  PHE178     -0.0003
     61  CE2        0.3100  -33.9170    7.3040 C.ar  178  PHE178     -0.0003
     62  CZ        -0.2590  -34.3310    8.4940 C.ar  178  PHE178     -0.0000
     63  N         -9.9360  -44.6210    5.4830 N.3   183  PRO183     -0.2102
     64  CA       -10.6620  -44.3480    6.7260 C.3   183  PRO183      0.1504
     65  C        -11.7120  -45.3920    7.0220 C.2   183  PRO183      0.2576
     66  O        -11.9710  -46.2470    6.1820 O.2   183  PRO183     -0.2718
     67  CB       -11.3460  -42.9890    6.4590 C.3   183  PRO183      0.0282
     68  CG       -11.3610  -42.8330    4.9860 C.3   183  PRO183      0.0208
     69  CD       -10.1440  -43.5620    4.4800 C.3   183  PRO183      0.0893
     70  N        -12.3130  -45.3070    8.2050 N.am  184  LYS184     -0.1966
     71  CA       -13.3730  -46.2220    8.5850 C.3   184  LYS184      0.1728
     72  C        -14.6470  -45.8170    7.9000 C.2   184  LYS184      0.2616
     73  O        -14.8890  -44.6340    7.6970 O.2   184  LYS184     -0.2715
     74  CB       -13.6020  -46.2070   10.0950 C.3   184  LYS184      0.0311
     75  CG       -14.1950  -47.5140   10.5910 C.3   184  LYS184      0.0038
     76  CD       -15.3940  -47.3800   11.5300 C.3   184  LYS184      0.0206
     77  CE       -16.1110  -48.7280   11.6070 C.3   184  LYS184      0.1093
     78  NZ       -17.4550  -48.6830   12.2300 N.3   184  LYS184     -0.1314
     79  N        -15.4680  -46.7930    7.5450 N.am  185  CYS185     -0.1954
     80  CA       -16.7740  -46.4790    7.0020 C.3   185  CYS185      0.1843
     81  C        -17.7300  -46.1940    8.1530 C.2   185  CYS185      0.2625
     82  O        -17.9150  -47.0310    9.0410 O.2   185  CYS185     -0.2714
     83  CB       -17.2810  -47.6270    6.1440 C.3   185  CYS185      0.0997
     84  SG       -18.9820  -47.4520    5.5310 S.3   185  CYS185     -0.0797
     85  N        -18.3140  -44.9940    8.1370 N.am  186  ASN186     -0.1972
     86  CA       -19.2640  -44.5450    9.1650 C.3   186  ASN186      0.1688
     87  C        -20.6600  -44.3380    8.6070 C.2   186  ASN186      0.2292
     88  O        -20.8200  -43.9200    7.4640 O.2   186  ASN186     -0.2864
     89  CB       -18.8150  -43.2200    9.7720 C.3   186  ASN186      0.1181
     90  CG       -17.4270  -43.2900   10.3510 C.2   186  ASN186      0.2629
     91  OD1      -17.0880  -44.2290   11.0860 O.2   186  ASN186     -0.2716
     92  ND2      -16.6030  -42.2870   10.0260 N.am  186  ASN186     -0.0877
     93  N        -20.1030  -37.4140   11.3250 N.3   190  ASP190     -0.1239
     94  CA       -19.0090  -37.4330   12.2870 C.3   190  ASP190      0.1674
     95  C        -19.4140  -36.7060   13.5640 C.2   190  ASP190      0.2266
     96  O        -18.9850  -37.0680   14.6590 O.2   190  ASP190     -0.2867
     97  CB       -17.7500  -36.8360   11.6800 C.3   190  ASP190      0.1410
     98  CG       -17.0930  -37.7660   10.6240 C.2   190  ASP190      0.3668
     99  OD1      -17.6540  -38.8510   10.2800 O.co2 190  ASP190     -0.2456
    100  OD2      -15.9930  -37.4100   10.1290 O.co2 190  ASP190     -0.2456
@<TRIPOS>BOND
     1     1     2    1
     2     7     8    2
     3     7     6    1
     4    13    14    1
     5    11    10   ar
     6     2     3    1
     7     3     4    2
     8     3     5   am
     9     5     6    1
    10    10     9    1
    11    10    12   ar
    12     6     9    1
    13    15    14    1
    14    15    16    2
    15    14    17    1
    16    50    48   ar
    17    50    51   ar
    18    48    46   ar
    19    55    54    2
    20    44    43    2
    21    69    68    1
    22    69    63    1
    23    51    49   ar
    24    46    45    1
    25    46    47   ar
    26    45    42    1
    27    21    20    2
    28    68    67    1
    29    40    34    1
    30    40    39    1
    31    54    53    1
    32    43    42    1
    33    63    64    1
    34    84    83    1
    35    56    53    1
    36    56    57    1
    37    42    41    1
    38    29    30    2
    39    29    28    1
    40    34    35    1
    41    41    36   am
    42    49    47   ar
    43    52    53    1
    44    20    27   am
    45    20    19    1
    46    83    80    1
    47    28    27    1
    48    28    31    1
    49    66    65    2
    50    39    38    1
    51    22    19    1
    52    22    23    1
    53    59    57   ar
    54    59    61   ar
    55    67    64    1
    56    57    58   ar
    57    25    24    2
    58    64    65    1
    59    18    19    1
    60    27    33    1
    61    36    35    1
    62    36    37    2
    63    35    38    1
    64    80    79    1
    65    80    81    1
    66    65    70   am
    67    24    23    1
    68    24    26   am
    69    31    32    1
    70    61    62   ar
    71    88    87    2
    72    79    72   am
    73    73    72    2
    74    58    60   ar
    75    72    71    1
    76    33    32    1
    77    85    81   am
    78    85    86    1
    79    81    82    2
    80    70    71    1
    81    62    60   ar
    82    71    74    1
    83    87    86    1
    84    86    89    1
    85    89    90    1
    86    92    90   am
    87    74    75    1
    88   100    98   ar
    89    99    98   ar
    90    90    91    2
    91    75    76    1
    92    98    97    1
    93    93    94    1
    94    76    77    1
    95    77    78    1
    96    97    94    1
    97    94    95    1
    98    95    96    2
