@<TRIPOS>MOLECULE
tmp/4n54B01.pdb
 129 123 0 0 0
SMALL
GASTEIGER

@<TRIPOS>ATOM
      1  N         36.7990   -1.7840   22.7490 N.3    12  ARG12      -0.1245
      2  CA        36.0320   -1.1390   23.7990 C.3    12  ARG12       0.1563
      3  C         35.6150    0.2780   23.4410 C.2    12  ARG12       0.2260
      4  O         34.4870    0.6720   23.6670 O.2    12  ARG12      -0.2867
      5  CB        36.8320   -1.1250   25.0920 C.3    12  ARG12       0.0307
      6  CG        37.0110   -2.4710   25.7690 C.3    12  ARG12       0.0489
      7  CD        37.6450   -2.3070   27.1230 C.3    12  ARG12       0.2205
      8  NE        38.7810   -1.4050   27.0650 N.pl3  12  ARG12      -0.0865
      9  CZ        39.3140   -0.7950   28.1140 C.cat  12  ARG12       0.5346
     10  NH1       38.8130   -0.9880   29.3130 N.pl3  12  ARG12       0.1354
     11  NH2       40.3400    0.0190   27.9550 N.pl3  12  ARG12       0.1354
     12  N         44.3680    8.6210   23.8080 N.3    96  LYS96      -0.1245
     13  CA        45.3640    8.6940   24.8380 C.3    96  LYS96       0.1561
     14  C         45.7500    7.2750   25.2550 C.2    96  LYS96       0.2260
     15  O         45.0410    6.3380   24.9550 O.2    96  LYS96      -0.2867
     16  CB        44.7950    9.4810   26.0180 C.3    96  LYS96       0.0271
     17  CG        43.4510    8.9770   26.5110 C.3    96  LYS96       0.0035
     18  CD        43.6110    8.1560   27.7720 C.3    96  LYS96       0.0206
     19  CE        43.4100    6.6980   27.5320 C.3    96  LYS96       0.1093
     20  NZ        43.8110    5.8960   28.6760 N.3    96  LYS96      -0.1314
     21  N         39.2820   13.5480   26.1370 N.3   125  MET125     -0.1230
     22  CA        37.9070   13.9300   25.9350 C.3   125  MET125      0.1702
     23  C         37.2920   14.6960   27.0900 C.2   125  MET125      0.2592
     24  O         36.3010   15.3660   26.9100 O.2   125  MET125     -0.2718
     25  CB        37.0610   12.7050   25.6280 C.3   125  MET125      0.0401
     26  CG        36.7150   11.8640   26.8350 C.3   125  MET125      0.0596
     27  SD        38.1150   11.1180   27.6450 S.3   125  MET125     -0.1393
     28  CE        37.2940   10.2580   28.9560 C.3   125  MET125      0.0692
     29  N         37.8850   14.5930   28.2650 N.am  126  ARG126     -0.1980
     30  CA        37.3700   15.2930   29.4190 C.3   126  ARG126      0.1597
     31  C         37.3270   16.7930   29.2090 C.2   126  ARG126      0.2287
     32  O         36.4880   17.4620   29.7680 O.2   126  ARG126     -0.2864
     33  CB        38.1320   14.9330   30.6780 C.3   126  ARG126      0.0334
     34  CG        37.8820   13.5010   31.1280 C.3   126  ARG126      0.0492
     35  CD        38.3060   13.2750   32.5410 C.3   126  ARG126      0.2205
     36  NE        38.5400   11.8710   32.8080 N.pl3 126  ARG126     -0.0865
     37  CZ        38.9810   11.4020   33.9550 C.cat 126  ARG126      0.5346
     38  NH1       39.2230   12.2200   34.9550 N.pl3 126  ARG126      0.1354
     39  NH2       39.1710   10.1150   34.1040 N.pl3 126  ARG126      0.1354
     40  N         37.5080    2.5380   37.5470 N.3   156  ASP156     -0.1239
     41  CA        36.6930    1.6880   36.6920 C.3   156  ASP156      0.1674
     42  C         35.7280    0.7970   37.4890 C.2   156  ASP156      0.2266
     43  O         35.9920    0.4530   38.6190 O.2   156  ASP156     -0.2867
     44  CB        37.5890    0.8260   35.7890 C.3   156  ASP156      0.1410
     45  CG        37.6700    1.3370   34.3630 C.2   156  ASP156      0.3668
     46  OD1       36.8530    2.1800   33.9670 O.co2 156  ASP156     -0.2456
     47  OD2       38.5550    0.8740   33.6250 O.co2 156  ASP156     -0.2456
     48  N         41.5470   -6.7200   27.6570 N.3   167  PHE167     -0.1241
     49  CA        42.2640   -5.5550   27.1650 C.3   167  PHE167      0.1605
     50  C         43.6830   -5.5710   27.6780 C.2   167  PHE167      0.2264
     51  O         44.6160   -5.4040   26.9250 O.2   167  PHE167     -0.2867
     52  CB        41.5330   -4.3020   27.6300 C.3   167  PHE167      0.0534
     53  CG        42.3630   -3.0540   27.6290 C.ar  167  PHE167     -0.0203
     54  CD1       42.6180   -2.3690   26.4610 C.ar  167  PHE167     -0.0042
     55  CD2       42.8340   -2.5240   28.8050 C.ar  167  PHE167     -0.0042
     56  CE1       43.3530   -1.1930   26.4790 C.ar  167  PHE167     -0.0003
     57  CE2       43.5670   -1.3530   28.8120 C.ar  167  PHE167     -0.0003
     58  CZ        43.8270   -0.6990   27.6480 C.ar  167  PHE167     -0.0000
     59  N         47.1990    4.4690   31.8590 N.3   179  ASP179     -0.1225
     60  CA        45.9330    4.1610   31.2140 C.3   179  ASP179      0.1805
     61  C         44.7570    4.9460   31.8020 C.2   179  ASP179      0.2597
     62  O         43.8710    5.3320   31.0720 O.2   179  ASP179     -0.2718
     63  CB        45.6550    2.6640   31.2620 C.3   179  ASP179      0.1424
     64  CG        44.4480    2.2740   30.4610 C.2   179  ASP179      0.3668
     65  OD1       44.3370    2.6930   29.3040 O.co2 179  ASP179     -0.2456
     66  OD2       43.5990    1.5610   30.9920 O.co2 179  ASP179     -0.2456
     67  N         44.7650    5.1640   33.1120 N.am  180  MET180     -0.1979
     68  CA        43.7060    5.9050   33.8000 C.3   180  MET180      0.1605
     69  C         44.1120    7.3230   34.2010 C.2   180  MET180      0.2287
     70  O         43.5230    8.2900   33.7580 O.2   180  MET180     -0.2864
     71  CB        43.2400    5.1760   35.0740 C.3   180  MET180      0.0413
     72  CG        42.3400    3.9850   34.8930 C.3   180  MET180      0.0598
     73  SD        40.9270    4.2180   33.8290 S.3   180  MET180     -0.1393
     74  CE        39.9180    5.2740   34.8120 C.3   180  MET180      0.0692
     75  N         44.4140   10.9830   32.3660 N.3   183  HIS183     -0.1241
     76  CA        43.2950   11.8980   32.2240 C.3   183  HIS183      0.1621
     77  C         43.3310   12.9500   33.3110 C.2   183  HIS183      0.2264
     78  O         43.0960   14.1180   33.0570 O.2   183  HIS183     -0.2867
     79  CB        41.9870   11.1470   32.3480 C.3   183  HIS183      0.0745
     80  CG        41.6170   10.3470   31.1400 C.ar  183  HIS183      0.0817
     81  ND1       41.2760   10.9250   29.9430 N.ar  183  HIS183     -0.2268
     82  CD2       41.4900    9.0170   30.9620 C.ar  183  HIS183      0.1154
     83  CE1       40.9770    9.9860   29.0730 C.ar  183  HIS183      0.1986
     84  NE2       41.0950    8.8190   29.6700 N.ar  183  HIS183     -0.2212
     85  N         40.3910   -0.1920   39.4920 N.3   238  ARG238     -0.1245
     86  CA        39.6240   -1.0410   38.6010 C.3   238  ARG238      0.1563
     87  C         38.4460   -1.6720   39.3130 C.2   238  ARG238      0.2260
     88  O         37.7790   -2.5090   38.7540 O.2   238  ARG238     -0.2867
     89  CB        40.5070   -2.1390   38.0120 C.3   238  ARG238      0.0307
     90  CG        41.7310   -1.6650   37.2690 C.3   238  ARG238      0.0489
     91  CD        41.4050   -0.8530   36.0510 C.3   238  ARG238      0.2205
     92  NE        42.5990   -0.3650   35.3960 N.pl3 238  ARG238     -0.0865
     93  CZ        42.6140    0.3470   34.2840 C.cat 238  ARG238      0.5346
     94  NH1       41.4930    0.6670   33.6750 N.pl3 238  ARG238      0.1354
     95  NH2       43.7600    0.7330   33.7730 N.pl3 238  ARG238      0.1354
     96  N         31.0380    3.7210   37.6510 N.3   244  TYR244     -0.1241
     97  CA        32.1860    4.4230   37.0990 C.3   244  TYR244      0.1605
     98  C         32.4410    5.6890   37.8920 C.2   244  TYR244      0.2264
     99  O         31.7970    6.6970   37.6710 O.2   244  TYR244     -0.2867
    100  CB        31.9090    4.7800   35.6550 C.3   244  TYR244      0.0534
    101  CG        33.0870    5.2930   34.8780 C.ar  244  TYR244     -0.0201
    102  CD1       34.3540    4.7870   35.0820 C.ar  244  TYR244     -0.0009
    103  CD2       32.9270    6.2520   33.9120 C.ar  244  TYR244     -0.0009
    104  CE1       35.4220    5.2410   34.3650 C.ar  244  TYR244      0.0417
    105  CE2       33.9830    6.7080   33.1920 C.ar  244  TYR244      0.0417
    106  CZ        35.2330    6.2010   33.4130 C.ar  244  TYR244      0.1957
    107  OH        36.2840    6.6610   32.6750 O.3   244  TYR244     -0.2866
    108  N         32.6090    4.2450   31.0580 N.3   284  PHE284     -0.1241
    109  CA        33.0100    5.3810   30.2410 C.3   284  PHE284      0.1605
    110  C         32.1320    5.6930   29.0200 C.2   284  PHE284      0.2264
    111  O         31.9560    6.8490   28.6990 O.2   284  PHE284     -0.2867
    112  CB        34.5040    5.3540   29.8720 C.3   284  PHE284      0.0534
    113  CG        34.8710    4.3150   28.8640 C.ar  284  PHE284     -0.0203
    114  CD1       34.6880    4.5370   27.5260 C.ar  284  PHE284     -0.0042
    115  CD2       35.4180    3.1210   29.2600 C.ar  284  PHE284     -0.0042
    116  CE1       35.0140    3.5790   26.6110 C.ar  284  PHE284     -0.0003
    117  CE2       35.7580    2.1650   28.3440 C.ar  284  PHE284     -0.0003
    118  CZ        35.5550    2.3980   27.0200 C.ar  284  PHE284     -0.0000
    119  N         32.8900   12.2970   23.9440 N.3   292  PHE292     -0.1241
    120  CA        33.3890   11.5960   22.7760 C.3   292  PHE292      0.1605
    121  C         32.8220   12.1910   21.4990 C.2   292  PHE292      0.2264
    122  O         33.5520   12.4290   20.5650 O.2   292  PHE292     -0.2867
    123  CB        33.0960   10.0980   22.8580 C.3   292  PHE292      0.0534
    124  CG        33.9230    9.3700   23.8690 C.ar  292  PHE292     -0.0203
    125  CD1       35.2510    9.6480   24.0270 C.ar  292  PHE292     -0.0042
    126  CD2       33.3640    8.4150   24.6740 C.ar  292  PHE292     -0.0042
    127  CE1       35.9920    8.9780   24.9590 C.ar  292  PHE292     -0.0003
    128  CE2       34.1040    7.7480   25.5990 C.ar  292  PHE292     -0.0003
    129  CZ        35.4020    8.0220   25.7420 C.ar  292  PHE292     -0.0000
@<TRIPOS>BOND
     1   122   121    2
     2   121   120    1
     3     1     2    1
     4   120   123    1
     5   120   119    1
     6   123   124    1
     7     3     4    2
     8     3     2    1
     9     2     5    1
    10    12    13    1
    11   124   125   ar
    12   124   126   ar
    13   125   127   ar
    14   126   128   ar
    15    13    14    1
    16    13    16    1
    17    15    14    2
    18   127   129   ar
    19     5     6    1
    20   128   129   ar
    21    25    22    1
    22    25    26    1
    23     6     7    1
    24    22    21    1
    25    22    23    1
    26    16    17    1
    27    54    56   ar
    28    54    53   ar
    29    56    58   ar
    30    17    18    1
    31   116   118   ar
    32   116   114   ar
    33    26    27    1
    34    24    23    2
    35    51    50    2
    36   118   117   ar
    37     8     7    1
    38     8     9    2
    39    23    29   am
    40    49    52    1
    41    49    48    1
    42    49    50    1
    43   114   113   ar
    44    19    18    1
    45    19    20    1
    46    53    52    1
    47    53    55   ar
    48    27    28    1
    49    58    57   ar
    50    11     9    1
    51     9    10    1
    52    29    30    1
    53   117   115   ar
    54   111   110    2
    55    55    57   ar
    56   113   115   ar
    57   113   112    1
    58   110   109    1
    59    83    84   ar
    60    83    81   ar
    61    31    30    1
    62    31    32    2
    63    65    64   ar
    64    30    33    1
    65    84    82   ar
    66   112   109    1
    67    81    80   ar
    68   109   108    1
    69    64    66   ar
    70    64    63    1
    71    33    34    1
    72    82    80   ar
    73    62    61    2
    74    34    35    1
    75    80    79    1
    76    60    63    1
    77    60    61    1
    78    60    59    1
    79    61    67   am
    80    76    79    1
    81    76    75    1
    82    76    77    1
    83    35    36    1
    84   107   106    1
    85    36    37    2
    86    78    77    2
    87    67    68    1
    88   105   106   ar
    89   105   103   ar
    90   106   104   ar
    91    47    45   ar
    92    94    93    1
    93    70    69    2
    94    95    93    1
    95    68    69    1
    96    68    71    1
    97    73    74    1
    98    73    72    1
    99   103   101   ar
   100    37    39    1
   101    37    38    1
   102    46    45   ar
   103    93    92    2
   104    45    44    1
   105   104   102   ar
   106   101   102   ar
   107   101   100    1
   108    72    71    1
   109    92    91    1
   110   100    97    1
   111    44    41    1
   112    91    90    1
   113    41    42    1
   114    41    40    1
   115    97    96    1
   116    97    98    1
   117    90    89    1
   118    42    43    2
   119    99    98    2
   120    89    86    1
   121    86    87    1
   122    86    85    1
   123    88    87    2
