@<TRIPOS>MOLECULE
tmp/4n57A00.pdb
 171 163 0 0 0
SMALL
GASTEIGER

@<TRIPOS>ATOM
      1  N         -2.4580  -11.1650   49.9330 N.3    27  SER27      -0.1202
      2  CA        -3.6040  -11.0910   49.0420 C.3    27  SER27       0.2020
      3  C         -3.1860  -11.1250   47.5730 C.2    27  SER27       0.2619
      4  O         -3.9010  -11.6540   46.7170 O.2    27  SER27      -0.2717
      5  CB        -4.4080   -9.8260   49.3250 C.3    27  SER27       0.2103
      6  OG        -5.5810   -9.8130   48.5430 O.3    27  SER27      -0.2182
      7  N         -2.0220  -10.5630   47.2870 N.am   28  GLY28      -0.1942
      8  CA        -1.5040  -10.5850   45.9420 C.3    28  GLY28       0.2014
      9  C         -0.1690   -9.8900   45.8160 C.2    28  GLY28       0.2639
     10  O          0.2590   -9.1800   46.7160 O.2    28  GLY28      -0.2714
     11  N          0.5020  -10.1510   44.7030 N.am   29  LYS29      -0.1963
     12  CA         1.6580   -9.3890   44.2680 C.3    29  LYS29       0.1728
     13  C          1.3360   -8.6380   42.9930 C.2    29  LYS29       0.2617
     14  O          0.5130   -9.0560   42.1690 O.2    29  LYS29      -0.2715
     15  CB         2.8730  -10.2780   44.0030 C.3    29  LYS29       0.0311
     16  CG         3.6460  -10.6900   45.2090 C.3    29  LYS29       0.0038
     17  CD         4.8890  -11.3950   44.7650 C.3    29  LYS29       0.0206
     18  CE         5.7080  -10.4670   43.8920 C.3    29  LYS29       0.1093
     19  NZ         6.7090   -9.7460   44.7140 N.3    29  LYS29      -0.1314
     20  N          2.0210   -7.5270   42.8240 N.am   30  GLY30      -0.1940
     21  CA         1.9180   -6.7980   41.5930 C.3    30  GLY30       0.2014
     22  C          3.3020   -6.4070   41.1480 C.2    30  GLY30       0.2639
     23  O          4.3080   -6.7150   41.7860 O.2    30  GLY30      -0.2714
     24  N          3.3320   -5.7240   40.0180 N.am   31  ASN31      -0.1958
     25  CA         4.5320   -5.0810   39.5120 C.3    31  ASN31       0.1819
     26  C          5.2140   -4.1210   40.5080 C.2    31  ASN31       0.2621
     27  O          6.4330   -3.9540   40.4540 O.2    31  ASN31      -0.2715
     28  CB         4.1500   -4.3700   38.2150 C.3    31  ASN31       0.1195
     29  CG         3.3060   -5.2600   37.3080 C.2    31  ASN31       0.2630
     30  OD1        3.8410   -6.1030   36.5790 O.2    31  ASN31      -0.2716
     31  ND2        1.9830   -5.1570   37.4360 N.am   31  ASN31      -0.0877
     32  N          4.4440   -3.5150   41.4210 N.am   32  ASP32      -0.1957
     33  CA         5.0080   -2.5550   42.3870 C.3    32  ASP32       0.1840
     34  C          5.0220   -3.0020   43.8480 C.2    32  ASP32       0.2622
     35  O          5.9830   -2.7460   44.5760 O.2    32  ASP32      -0.2715
     36  CB         4.2520   -1.2220   42.3080 C.3    32  ASP32       0.1450
     37  CG         4.6720   -0.4050   41.1320 C.2    32  ASP32       0.3671
     38  OD1        5.8480   -0.5210   40.7220 O.co2  32  ASP32      -0.2456
     39  OD2        3.8390    0.3460   40.6140 O.co2  32  ASP32      -0.2456
     40  N          3.9490   -3.6470   44.2830 N.am   33  CYS33      -0.1968
     41  CA         3.7790   -3.9390   45.6950 C.3    33  CYS33       0.1712
     42  C          3.3950   -5.3870   45.9800 C.2    33  CYS33       0.2296
     43  O          2.9110   -6.1090   45.1080 O.2    33  CYS33      -0.2864
     44  CB         2.7060   -3.0230   46.2910 C.3    33  CYS33       0.0983
     45  SG         3.1050   -1.2400   46.2240 S.3    33  CYS33      -0.0798
     46  N          0.6340   -7.1530   48.3880 N.3    35  ALA35      -0.1245
     47  CA        -0.6060   -6.7640   49.0360 C.3    35  ALA35       0.1562
     48  C         -0.9920   -7.7380   50.1460 C.2    35  ALA35       0.2260
     49  O         -0.9750   -8.9590   49.9660 O.2    35  ALA35      -0.2867
     50  CB        -1.7370   -6.6400   47.9920 C.3    35  ALA35       0.0290
     51  N         -6.6920   -4.0390   52.9460 N.3    43  ILE43      -0.1245
     52  CA        -5.5690   -4.4240   52.1070 C.3    43  ILE43       0.1561
     53  C         -4.4120   -3.4550   52.2860 C.2    43  ILE43       0.2260
     54  O         -4.5190   -2.2760   51.9270 O.2    43  ILE43      -0.2867
     55  CB        -5.9450   -4.4570   50.6080 C.3    43  ILE43       0.0252
     56  CG1       -7.1570   -5.3590   50.3800 C.3    43  ILE43       0.0019
     57  CG2       -4.7310   -4.8950   49.7580 C.3    43  ILE43       0.0019
     58  CD1       -6.8520   -6.8280   50.5720 C.3    43  ILE43       0.0001
     59  N         -0.5800   -2.3430   51.1960 N.3    45  LYS45      -0.1245
     60  CA         0.4070   -2.4630   50.1260 C.3    45  LYS45       0.1561
     61  C          1.7840   -2.0320   50.6130 C.2    45  LYS45       0.2260
     62  O          1.9700   -0.9020   51.0780 O.2    45  LYS45      -0.2867
     63  CB         0.0030   -1.6200   48.9020 C.3    45  LYS45       0.0271
     64  CG        -1.2760   -2.0820   48.2530 C.3    45  LYS45       0.0035
     65  CD        -1.7190   -1.1810   47.1200 C.3    45  LYS45       0.0206
     66  CE        -1.0570   -1.5780   45.8370 C.3    45  LYS45       0.1093
     67  NZ        -1.6980   -0.9660   44.6480 N.3    45  LYS45      -0.1314
     68  N        -10.9100    1.5860   46.1970 N.3    75  PRO75      -0.2116
     69  CA       -10.3900    1.4930   47.5640 C.3    75  PRO75       0.1372
     70  C        -10.3870    2.8550   48.2510 C.2    75  PRO75       0.2244
     71  O        -10.1370    3.8850   47.6140 O.2    75  PRO75      -0.2868
     72  CB        -8.9580    0.9680   47.3730 C.3    75  PRO75       0.0268
     73  CG        -8.9510    0.3470   45.9850 C.3    75  PRO75       0.0207
     74  CD        -9.9160    1.1880   45.1890 C.3    75  PRO75       0.0892
     75  N         -5.7990    0.1330   52.7890 N.3    94  PHE94      -0.1227
     76  CA        -7.0290    0.4840   52.0820 C.3    94  PHE94       0.1736
     77  C         -8.2000   -0.3850   52.4910 C.2    94  PHE94       0.2596
     78  O         -8.0160   -1.4630   53.0420 O.2    94  PHE94      -0.2718
     79  CB        -6.8410    0.3500   50.5630 C.3    94  PHE94       0.0547
     80  CG        -5.6250    1.0670   50.0210 C.ar   94  PHE94      -0.0202
     81  CD1       -5.7090    2.3870   49.5990 C.ar   94  PHE94      -0.0042
     82  CD2       -4.4110    0.4140   49.9150 C.ar   94  PHE94      -0.0042
     83  CE1       -4.6040    3.0380   49.0930 C.ar   94  PHE94      -0.0003
     84  CE2       -3.3070    1.0610   49.4110 C.ar   94  PHE94      -0.0003
     85  CZ        -3.4050    2.3940   49.0050 C.ar   94  PHE94      -0.0000
     86  N         -9.4110    0.0750   52.1970 N.am   95  THR95      -0.1939
     87  CA       -10.5710   -0.7960   52.3120 C.3    95  THR95       0.2028
     88  C        -10.4580   -1.8970   51.2570 C.2    95  THR95       0.2642
     89  O         -9.9480   -1.6690   50.1650 O.2    95  THR95      -0.2714
     90  CB       -11.9100   -0.0390   52.1300 C.3    95  THR95       0.1808
     91  OG1      -11.8070    0.8640   51.0250 O.3    95  THR95      -0.2208
     92  CG2      -12.2980    0.7280   53.3950 C.3    95  THR95       0.0379
     93  N        -10.9150   -3.0930   51.5920 N.am   96  LYS96      -0.1963
     94  CA       -10.9170   -4.2030   50.6400 C.3    96  LYS96       0.1728
     95  C        -12.1840   -4.1810   49.7950 C.2    96  LYS96       0.2616
     96  O        -13.2900   -4.1550   50.3240 O.2    96  LYS96      -0.2715
     97  CB       -10.7990   -5.5310   51.3850 C.3    96  LYS96       0.0311
     98  CG       -11.0140   -6.8090   50.5560 C.3    96  LYS96       0.0038
     99  CD       -11.3250   -7.9480   51.5500 C.3    96  LYS96       0.0206
    100  CE       -11.2090   -9.3290   50.9530 C.3    96  LYS96       0.1093
    101  NZ       -11.7490  -10.3170   51.9190 N.3    96  LYS96      -0.1314
    102  N        -12.0320   -4.1870   48.4770 N.am   97  ILE97      -0.1977
    103  CA       -13.2020   -4.3120   47.6140 C.3    97  ILE97       0.1596
    104  C        -13.5620   -5.7990   47.4810 C.2    97  ILE97       0.2287
    105  O        -12.7230   -6.6170   47.0980 O.2    97  ILE97      -0.2864
    106  CB       -12.9550   -3.6910   46.2180 C.3    97  ILE97       0.0276
    107  CG1      -12.3800   -2.2670   46.3370 C.3    97  ILE97       0.0022
    108  CG2      -14.2360   -3.7030   45.4010 C.3    97  ILE97       0.0022
    109  CD1      -13.3070   -1.2580   47.0520 C.3    97  ILE97       0.0001
    110  N         -4.0560    1.4950   34.1630 N.3   196  ASP196     -0.1239
    111  CA        -3.7450    0.0800   34.2690 C.3   196  ASP196      0.1674
    112  C         -5.0330   -0.7080   34.2330 C.2   196  ASP196      0.2266
    113  O         -5.2670   -1.6130   35.0330 O.2   196  ASP196     -0.2867
    114  CB        -2.9650   -0.2240   35.5380 C.3   196  ASP196      0.1410
    115  CG        -2.1670   -1.5150   35.4170 C.2   196  ASP196      0.3668
    116  OD1       -2.4590   -2.3210   34.4960 O.co2 196  ASP196     -0.2456
    117  OD2       -1.2410   -1.7140   36.2210 O.co2 196  ASP196     -0.2456
    118  N         -8.0670   -7.9420   35.6450 N.3   200  ASP200     -0.1225
    119  CA        -7.7780   -8.3420   37.0230 C.3   200  ASP200      0.1805
    120  C         -8.0370   -7.2330   38.0350 C.2   200  ASP200      0.2597
    121  O         -8.0570   -7.4860   39.2430 O.2   200  ASP200     -0.2718
    122  CB        -6.3450   -8.8480   37.1580 C.3   200  ASP200      0.1424
    123  CG        -6.2810  -10.3620   37.3270 C.2   200  ASP200      0.3668
    124  OD1       -7.2420  -11.0460   36.9080 O.co2 200  ASP200     -0.2456
    125  OD2       -5.2800  -10.8610   37.8910 O.co2 200  ASP200     -0.2456
    126  N         -8.2500   -6.0130   37.5440 N.am  201  HIS201     -0.1975
    127  CA        -8.5720   -4.8870   38.4210 C.3   201  HIS201      0.1656
    128  C        -10.0520   -4.5910   38.3910 C.2   201  HIS201      0.2291
    129  O        -10.5160   -3.6540   39.0390 O.2   201  HIS201     -0.2864
    130  CB        -7.7720   -3.6430   38.0290 C.3   201  HIS201      0.0771
    131  CG        -6.2930   -3.8350   38.1530 C.ar  201  HIS201      0.0820
    132  ND1       -5.3880   -3.2680   37.2820 N.ar  201  HIS201     -0.2267
    133  CD2       -5.5630   -4.5540   39.0390 C.ar  201  HIS201      0.1154
    134  CE1       -4.1660   -3.6320   37.6230 C.ar  201  HIS201      0.1986
    135  NE2       -4.2440   -4.3950   38.6970 N.ar  201  HIS201     -0.2212
    136  N        -13.3560   -6.0750   39.5830 N.3   203  LEU203     -0.1245
    137  CA       -13.9540   -7.0510   40.4870 C.3   203  LEU203      0.1561
    138  C        -15.4380   -7.2610   40.2040 C.2   203  LEU203      0.2260
    139  O        -16.1620   -6.3240   39.8310 O.2   203  LEU203     -0.2867
    140  CB       -13.7630   -6.6250   41.9430 C.3   203  LEU203      0.0270
    141  CG       -12.3150   -6.5910   42.4070 C.3   203  LEU203      0.0019
    142  CD1      -12.2690   -6.3150   43.8800 C.3   203  LEU203      0.0001
    143  CD2      -11.6790   -7.9220   42.1180 C.3   203  LEU203      0.0001
    144  N        -10.0030   -1.5790   41.2290 N.3   215  ILE215     -0.1231
    145  CA        -8.8330   -1.4420   42.1140 C.3   215  ILE215      0.1692
    146  C         -7.5480   -1.0400   41.3640 C.2   215  ILE215      0.2592
    147  O         -7.5650   -0.8370   40.1560 O.2   215  ILE215     -0.2718
    148  CB        -8.5380   -2.7500   42.8870 C.3   215  ILE215      0.0266
    149  CG1       -8.2030   -3.8790   41.9000 C.3   215  ILE215      0.0019
    150  CG2       -9.7140   -3.1200   43.7860 C.3   215  ILE215      0.0020
    151  CD1       -7.5880   -5.1110   42.5180 C.3   215  ILE215      0.0001
    152  N         -6.4470   -0.9350   42.1020 N.am  216  ASP216     -0.1974
    153  CA        -5.1130   -0.5360   41.6010 C.3   216  ASP216      0.1709
    154  C         -5.0530    0.7710   40.7850 C.2   216  ASP216      0.2293
    155  O         -4.9440    0.7710   39.5670 O.2   216  ASP216     -0.2864
    156  CB        -4.4780   -1.6720   40.7740 C.3   216  ASP216      0.1436
    157  CG        -2.9700   -1.4510   40.5140 C.2   216  ASP216      0.3671
    158  OD1       -2.4350   -0.4060   40.9280 O.co2 216  ASP216     -0.2456
    159  OD2       -2.3150   -2.3120   39.8740 O.co2 216  ASP216     -0.2456
    160  N         -2.5220    2.6130   41.1090 N.3   218  GLY218     -0.1210
    161  CA        -1.1110    2.8780   41.3320 C.3   218  GLY218      0.1956
    162  C         -0.4620    3.5980   40.1750 C.2   218  GLY218      0.2611
    163  O          0.4630    4.3750   40.3740 O.2   218  GLY218     -0.2717
    164  N         -0.9570    3.3470   38.9620 N.am  219  ASP219     -0.1973
    165  CA        -0.4140    3.9790   37.7600 C.3   219  ASP219      0.1709
    166  C         -1.2530    5.1790   37.3060 C.2   219  ASP219      0.2293
    167  O         -0.9900    5.7630   36.2460 O.2   219  ASP219     -0.2864
    168  CB        -0.3250    2.9660   36.6110 C.3   219  ASP219      0.1436
    169  CG         0.8000    1.9550   36.7930 C.2   219  ASP219      0.3671
    170  OD1        1.8370    2.0860   36.1150 O.co2 219  ASP219     -0.2456
    171  OD2        0.6450    1.0130   37.5940 O.co2 219  ASP219     -0.2456
@<TRIPOS>BOND
     1   110   111    1
     2   112   111    1
     3   112   113    2
     4   111   114    1
     5   116   115   ar
     6   115   114    1
     7   115   117   ar
     8   118   119    1
     9   170   169   ar
    10   167   166    2
    11    30    29    2
    12   168   169    1
    13   168   165    1
    14   169   171   ar
    15   124   123   ar
    16   119   122    1
    17   119   120    1
    18   122   123    1
    19   132   134   ar
    20   132   131   ar
    21   166   165    1
    22    29    31   am
    23    29    28    1
    24   123   125   ar
    25   126   120   am
    26   126   127    1
    27   134   135   ar
    28   165   164    1
    29   130   131    1
    30   130   127    1
    31   120   121    2
    32   131   133   ar
    33    28    25    1
    34   128   127    1
    35   128   129    2
    36   135   133   ar
    37   164   162   am
    38    25    24    1
    39    25    26    1
    40   155   154    2
    41   136   137    1
    42   139   138    2
    43   159   157   ar
    44    24    22   am
    45   147   146    2
    46   162   163    2
    47   162   161    1
    48   138   137    1
    49    27    26    2
    50   137   140    1
    51    26    32   am
    52   157   156    1
    53   157   158   ar
    54    39    37   ar
    55    38    37   ar
    56   156   153    1
    57   154   153    1
    58   160   161    1
    59    37    36    1
    60    22    21    1
    61    22    23    2
    62   144   145    1
    63   146   152   am
    64   146   145    1
    65    32    33    1
    66    21    20    1
    67   153   152    1
    68   149   151    1
    69   149   148    1
    70   140   141    1
    71   145   148    1
    72   143   141    1
    73    14    13    2
    74    36    33    1
    75    33    34    1
    76   141   142    1
    77    20    13   am
    78   148   150    1
    79    13    12    1
    80    34    40   am
    81    34    35    2
    82    18    19    1
    83    18    17    1
    84    15    12    1
    85    15    16    1
    86    12    11    1
    87    40    41    1
    88    67    66    1
    89    11     9   am
    90    17    16    1
    91    43    42    2
    92    74    73    1
    93    74    68    1
    94   108   106    1
    95    41    42    1
    96    41    44    1
    97     9     8    1
    98     9    10    2
    99    66    65    1
   100     8     7    1
   101    73    72    1
   102    68    69    1
   103   106   107    1
   104   106   103    1
   105    45    44    1
   106   107   109    1
   107     4     3    2
   108   105   104    2
   109    65    64    1
   110     7     3   am
   111    72    69    1
   112   104   103    1
   113    69    70    1
   114     3     2    1
   115    71    70    2
   116   103   102    1
   117    50    47    1
   118    64    63    1
   119    46    47    1
   120   102    95   am
   121     6     5    1
   122    63    60    1
   123    85    83   ar
   124    85    84   ar
   125    47    48    1
   126     2     5    1
   127     2     1    1
   128    83    81   ar
   129    84    82   ar
   130    81    80   ar
   131    57    55    1
   132    95    96    2
   133    95    94    1
   134    82    80   ar
   135    49    48    2
   136    80    79    1
   137    60    61    1
   138    60    59    1
   139    89    88    2
   140    56    58    1
   141    56    55    1
   142    98    97    1
   143    98    99    1
   144    79    76    1
   145    55    52    1
   146    61    62    2
   147    94    97    1
   148    94    93    1
   149   100    99    1
   150   100   101    1
   151    91    90    1
   152    88    93   am
   153    88    87    1
   154    54    53    2
   155    76    77    1
   156    76    75    1
   157    52    53    1
   158    52    51    1
   159    90    87    1
   160    90    92    1
   161    86    87    1
   162    86    77   am
   163    77    78    2
