@<TRIPOS>MOLECULE
tmp/4n58A02.pdb
 90 86 0 0 0
SMALL
GASTEIGER

@<TRIPOS>ATOM
      1  N          6.0190   68.4690    9.6190 N.3   151  VAL151     -0.1231
      2  CA         5.1400   67.8420   10.6410 C.3   151  VAL151      0.1692
      3  C          4.7080   66.4400   10.2840 C.2   151  VAL151      0.2592
      4  O          4.6170   65.5880   11.1160 O.2   151  VAL151     -0.2718
      5  CB         3.9100   68.7490   10.7630 C.3   151  VAL151      0.0266
      6  CG1        2.7610   68.0570   11.4450 C.3   151  VAL151      0.0020
      7  CG2        4.2830   70.0010   11.5380 C.3   151  VAL151      0.0020
      8  N          4.5710   66.1970    8.9470 N.am  152  SER152     -0.1952
      9  CA         4.1700   64.8780    8.4780 C.3   152  SER152      0.1924
     10  C          5.1580   63.7660    8.9130 C.2   152  SER152      0.2314
     11  O          4.7970   62.6190    8.9740 O.2   152  SER152     -0.2863
     12  CB         3.9290   64.8140    6.9260 C.3   152  SER152      0.2116
     13  OG         5.1910   64.8390    6.2800 O.3   152  SER152     -0.2180
     14  N          1.6680   63.8210   14.4470 N.3   158  MET158     -0.1245
     15  CA         0.7270   63.0950   13.5820 C.3   158  MET158      0.1570
     16  C         -0.2280   62.1810   14.3370 C.2   158  MET158      0.2261
     17  O         -1.3700   62.0270   13.9370 O.2   158  MET158     -0.2867
     18  CB         1.5200   62.2590   12.5720 C.3   158  MET158      0.0387
     19  CG         2.1700   63.1210   11.5610 C.3   158  MET158      0.0595
     20  SD         1.1830   64.3970   10.7730 S.3   158  MET158     -0.1393
     21  CE        -0.1280   63.4370   10.0640 C.3   158  MET158      0.0692
     22  N         -2.9820   64.5710   14.9850 N.3   161  LEU161     -0.1231
     23  CA        -3.6850   64.9540   13.7820 C.3   161  LEU161      0.1693
     24  C         -4.4000   63.8230   13.0530 C.2   161  LEU161      0.2592
     25  O         -5.4310   64.0200   12.4060 O.2   161  LEU161     -0.2718
     26  CB        -2.6770   65.5490   12.8010 C.3   161  LEU161      0.0284
     27  CG        -2.2830   66.9770   12.9200 C.3   161  LEU161      0.0019
     28  CD1       -1.3230   67.3790   11.8610 C.3   161  LEU161      0.0001
     29  CD2       -3.5340   67.9170   12.8340 C.3   161  LEU161      0.0001
     30  N         -3.9060   62.6140   13.2060 N.am  162  ASN162     -0.1974
     31  CA        -4.5510   61.4780   12.6170 C.3   162  ASN162      0.1688
     32  C         -5.8060   60.9780   13.3870 C.2   162  ASN162      0.2292
     33  O         -6.5450   60.1200   12.8860 O.2   162  ASN162     -0.2864
     34  CB        -3.5790   60.3290   12.3620 C.3   162  ASN162      0.1181
     35  CG        -2.6420   60.5870   11.2150 C.2   162  ASN162      0.2629
     36  OD1       -2.9100   61.3630   10.3240 O.2   162  ASN162     -0.2716
     37  ND2       -1.4980   60.0530   11.3240 N.am  162  ASN162     -0.0877
     38  N         -5.8690   73.2710   11.0550 N.3   209  TRP209     -0.1241
     39  CA        -4.8980   73.0850   12.1160 C.3   209  TRP209      0.1605
     40  C         -3.7030   73.9620   11.8660 C.2   209  TRP209      0.2264
     41  O         -3.3770   74.3350   10.7210 O.2   209  TRP209     -0.2867
     42  CB        -4.4450   71.5830   12.2180 C.3   209  TRP209      0.0550
     43  CG        -3.6990   71.0300   11.0330 C.ar  209  TRP209      0.0003
     44  CD1       -4.2600   70.3790    9.9430 C.ar  209  TRP209      0.0946
     45  CD2       -2.3150   71.0830   10.7640 C.ar  209  TRP209      0.0152
     46  NE1       -3.3340   70.0620    9.0600 N.ar  209  TRP209     -0.2442
     47  CE2       -2.1090   70.4820    9.4910 C.ar  209  TRP209      0.0810
     48  CE3       -1.2120   71.5810   11.4210 C.ar  209  TRP209      0.0012
     49  CZ2       -0.9050   70.3530    8.9370 C.ar  209  TRP209      0.0191
     50  CZ3        0.0220   71.4750   10.8340 C.ar  209  TRP209      0.0001
     51  CH2        0.1830   70.8670    9.5770 C.ar  209  TRP209      0.0015
     52  N          3.6830   75.4110   10.7200 N.3   261  GLU261     -0.1245
     53  CA         3.0120   74.8430    9.5520 C.3   261  GLU261      0.1567
     54  C          1.5990   74.8850    9.8260 C.2   261  GLU261      0.2260
     55  O          1.1590   74.9380   10.9960 O.2   261  GLU261     -0.2867
     56  CB         3.3710   73.3760    9.2970 C.3   261  GLU261      0.0388
     57  CG         4.6880   73.1120    8.7570 C.3   261  GLU261      0.1160
     58  CD         4.7790   71.6210    8.3010 C.2   261  GLU261      0.3649
     59  OE1        5.7920   71.1510    8.6310 O.co2 261  GLU261     -0.2457
     60  OE2        3.8200   70.9950    7.8230 O.co2 261  GLU261     -0.2457
     61  N         -2.6720   73.5920    7.9960 N.3   263  GLY263     -0.1210
     62  CA        -3.2400   72.7000    6.9490 C.3   263  GLY263      0.1956
     63  C         -4.6710   72.6190    7.2330 C.2   263  GLY263      0.2612
     64  O         -5.2500   73.3150    8.1090 O.2   263  GLY263     -0.2717
     65  N         -5.3230   71.6350    6.5790 N.am  264  LYS264     -0.1962
     66  CA        -6.6790   71.3780    6.8900 C.3   264  LYS264      0.1771
     67  C         -6.8880   69.8710    6.6240 C.2   264  LYS264      0.2619
     68  O         -6.7080   69.3690    5.4840 O.2   264  LYS264     -0.2715
     69  CB        -7.6720   72.1500    5.9640 C.3   264  LYS264      0.0568
     70  CG        -9.1230   72.0270    6.4660 C.2   264  LYS264     -0.0269
     71  CD       -10.2250   72.5830    5.6800 C.2   264  LYS264     -0.0102
     72  CE       -11.6200   72.3330    6.2450 C.3   264  LYS264      0.1350
     73  NZ       -11.9470   70.8840    6.0740 N.3   264  LYS264     -0.1262
     74  N         -7.4080   69.1810    7.6120 N.am  265  LYS265     -0.1963
     75  CA        -7.7730   67.7970    7.4070 C.3   265  LYS265      0.1728
     76  C         -9.1070   67.7750    6.7480 C.2   265  LYS265      0.2612
     77  O        -10.0210   68.5940    6.9860 O.2   265  LYS265     -0.2715
     78  CB        -8.0500   67.1240    8.8080 C.3   265  LYS265      0.0311
     79  CG        -6.9170   67.1140    9.6870 C.3   265  LYS265      0.0038
     80  CD        -7.4000   66.6070   11.0890 C.3   265  LYS265      0.0206
     81  CE        -7.8750   65.1620   11.0020 C.3   265  LYS265      0.1093
     82  NZ        -8.0270   64.7250   12.5100 N.3   265  LYS265     -0.1314
     83  N         -9.3230   66.8240    5.8490 N.am  266  LEU266     -0.2031
     84  CA       -10.6560   66.8370    5.2920 C.3   266  LEU266      0.1282
     85  C        -11.6260   65.8170    6.0260 C.3   266  LEU266      0.2036
     86  O        -10.9990   64.8570    6.5590 O.3   266  LEU266     -0.2185
     87  CB       -10.5590   66.5650    3.8170 C.3   266  LEU266      0.0244
     88  CG       -10.9540   65.1500    3.7230 C.3   266  LEU266      0.0018
     89  CD1      -11.7820   64.8600    2.4660 C.3   266  LEU266      0.0001
     90  CD2       -9.6130   64.4800    3.9240 C.3   266  LEU266      0.0001
@<TRIPOS>BOND
     1    89    88    1
     2    88    87    1
     3    88    90    1
     4    87    84    1
     5    84    83    1
     6    84    85    1
     7    68    67    2
     8    71    72    1
     9    71    70    2
    10    83    76   am
    11    69    70    1
    12    69    66    1
    13    85    86    1
    14    73    72    1
    15    13    12    1
    16    65    66    1
    17    65    63   am
    18    67    66    1
    19    67    74   am
    20    76    77    2
    21    76    75    1
    22    12     9    1
    23    62    63    1
    24    62    61    1
    25    63    64    2
    26    75    74    1
    27    75    78    1
    28    60    58   ar
    29    58    59   ar
    30    58    57    1
    31     9    10    1
    32     9     8    1
    33    57    56    1
    34    78    79    1
    35    10    11    2
    36    49    47   ar
    37    49    51   ar
    38     8     3   am
    39    46    47   ar
    40    46    44   ar
    41    56    53    1
    42    47    45   ar
    43    53    54    1
    44    53    52    1
    45    51    50   ar
    46     1     2    1
    47    79    80    1
    48    54    55    2
    49    44    43   ar
    50    21    20    1
    51     3     2    1
    52     3     4    2
    53    36    35    2
    54     2     5    1
    55    41    40    2
    56     5     6    1
    57     5     7    1
    58    45    43   ar
    59    45    48   ar
    60    20    19    1
    61    50    48   ar
    62    81    80    1
    63    81    82    1
    64    43    42    1
    65    38    39    1
    66    35    37   am
    67    35    34    1
    68    19    18    1
    69    28    27    1
    70    40    39    1
    71    39    42    1
    72    34    31    1
    73    25    24    2
    74    18    15    1
    75    31    30    1
    76    31    32    1
    77    26    27    1
    78    26    23    1
    79    29    27    1
    80    33    32    2
    81    24    30   am
    82    24    23    1
    83    15    16    1
    84    15    14    1
    85    23    22    1
    86    17    16    2
