@<TRIPOS>MOLECULE
tmp/4n58A00.pdb
 93 92 0 0 0
SMALL
GASTEIGER

@<TRIPOS>ATOM
      1  N         47.0280   60.3530    4.2800 N.3   100  LEU100     -0.1245
      2  CA        45.5890   60.5390    4.5430 C.3   100  LEU100      0.1561
      3  C         45.4340   61.4840    5.7580 C.2   100  LEU100      0.2260
      4  O         44.6850   62.4530    5.7210 O.2   100  LEU100     -0.2867
      5  CB        44.9050   59.1600    4.8120 C.3   100  LEU100      0.0270
      6  CG        43.4410   59.1260    4.9090 C.3   100  LEU100      0.0019
      7  CD1       42.8010   59.7620    3.6800 C.3   100  LEU100      0.0001
      8  CD2       42.9310   57.7100    5.1380 C.3   100  LEU100      0.0001
      9  N         46.7340   65.1430    4.8280 N.3   103  THR103     -0.1203
     10  CA        45.8240   65.7930    3.9200 C.3   103  THR103      0.1994
     11  C         44.6190   66.3070    4.6730 C.2   103  THR103      0.2618
     12  O         44.1820   67.4050    4.4090 O.2   103  THR103     -0.2717
     13  CB        45.3360   64.9000    2.7400 C.3   103  THR103      0.1784
     14  OG1       46.4350   64.5620    1.8950 O.3   103  THR103     -0.2211
     15  CG2       44.4020   65.6590    1.8360 C.3   103  THR103      0.0376
     16  N         44.0740   65.5240    5.5880 N.am  104  GLY104     -0.1956
     17  CA        42.8880   65.9220    6.3280 C.3   104  GLY104      0.1869
     18  C         43.1680   67.1430    7.1710 C.2   104  GLY104      0.2309
     19  O         42.3530   68.0840    7.2300 O.2   104  GLY104     -0.2863
     20  N         43.4810   70.1220    4.7030 N.3   107  PHE107     -0.1227
     21  CA        42.2250   70.4490    4.0590 C.3   107  PHE107      0.1736
     22  C         41.2210   71.0680    5.0660 C.2   107  PHE107      0.2595
     23  O         40.5040   71.9720    4.6950 O.2   107  PHE107     -0.2718
     24  CB        41.6520   69.2380    3.2550 C.3   107  PHE107      0.0547
     25  CG        40.3890   69.5410    2.4710 C.ar  107  PHE107     -0.0202
     26  CD1       40.2560   70.7030    1.6960 C.ar  107  PHE107     -0.0042
     27  CD2       39.2900   68.6600    2.4970 C.ar  107  PHE107     -0.0042
     28  CE1       39.0620   70.9780    0.9900 C.ar  107  PHE107     -0.0003
     29  CE2       38.1000   68.9320    1.7770 C.ar  107  PHE107     -0.0003
     30  CZ        37.9870   70.0920    1.0250 C.ar  107  PHE107     -0.0000
     31  N         41.1600   70.6080    6.3230 N.am  108  PHE108     -0.1976
     32  CA        40.1870   71.1310    7.2580 C.3   108  PHE108      0.1639
     33  C         40.7220   72.1060    8.2990 C.2   108  PHE108      0.2290
     34  O         39.9580   72.4710    9.1720 O.2   108  PHE108     -0.2864
     35  CB        39.5150   70.0140    8.0270 C.3   108  PHE108      0.0560
     36  CG        38.8510   69.0360    7.1650 C.ar  108  PHE108     -0.0200
     37  CD1       37.8100   69.4340    6.3580 C.ar  108  PHE108     -0.0042
     38  CD2       39.2450   67.7140    7.1580 C.ar  108  PHE108     -0.0042
     39  CE1       37.2060   68.5420    5.5300 C.ar  108  PHE108     -0.0003
     40  CE2       38.6190   66.8140    6.3340 C.ar  108  PHE108     -0.0003
     41  CZ        37.6210   67.2450    5.4910 C.ar  108  PHE108     -0.0000
     42  N         32.8460   64.2180    5.2920 N.3   124  PHE124     -0.1241
     43  CA        34.3010   63.9890    5.1460 C.3   124  PHE124      0.1605
     44  C         35.0860   64.3900    6.4170 C.2   124  PHE124      0.2264
     45  O         35.9680   63.6920    6.9290 O.2   124  PHE124     -0.2867
     46  CB        34.8420   64.6810    3.8790 C.3   124  PHE124      0.0534
     47  CG        34.2080   64.1360    2.6230 C.ar  124  PHE124     -0.0203
     48  CD1       34.7020   62.9830    2.0620 C.ar  124  PHE124     -0.0042
     49  CD2       33.0100   64.6460    2.1290 C.ar  124  PHE124     -0.0042
     50  CE1       34.1340   62.4160    0.9380 C.ar  124  PHE124     -0.0003
     51  CE2       32.4110   64.0750    0.9910 C.ar  124  PHE124     -0.0003
     52  CZ        32.9860   62.9460    0.4120 C.ar  124  PHE124     -0.0000
     53  N         34.4240   61.8690    9.2200 N.3   127  PHE127     -0.1227
     54  CA        35.1560   60.6060    9.0430 C.3   127  PHE127      0.1736
     55  C         36.6310   60.8360    9.3730 C.2   127  PHE127      0.2595
     56  O         37.2500   60.0820   10.1620 O.2   127  PHE127     -0.2718
     57  CB        35.0280   60.0760    7.6110 C.3   127  PHE127      0.0547
     58  CG        35.5740   58.7130    7.4370 C.ar  127  PHE127     -0.0202
     59  CD1       35.0840   57.6670    8.1320 C.ar  127  PHE127     -0.0042
     60  CD2       36.6550   58.4710    6.5620 C.ar  127  PHE127     -0.0042
     61  CE1       35.6260   56.3760    7.9670 C.ar  127  PHE127     -0.0003
     62  CE2       37.1300   57.1980    6.3500 C.ar  127  PHE127     -0.0003
     63  CZ        36.6090   56.1380    7.0310 C.ar  127  PHE127     -0.0000
     64  N         37.1830   61.9040    8.8730 N.am  128  ASP128     -0.1974
     65  CA        38.5820   62.2290    9.2690 C.3   128  ASP128      0.1709
     66  C         38.7760   62.3840   10.7660 C.2   128  ASP128      0.2293
     67  O         39.8030   61.9530   11.3050 O.2   128  ASP128     -0.2864
     68  CB        39.0200   63.5700    8.6340 C.3   128  ASP128      0.1436
     69  CG        40.3470   64.1270    9.2050 C.2   128  ASP128      0.3671
     70  OD1       41.4290   63.7150    8.6950 O.co2 128  ASP128     -0.2456
     71  OD2       40.3300   64.9480   10.1450 O.co2 128  ASP128     -0.2456
     72  N         38.9430   59.0190   12.4150 N.3   131  LEU131     -0.1301
     73  CA        40.2700   58.3790   12.2090 C.3   131  LEU131      0.1247
     74  C         41.3440   58.9530   13.0580 C.3   131  LEU131      0.2009
     75  O         42.1780   58.1800   13.6700 O.3   131  LEU131     -0.2188
     76  CB        40.6820   58.4480   10.7500 C.3   131  LEU131      0.0217
     77  CG        39.7920   57.7230    9.7360 C.3   131  LEU131      0.0015
     78  CD1       40.2180   58.1220    8.3900 C.3   131  LEU131      0.0000
     79  CD2       39.7360   56.2340    9.9180 C.3   131  LEU131      0.0000
     80  N         36.1220   52.3100   -0.6170 N.3   236  TRP236     -0.1241
     81  CA        37.2200   53.1840   -0.1850 C.3   236  TRP236      0.1605
     82  C         37.2680   53.2920    1.3660 C.2   236  TRP236      0.2264
     83  O         38.2630   52.9920    1.9780 O.2   236  TRP236     -0.2867
     84  CB        37.0580   54.5880   -0.7880 C.3   236  TRP236      0.0550
     85  CG        38.1820   55.5090   -0.4050 C.ar  236  TRP236      0.0003
     86  CD1       39.3910   55.5720   -1.0040 C.ar  236  TRP236      0.0946
     87  CD2       38.2510   56.3870    0.7380 C.ar  236  TRP236      0.0152
     88  NE1       40.2070   56.4780   -0.3580 N.ar  236  TRP236     -0.2442
     89  CE2       39.5390   56.9640    0.7420 C.ar  236  TRP236      0.0810
     90  CE3       37.3680   56.7360    1.7440 C.ar  236  TRP236      0.0012
     91  CZ2       39.9100   57.9190    1.6860 C.ar  236  TRP236      0.0191
     92  CZ3       37.7300   57.6830    2.6910 C.ar  236  TRP236      0.0001
     93  CH2       39.0510   58.2230    2.6720 C.ar  236  TRP236      0.0015
@<TRIPOS>BOND
     1    86    85   ar
     2    86    88   ar
     3    84    85    1
     4    84    81    1
     5    80    81    1
     6    85    87   ar
     7    88    89   ar
     8    81    82    1
     9    52    50   ar
    10    52    51   ar
    11    87    89   ar
    12    87    90   ar
    13    89    91   ar
    14    50    48   ar
    15    28    30   ar
    16    28    26   ar
    17    51    49   ar
    18    30    29   ar
    19    82    83    2
    20    91    93   ar
    21    26    25   ar
    22    90    92   ar
    23    29    27   ar
    24    15    13    1
    25    14    13    1
    26    48    47   ar
    27    49    47   ar
    28    25    27   ar
    29    25    24    1
    30    47    46    1
    31    93    92   ar
    32    13    10    1
    33    24    21    1
    34     7     6    1
    35    46    43    1
    36    10    11    1
    37    10     9    1
    38    21    20    1
    39    21    22    1
    40     1     2    1
    41    12    11    2
    42     2     5    1
    43     2     3    1
    44    11    16   am
    45    23    22    2
    46     5     6    1
    47     6     8    1
    48    22    31   am
    49    43    42    1
    50    43    44    1
    51    41    39   ar
    52    41    40   ar
    53    39    37   ar
    54    16    17    1
    55     4     3    2
    56    31    32    1
    57    17    18    1
    58    40    38   ar
    59    62    60   ar
    60    62    63   ar
    61    37    36   ar
    62    44    45    2
    63    60    58   ar
    64    63    61   ar
    65    38    36   ar
    66    36    35    1
    67    18    19    2
    68    32    35    1
    69    32    33    1
    70    58    57    1
    71    58    59   ar
    72    57    54    1
    73    61    59   ar
    74    33    34    2
    75    78    77    1
    76    68    69    1
    77    68    65    1
    78    70    69   ar
    79    64    65    1
    80    64    55   am
    81    54    53    1
    82    54    55    1
    83    69    71   ar
    84    65    66    1
    85    55    56    2
    86    77    79    1
    87    77    76    1
    88    76    73    1
    89    66    67    2
    90    73    72    1
    91    73    74    1
    92    74    75    1
