@<TRIPOS>MOLECULE
tmp/4n58A03.pdb
 75 72 0 0 0
SMALL
GASTEIGER

@<TRIPOS>ATOM
      1  N         -9.3850   61.8490   15.9260 N.3   164  LYS164     -0.1231
      2  CA       -10.4170   62.8310   15.9040 C.3   164  LYS164      0.1693
      3  C        -10.1710   63.7260   17.1610 C.2   164  LYS164      0.2592
      4  O        -10.8700   63.6380   18.2030 O.2   164  LYS164     -0.2718
      5  CB       -11.8010   62.2030   15.9470 C.3   164  LYS164      0.0285
      6  CG       -12.2300   61.5550   14.6350 C.3   164  LYS164      0.0035
      7  CD       -13.6630   61.0170   14.7160 C.3   164  LYS164      0.0206
      8  CE       -14.0510   60.5750   13.3010 C.3   164  LYS164      0.1093
      9  NZ       -15.5190   60.4170   13.0930 N.3   164  LYS164     -0.1314
     10  N         -9.1680   64.5360   17.0830 N.am  165  ASN165     -0.1960
     11  CA        -8.8260   65.3840   18.2830 C.3   165  ASN165      0.1819
     12  C         -8.9200   66.8680   17.9560 C.2   165  ASN165      0.2621
     13  O         -8.2050   67.3280   17.0560 O.2   165  ASN165     -0.2715
     14  CB        -7.3240   65.0410   18.5720 C.3   165  ASN165      0.1195
     15  CG        -7.1030   63.6090   18.9980 C.2   165  ASN165      0.2630
     16  OD1       -7.7540   63.1490   19.9150 O.2   165  ASN165     -0.2716
     17  ND2       -6.3620   62.8850   18.2130 N.am  165  ASN165     -0.0877
     18  N         -9.8050   67.5440   18.6180 N.am  166  VAL166     -0.1977
     19  CA       -10.1020   68.9740   18.4710 C.3   166  VAL166      0.1596
     20  C         -9.6480   69.6470   19.7330 C.2   166  VAL166      0.2287
     21  O        -10.0230   69.1900   20.8490 O.2   166  VAL166     -0.2864
     22  CB       -11.6520   69.1450   18.2860 C.3   166  VAL166      0.0276
     23  CG1      -12.0380   70.6030   18.2340 C.3   166  VAL166      0.0022
     24  CG2      -12.0070   68.4500   16.9020 C.3   166  VAL166      0.0022
     25  N         -6.1940   72.4200   16.5810 N.3   203  VAL203     -0.1231
     26  CA        -7.0840   71.6950   15.6180 C.3   203  VAL203      0.1692
     27  C         -8.5150   72.1510   15.8490 C.2   203  VAL203      0.2592
     28  O         -8.9970   72.0280   16.9580 O.2   203  VAL203     -0.2718
     29  CB        -6.9560   70.1560   15.6920 C.3   203  VAL203      0.0266
     30  CG1       -7.7080   69.5660   14.4370 C.3   203  VAL203      0.0020
     31  CG2       -5.5070   69.7490   15.7000 C.3   203  VAL203      0.0020
     32  N         -9.1190   72.7920   14.8100 N.am  204  LYS204     -0.1966
     33  CA       -10.5190   73.1370   14.8230 C.3   204  LYS204      0.1728
     34  C        -11.4540   71.9780   14.5210 C.2   204  LYS204      0.2617
     35  O        -11.0350   71.0430   13.8980 O.2   204  LYS204     -0.2715
     36  CB       -10.7830   74.2570   13.8570 C.3   204  LYS204      0.0311
     37  CG        -9.8090   75.4190   14.0380 C.3   204  LYS204      0.0038
     38  CD       -10.4350   76.7970   13.9810 C.3   204  LYS204      0.0206
     39  CE       -10.7110   77.2840   12.5990 C.3   204  LYS204      0.1093
     40  NZ       -11.6350   78.4840   12.6170 N.3   204  LYS204     -0.1314
     41  N        -12.7210   72.1430   14.8480 N.am  205  SER205     -0.1936
     42  CA       -13.6930   71.0880   14.5560 C.3   205  SER205      0.2055
     43  C        -13.7420   70.8090   13.0910 C.2   205  SER205      0.2643
     44  O        -13.9720   69.6310   12.6620 O.2   205  SER205     -0.2714
     45  CB       -15.0910   71.4540   15.0810 C.3   205  SER205      0.2130
     46  OG       -16.0750   70.4230   14.8290 O.3   205  SER205     -0.2179
     47  N        -13.4930   71.8220   12.2680 N.am  206  ASP206     -0.1957
     48  CA       -13.5790   71.5850   10.7690 C.3   206  ASP206      0.1840
     49  C        -12.3650   71.0250   10.1350 C.2   206  ASP206      0.2622
     50  O        -12.2760   70.8330    8.8920 O.2   206  ASP206     -0.2715
     51  CB       -14.0780   72.8550   10.0320 C.3   206  ASP206      0.1450
     52  CG       -12.9840   73.9290    9.8970 C.2   206  ASP206      0.3671
     53  OD1      -11.8120   73.7510   10.3290 O.co2 206  ASP206     -0.2456
     54  OD2      -13.3410   75.0350    9.4460 O.co2 206  ASP206     -0.2456
     55  N        -11.3310   70.7610   10.9640 N.am  207  GLY207     -0.1954
     56  CA       -10.1420   70.1360   10.5430 C.3   207  GLY207      0.1869
     57  C         -8.9360   71.0590   10.2750 C.2   207  GLY207      0.2309
     58  O         -7.8080   70.6550    9.9590 O.2   207  GLY207     -0.2863
     59  N         -7.4080   69.1810    7.6120 N.3   265  LYS265     -0.1231
     60  CA        -7.7730   67.7970    7.4070 C.3   265  LYS265      0.1693
     61  C         -9.1070   67.7750    6.7480 C.2   265  LYS265      0.2588
     62  O        -10.0210   68.5940    6.9860 O.2   265  LYS265     -0.2718
     63  CB        -8.0500   67.1240    8.8080 C.3   265  LYS265      0.0285
     64  CG        -6.9170   67.1140    9.6870 C.3   265  LYS265      0.0035
     65  CD        -7.4000   66.6070   11.0890 C.3   265  LYS265      0.0206
     66  CE        -7.8750   65.1620   11.0020 C.3   265  LYS265      0.1093
     67  NZ        -8.0270   64.7250   12.5100 N.3   265  LYS265     -0.1314
     68  N         -9.3230   66.8240    5.8490 N.am  266  LEU266     -0.2033
     69  CA       -10.6560   66.8370    5.2920 C.3   266  LEU266      0.1282
     70  C        -11.6260   65.8170    6.0260 C.3   266  LEU266      0.2036
     71  O        -10.9990   64.8570    6.5590 O.3   266  LEU266     -0.2185
     72  CB       -10.5590   66.5650    3.8170 C.3   266  LEU266      0.0244
     73  CG       -10.9540   65.1500    3.7230 C.3   266  LEU266      0.0018
     74  CD1      -11.7820   64.8600    2.4660 C.3   266  LEU266      0.0001
     75  CD2       -9.6130   64.4800    3.9240 C.3   266  LEU266      0.0001
@<TRIPOS>BOND
     1    74    73    1
     2    73    72    1
     3    73    75    1
     4    72    69    1
     5    69    68    1
     6    69    70    1
     7    68    61   am
     8    70    71    1
     9    61    62    2
    10    61    60    1
    11    60    59    1
    12    60    63    1
    13    63    64    1
    14    50    49    2
    15    54    52   ar
    16    64    65    1
    17    52    51    1
    18    52    53   ar
    19    58    57    2
    20    51    48    1
    21    49    48    1
    22    49    55   am
    23    57    56    1
    24    56    55    1
    25    48    47    1
    26    66    65    1
    27    66    67    1
    28    47    43   am
    29    39    40    1
    30    39    38    1
    31    44    43    2
    32    43    42    1
    33     9     8    1
    34     8     7    1
    35    36    37    1
    36    36    33    1
    37    35    34    2
    38    38    37    1
    39    30    29    1
    40    34    33    1
    41    34    41   am
    42    42    41    1
    43    42    45    1
    44     6     7    1
    45     6     5    1
    46    32    33    1
    47    32    27   am
    48    46    45    1
    49    26    29    1
    50    26    27    1
    51    26    25    1
    52    29    31    1
    53    27    28    2
    54     2     1    1
    55     2     5    1
    56     2     3    1
    57    24    22    1
    58    13    12    2
    59    10     3   am
    60    10    11    1
    61     3     4    2
    62    12    11    1
    63    12    18   am
    64    17    15   am
    65    23    22    1
    66    11    14    1
    67    22    19    1
    68    19    18    1
    69    19    20    1
    70    14    15    1
    71    15    16    2
    72    20    21    2
