@<TRIPOS>MOLECULE
tmp/4n58B01.pdb
 97 90 0 0 0
SMALL
GASTEIGER

@<TRIPOS>ATOM
      1  N        117.4930   44.9630    3.7930 N.3    47  LEU47      -0.1301
      2  CA       116.9990   43.5670    4.1070 C.3    47  LEU47       0.1247
      3  C        118.0320   42.5970    3.5730 C.3    47  LEU47       0.2009
      4  O        118.6350   42.8440    2.4480 O.3    47  LEU47      -0.2188
      5  CB       115.6650   43.3280    3.3950 C.3    47  LEU47       0.0217
      6  CG       114.9020   41.9860    3.7220 C.3    47  LEU47       0.0015
      7  CD1      114.4040   42.0830    5.1050 C.3    47  LEU47       0.0000
      8  CD2      113.7340   41.7720    2.7620 C.3    47  LEU47       0.0000
      9  N        117.8150   39.8900   10.2450 N.3    68  LYS68      -0.1231
     10  CA       116.9400   40.1920    9.1170 C.3    68  LYS68       0.1693
     11  C        117.5200   41.3920    8.2710 C.2    68  LYS68       0.2592
     12  O        117.2160   41.5110    7.0910 O.2    68  LYS68      -0.2718
     13  CB       115.5680   40.7100    9.6830 C.3    68  LYS68       0.0285
     14  CG       114.7830   39.7810   10.6540 C.3    68  LYS68       0.0035
     15  CD       113.7660   38.9490    9.8950 C.3    68  LYS68       0.0206
     16  CE       112.9740   37.9250   10.7740 C.3    68  LYS68       0.1093
     17  NZ       113.6770   37.2080   11.8940 N.3    68  LYS68      -0.1314
     18  N        118.2650   42.2720    8.9320 N.am   69  TYR69      -0.1976
     19  CA       118.7260   43.5130    8.3360 C.3    69  TYR69       0.1639
     20  C        120.2260   43.7150    8.5200 C.2    69  TYR69       0.2290
     21  O        120.8340   43.2480    9.4980 O.2    69  TYR69      -0.2864
     22  CB       118.0620   44.7400    8.9770 C.3    69  TYR69       0.0560
     23  CG       116.6010   44.6460    9.1480 C.ar   69  TYR69      -0.0198
     24  CD1      115.7660   44.3800    8.0670 C.ar   69  TYR69      -0.0009
     25  CD2      116.0300   44.8690   10.3720 C.ar   69  TYR69      -0.0009
     26  CE1      114.4170   44.2470    8.2410 C.ar   69  TYR69       0.0417
     27  CE2      114.6880   44.7400   10.5660 C.ar   69  TYR69       0.0417
     28  CZ       113.8800   44.4270    9.5020 C.ar   69  TYR69       0.1957
     29  OH       112.5250   44.3600    9.6870 O.3    69  TYR69      -0.2866
     30  N        111.5910   46.9670   10.9500 N.3    92  LEU92      -0.1245
     31  CA       110.7560   46.8210   12.1220 C.3    92  LEU92       0.1561
     32  C        111.6020   46.8320   13.3480 C.2    92  LEU92       0.2260
     33  O        112.7300   46.3710   13.3060 O.2    92  LEU92      -0.2867
     34  CB       110.0160   45.4990   12.0240 C.3    92  LEU92       0.0270
     35  CG       108.9690   45.4630   10.8970 C.3    92  LEU92       0.0019
     36  CD1      108.1540   44.2090   10.9640 C.3    92  LEU92       0.0001
     37  CD2      108.1520   46.7470   10.8440 C.3    92  LEU92       0.0001
     38  N        109.0040   42.6110   15.1010 N.3    97  ILE97      -0.1245
     39  CA       109.5440   41.3420   14.5840 C.3    97  ILE97       0.1561
     40  C        109.0050   40.1680   15.4470 C.2    97  ILE97       0.2260
     41  O        108.6220   39.0960   14.9320 O.2    97  ILE97      -0.2867
     42  CB       111.0720   41.3200   14.6190 C.3    97  ILE97       0.0252
     43  CG1      111.6350   42.4090   13.6850 C.3    97  ILE97       0.0019
     44  CG2      111.5790   39.9400   14.2520 C.3    97  ILE97       0.0019
     45  CD1      113.0940   42.6500   13.8330 C.3    97  ILE97       0.0001
     46  N        105.3930   39.2270   14.6820 N.3   100  ALA100     -0.1231
     47  CA       105.2790   38.3450   13.5360 C.3   100  ALA100      0.1694
     48  C        105.7070   36.8770   13.8440 C.2   100  ALA100      0.2591
     49  O        105.0810   35.9230   13.4010 O.2   100  ALA100     -0.2718
     50  CB       106.1590   38.9230   12.4220 C.3   100  ALA100      0.0304
     51  N        106.7860   36.7030   14.6030 N.am  101  GLU101     -0.1979
     52  CA       107.2360   35.3990   15.0690 C.3   101  GLU101      0.1602
     53  C        106.2680   34.6660   15.9660 C.2   101  GLU101      0.2287
     54  O        106.0300   33.4870   15.7930 O.2   101  GLU101     -0.2864
     55  CB       108.6080   35.5220   15.7930 C.3   101  GLU101      0.0415
     56  CG       109.7340   35.9840   14.9040 C.3   101  GLU101      0.1163
     57  CD       111.0510   36.2450   15.6890 C.2   101  GLU101      0.3649
     58  OE1      111.0400   36.4970   16.9570 O.co2 101  GLU101     -0.2457
     59  OE2      112.1070   36.2430   15.0110 O.co2 101  GLU101     -0.2457
     60  N        103.3880   33.4340   13.8690 N.3   104  LEU104     -0.1245
     61  CA       103.7610   32.2670   13.0880 C.3   104  LEU104      0.1561
     62  C        103.7330   31.0240   13.9390 C.2   104  LEU104      0.2260
     63  O        103.2480   29.9700   13.5390 O.2   104  LEU104     -0.2867
     64  CB       105.1700   32.4400   12.5390 C.3   104  LEU104      0.0270
     65  CG       105.4830   32.6530   11.0600 C.3   104  LEU104      0.0019
     66  CD1      106.9570   32.4230   10.7720 C.3   104  LEU104      0.0001
     67  CD2      104.6790   31.7690   10.1630 C.3   104  LEU104      0.0001
     68  N        100.6360   31.2020    6.8770 N.3   111  ARG111     -0.1245
     69  CA        99.7230   32.3220    6.5210 C.3   111  ARG111      0.1563
     70  C         99.1170   32.0780    5.1150 C.2   111  ARG111      0.2260
     71  O         99.1390   32.9010    4.1820 O.2   111  ARG111     -0.2867
     72  CB       100.4700   33.6330    6.5880 C.3   111  ARG111      0.0307
     73  CG       100.8850   33.9510    8.0340 C.3   111  ARG111      0.0489
     74  CD       101.3930   35.3790    8.1970 C.3   111  ARG111      0.2205
     75  NE       101.7430   35.6650    9.6090 N.pl3 111  ARG111     -0.0865
     76  CZ       102.9800   35.7900   10.1000 C.cat 111  ARG111      0.5346
     77  NH1      104.1130   35.4880    9.3750 N.pl3 111  ARG111      0.1354
     78  NH2      103.1140   36.1280   11.3760 N.pl3 111  ARG111      0.1354
     79  N        100.7940   40.5460    8.2060 N.3   131  PHE131     -0.1241
     80  CA       102.0140   39.8260    7.7220 C.3   131  PHE131      0.1605
     81  C        101.7220   38.8930    6.5640 C.2   131  PHE131      0.2264
     82  O        102.6550   38.2990    6.0480 O.2   131  PHE131     -0.2867
     83  CB       102.6430   39.0570    8.9000 C.3   131  PHE131      0.0534
     84  CG       102.9890   39.9410   10.0610 C.ar  131  PHE131     -0.0203
     85  CD1      103.9360   40.9950    9.8750 C.ar  131  PHE131     -0.0042
     86  CD2      102.4180   39.7890   11.2910 C.ar  131  PHE131     -0.0042
     87  CE1      104.2310   41.8480   10.8830 C.ar  131  PHE131     -0.0003
     88  CE2      102.7260   40.6410   12.3320 C.ar  131  PHE131     -0.0003
     89  CZ       103.6830   41.6210   12.1590 C.ar  131  PHE131     -0.0000
     90  N        100.3500   39.4840    3.4330 N.3   133  ASN133     -0.1240
     91  CA       100.6200   40.0800    2.1510 C.3   133  ASN133      0.1653
     92  C         99.5260   39.8560    1.2060 C.2   133  ASN133      0.2266
     93  O         99.7230   39.7160   -0.0070 O.2   133  ASN133     -0.2867
     94  CB       101.9620   39.5430    1.5730 C.3   133  ASN133      0.1155
     95  CG       103.1470   40.0790    2.3280 C.2   133  ASN133      0.2627
     96  OD1      103.1690   41.2570    2.7280 O.2   133  ASN133     -0.2716
     97  ND2      104.1430   39.2230    2.5550 N.am  133  ASN133     -0.0877
@<TRIPOS>BOND
     1    93    92    2
     2    92    91    1
     3    94    91    1
     4    94    95    1
     5    91    90    1
     6    95    97   am
     7    95    96    2
     8     4     3    1
     9     8     6    1
    10     5     6    1
    11     5     2    1
    12     3     2    1
    13     6     7    1
    14     1     2    1
    15    71    70    2
    16    70    69    1
    17    82    81    2
    18    69    72    1
    19    69    68    1
    20    81    80    1
    21    72    73    1
    22    12    11    2
    23    80    79    1
    24    80    83    1
    25    73    74    1
    26    24    26   ar
    27    24    23   ar
    28    74    75    1
    29    26    28   ar
    30    11    18   am
    31    11    10    1
    32    19    20    1
    33    19    18    1
    34    19    22    1
    35    20    21    2
    36    83    84    1
    37    22    23    1
    38    10    13    1
    39    10     9    1
    40    23    25   ar
    41    77    76    1
    42    28    29    1
    43    28    27   ar
    44    75    76    2
    45    13    14    1
    46    85    84   ar
    47    85    87   ar
    48    15    14    1
    49    15    16    1
    50    84    86   ar
    51    76    78    1
    52    67    65    1
    53    25    27   ar
    54    66    65    1
    55    16    17    1
    56    37    35    1
    57    87    89   ar
    58    35    36    1
    59    35    34    1
    60    30    31    1
    61    65    64    1
    62    86    88   ar
    63    34    31    1
    64    31    32    1
    65    89    88   ar
    66    50    47    1
    67    64    61    1
    68    61    60    1
    69    61    62    1
    70    33    32    2
    71    49    48    2
    72    47    48    1
    73    47    46    1
    74    63    62    2
    75    43    45    1
    76    43    42    1
    77    48    51   am
    78    44    42    1
    79    39    42    1
    80    39    38    1
    81    39    40    1
    82    51    52    1
    83    56    57    1
    84    56    55    1
    85    41    40    2
    86    59    57   ar
    87    52    55    1
    88    52    53    1
    89    57    58   ar
    90    54    53    2
