@<TRIPOS>MOLECULE
tmp/4n5dB01.pdb
 69 66 0 0 0
SMALL
GASTEIGER

@<TRIPOS>ATOM
      1  N        -41.5530  -36.6190   14.8890 N.3   115  LYS115     -0.1231
      2  CA       -41.8010  -35.2780   15.3980 C.3   115  LYS115      0.1693
      3  C        -43.1430  -35.2770   16.1210 C.2   115  LYS115      0.2593
      4  O        -44.0490  -36.0230   15.7550 O.2   115  LYS115     -0.2718
      5  CB       -41.8060  -34.2690   14.2520 C.3   115  LYS115      0.0285
      6  CG       -40.4200  -33.8050   13.8480 C.3   115  LYS115      0.0035
      7  CD       -40.4390  -32.4120   13.2490 C.3   115  LYS115      0.0206
      8  CE       -39.0430  -31.9750   12.8440 C.3   115  LYS115      0.1093
      9  NZ       -38.9780  -30.5300   12.4990 N.3   115  LYS115     -0.1314
     10  N        -43.2310  -34.4790   17.1790 N.am  116  GLY116     -0.1942
     11  CA       -44.4530  -34.2580   17.9420 C.3   116  GLY116      0.2014
     12  C        -45.8010  -34.6060   17.3450 C.2   116  GLY116      0.2638
     13  O        -46.5120  -35.4470   17.8880 O.2   116  GLY116     -0.2714
     14  N        -46.1510  -33.9880   16.2230 N.am  117  ASP117     -0.1971
     15  CA       -47.4950  -34.1440   15.6950 C.3   117  ASP117      0.1709
     16  C        -47.7030  -35.4780   14.9880 C.2   117  ASP117      0.2293
     17  O        -48.8260  -35.9800   14.9120 O.2   117  ASP117     -0.2864
     18  CB       -47.7490  -33.0270   14.6890 C.3   117  ASP117      0.1436
     19  CG       -46.6670  -32.9540   13.6190 C.2   117  ASP117      0.3671
     20  OD1      -45.6860  -33.7250   13.7030 O.co2 117  ASP117     -0.2456
     21  OD2      -46.7920  -32.1190   12.7030 O.co2 117  ASP117     -0.2456
     22  N        -43.5670  -37.4100   22.3050 N.3   123  VAL123     -0.1231
     23  CA       -43.4330  -35.9950   22.6510 C.3   123  VAL123      0.1692
     24  C        -42.7420  -35.8190   23.9980 C.2   123  VAL123      0.2592
     25  O        -43.1290  -36.4300   24.9900 O.2   123  VAL123     -0.2718
     26  CB       -44.8090  -35.2950   22.7040 C.3   123  VAL123      0.0266
     27  CG1      -44.6970  -33.9060   23.3280 C.3   123  VAL123      0.0020
     28  CG2      -45.4340  -35.2270   21.3190 C.3   123  VAL123      0.0020
     29  N        -41.7040  -34.9890   24.0220 N.am  124  GLY124     -0.1957
     30  CA       -40.9830  -34.7180   25.2490 C.3   124  GLY124      0.1869
     31  C        -40.0310  -35.8290   25.6350 C.2   124  GLY124      0.2309
     32  O        -39.4410  -35.8000   26.7120 O.2   124  GLY124     -0.2863
     33  N        -35.2390  -38.6220   21.2750 N.3   127  LYS127     -0.1245
     34  CA       -35.2370  -39.3440   20.0140 C.3   127  LYS127      0.1561
     35  C        -33.8370  -39.2340   19.4230 C.2   127  LYS127      0.2260
     36  O        -33.4180  -38.1690   18.9670 O.2   127  LYS127     -0.2867
     37  CB       -36.3090  -38.7760   19.0740 C.3   127  LYS127      0.0271
     38  CG       -37.7300  -38.9230   19.6220 C.3   127  LYS127      0.0035
     39  CD       -38.7510  -38.0540   18.8890 C.3   127  LYS127      0.0206
     40  CE       -38.8380  -36.6470   19.4720 C.3   127  LYS127      0.1093
     41  NZ       -39.5120  -36.6090   20.8020 N.3   127  LYS127     -0.1314
     42  N        -35.0870  -31.3040   15.3480 N.3   155  GLY155     -0.1210
     43  CA       -36.2880  -30.9090   16.0600 C.3   155  GLY155      0.1956
     44  C        -36.1790  -31.0860   17.5600 C.2   155  GLY155      0.2612
     45  O        -35.2320  -31.6920   18.0520 O.2   155  GLY155     -0.2717
     46  N        -37.1600  -30.5570   18.2840 N.am  156  ALA156     -0.1965
     47  CA       -37.1610  -30.6060   19.7470 C.3   156  ALA156      0.1728
     48  C        -36.9940  -32.0290   20.2900 C.2   156  ALA156      0.2616
     49  O        -37.6580  -32.9610   19.8370 O.2   156  ALA156     -0.2715
     50  CB       -38.4290  -29.9730   20.2950 C.3   156  ALA156      0.0334
     51  N        -36.0950  -32.1740   21.2600 N.am  157  ASP157     -0.1957
     52  CA       -35.7890  -33.4590   21.9010 C.3   157  ASP157      0.1840
     53  C        -35.1820  -34.5150   20.9770 C.2   157  ASP157      0.2622
     54  O        -35.1300  -35.6910   21.3210 O.2   157  ASP157     -0.2715
     55  CB       -36.9990  -34.0310   22.6450 C.3   157  ASP157      0.1450
     56  CG       -37.5360  -33.0870   23.7060 C.2   157  ASP157      0.3671
     57  OD1      -36.7710  -32.7010   24.6120 O.co2 157  ASP157     -0.2456
     58  OD2      -38.7320  -32.7410   23.6250 O.co2 157  ASP157     -0.2456
     59  N        -34.7100  -34.0940   19.8130 N.am  158  PHE158     -0.1974
     60  CA       -33.9090  -34.9720   18.9770 C.3   158  PHE158      0.1639
     61  C        -32.4300  -34.7870   19.2950 C.2   158  PHE158      0.2290
     62  O        -31.9770  -33.6790   19.5780 O.2   158  PHE158     -0.2864
     63  CB       -34.1360  -34.6680   17.4920 C.3   158  PHE158      0.0560
     64  CG       -35.3780  -35.2850   16.9080 C.ar  158  PHE158     -0.0200
     65  CD1      -36.6180  -34.6910   17.0930 C.ar  158  PHE158     -0.0042
     66  CD2      -35.2940  -36.4210   16.1250 C.ar  158  PHE158     -0.0042
     67  CE1      -37.7590  -35.2410   16.5370 C.ar  158  PHE158     -0.0003
     68  CE2      -36.4340  -36.9770   15.5640 C.ar  158  PHE158     -0.0003
     69  CZ       -37.6620  -36.3900   15.7700 C.ar  158  PHE158     -0.0000
@<TRIPOS>BOND
     1     9     8    1
     2    21    19   ar
     3     8     7    1
     4     7     6    1
     5    19    20   ar
     6    19    18    1
     7     6     5    1
     8     5     2    1
     9    18    15    1
    10     1     2    1
    11    17    16    2
    12    16    15    1
    13    42    43    1
    14     2     3    1
    15    68    69   ar
    16    68    66   ar
    17    15    14    1
    18     4     3    2
    19    69    67   ar
    20    43    44    1
    21     3    10   am
    22    66    64   ar
    23    14    12   am
    24    67    65   ar
    25    64    65   ar
    26    64    63    1
    27    10    11    1
    28    12    13    2
    29    12    11    1
    30    63    60    1
    31    44    45    2
    32    44    46   am
    33    46    47    1
    34    39    40    1
    35    39    38    1
    36    36    35    2
    37    60    61    1
    38    60    59    1
    39    37    38    1
    40    37    34    1
    41    61    62    2
    42    35    34    1
    43    40    41    1
    44    47    48    1
    45    47    50    1
    46    59    53   am
    47    49    48    2
    48    34    33    1
    49    48    51   am
    50    53    54    2
    51    53    52    1
    52    51    52    1
    53    28    26    1
    54    52    55    1
    55    22    23    1
    56    55    56    1
    57    23    26    1
    58    23    24    1
    59    26    27    1
    60    58    56   ar
    61    56    57   ar
    62    24    29   am
    63    24    25    2
    64    29    30    1
    65    30    31    1
    66    31    32    2
