@<TRIPOS>MOLECULE
tmp/4n5fA00.pdb
 226 220 0 0 0
SMALL
GASTEIGER

@<TRIPOS>ATOM
      1  N         -6.6190   21.2670  -10.1280 N.3    90  VAL90      -0.1245
      2  CA        -6.8010   20.9480  -11.5310 C.3    90  VAL90       0.1561
      3  C         -8.1990   21.3750  -11.9840 C.2    90  VAL90       0.2260
      4  O         -8.3610   22.0570  -13.0180 O.2    90  VAL90      -0.2867
      5  CB        -6.5770   19.4410  -11.7450 C.3    90  VAL90       0.0252
      6  CG1       -7.1860   18.9370  -13.0610 C.3    90  VAL90       0.0019
      7  CG2       -5.0980   19.1330  -11.6200 C.3    90  VAL90       0.0019
      8  N         -7.5710   24.3540  -14.7400 N.3    94  VAL94      -0.1245
      9  CA        -7.5600   23.8300  -16.1030 C.3    94  VAL94       0.1561
     10  C         -8.8600   23.0780  -16.4840 C.2    94  VAL94       0.2260
     11  O         -8.9770   22.5430  -17.5890 O.2    94  VAL94      -0.2867
     12  CB        -6.2990   22.9970  -16.3540 C.3    94  VAL94       0.0252
     13  CG1       -5.0760   23.8970  -16.3000 C.3    94  VAL94       0.0019
     14  CG2       -6.1200   21.8740  -15.3270 C.3    94  VAL94       0.0019
     15  N         -8.3080   17.7030  -17.8720 N.3   124  PHE124     -0.1227
     16  CA        -7.5200   18.4310  -18.8500 C.3   124  PHE124      0.1736
     17  C         -6.6060   17.3770  -19.4480 C.2   124  PHE124      0.2596
     18  O         -5.8690   16.7090  -18.7150 O.2   124  PHE124     -0.2718
     19  CB        -6.7480   19.4990  -18.0940 C.3   124  PHE124      0.0547
     20  CG        -5.8310   20.3570  -18.9220 C.ar  124  PHE124     -0.0202
     21  CD1       -4.5010   19.9990  -19.1110 C.ar  124  PHE124     -0.0042
     22  CD2       -6.2630   21.5770  -19.4280 C.ar  124  PHE124     -0.0042
     23  CE1       -3.6230   20.8290  -19.8000 C.ar  124  PHE124     -0.0003
     24  CE2       -5.3960   22.4040  -20.1200 C.ar  124  PHE124     -0.0003
     25  CZ        -4.0720   22.0320  -20.2990 C.ar  124  PHE124     -0.0000
     26  N         -6.6800   17.1740  -20.7610 N.am  125  CYS125     -0.1956
     27  CA        -5.9820   16.0430  -21.3920 C.3   125  CYS125      0.1843
     28  C         -5.0190   16.5210  -22.4560 C.2   125  CYS125      0.2625
     29  O         -5.3930   16.6870  -23.6000 O.2   125  CYS125     -0.2714
     30  CB        -6.9840   15.0920  -22.0330 C.3   125  CYS125      0.0997
     31  SG        -8.2020   14.4190  -20.8750 S.3   125  CYS125     -0.0797
     32  N         -3.7760   16.7520  -22.0710 N.am  126  LEU126     -0.1963
     33  CA        -2.7630   17.2620  -22.9900 C.3   126  LEU126      0.1728
     34  C         -1.6120   16.2410  -23.1130 C.2   126  LEU126      0.2617
     35  O         -1.3250   15.7570  -24.2000 O.2   126  LEU126     -0.2715
     36  CB        -2.2840   18.6240  -22.4710 C.3   126  LEU126      0.0311
     37  CG        -1.0370   19.2430  -23.0920 C.3   126  LEU126      0.0022
     38  CD1       -1.2720   19.5960  -24.5500 C.3   126  LEU126      0.0001
     39  CD2       -0.6220   20.4570  -22.2660 C.3   126  LEU126      0.0001
     40  N         -0.9680   15.9110  -21.9940 N.am  127  THR127     -0.1937
     41  CA         0.1080   14.9240  -21.9750 C.3   127  THR127      0.2028
     42  C         -0.2510   13.5920  -22.6630 C.2   127  THR127      0.2642
     43  O         -1.3920   13.1070  -22.5640 O.2   127  THR127     -0.2714
     44  CB         0.5120   14.6360  -20.5220 C.3   127  THR127      0.1808
     45  OG1        0.7540   15.8730  -19.8440 O.3   127  THR127     -0.2208
     46  CG2        1.7880   13.7440  -20.4420 C.3   127  THR127      0.0379
     47  N          0.7320   13.0310  -23.3680 N.am  128  GLU128     -0.1963
     48  CA         0.6220   11.7600  -24.0920 C.3   128  GLU128      0.1718
     49  C          1.8180   10.8980  -23.7330 C.2   128  GLU128      0.2458
     50  O          2.8080   11.3910  -23.1970 O.2   128  GLU128     -0.2730
     51  CB         0.5960   11.9990  -25.5970 C.3   128  GLU128      0.0428
     52  CG        -0.5450   12.9090  -26.0050 C.3   128  GLU128      0.1163
     53  CD        -0.6780   13.1000  -27.4990 C.2   128  GLU128      0.3649
     54  OE1        0.2730   12.7860  -28.2280 O.co2 128  GLU128     -0.2457
     55  OE2       -1.7320   13.6130  -27.9520 O.co2 128  GLU128     -0.2457
     56  N          1.7400    9.5890  -23.9970 N.am  129  PRO129     -0.2716
     57  CA         2.8590    8.7500  -23.5400 C.3   129  PRO129      0.1536
     58  C          4.2690    9.2680  -23.9130 C.2   129  PRO129      0.2599
     59  O          5.2030    9.2350  -23.0940 O.2   129  PRO129     -0.2715
     60  CB         2.5770    7.4280  -24.2490 C.3   129  PRO129      0.0310
     61  CG         1.0780    7.3660  -24.2240 C.3   129  PRO129      0.0237
     62  CD         0.6050    8.7790  -24.4610 C.3   129  PRO129      0.0939
     63  N          4.4200    9.7330  -25.1420 N.am  130  HIS130     -0.1960
     64  CA         5.7280   10.2140  -25.6160 C.3   130  HIS130      0.1787
     65  C          5.9800   11.7250  -25.3380 C.2   130  HIS130      0.2620
     66  O          7.0910   12.1920  -25.5330 O.2   130  HIS130     -0.2715
     67  CB         5.8260    9.9650  -27.1170 C.3   130  HIS130      0.0785
     68  CG         5.1670   11.0390  -27.9140 C.ar  130  HIS130      0.0821
     69  ND1        3.8040   11.2600  -27.8720 N.ar  130  HIS130     -0.2267
     70  CD2        5.6870   12.0160  -28.6910 C.ar  130  HIS130      0.1154
     71  CE1        3.5090   12.2990  -28.6280 C.ar  130  HIS130      0.1986
     72  NE2        4.6340   12.7760  -29.1360 N.ar  130  HIS130     -0.2212
     73  N          4.9640   12.4780  -24.8860 N.am  131  ALA131     -0.1963
     74  CA         5.0490   13.9680  -24.8270 C.3   131  ALA131      0.1728
     75  C          4.5410   14.6180  -23.5140 C.2   131  ALA131      0.2617
     76  O          3.3460   14.8410  -23.3690 O.2   131  ALA131     -0.2715
     77  CB         4.2990   14.5870  -26.0200 C.3   131  ALA131      0.0334
     78  N          5.4440   14.9500  -22.5830 N.am  132  GLY132     -0.1940
     79  CA         5.0660   15.6750  -21.3480 C.3   132  GLY132      0.2014
     80  C          5.5460   17.1280  -21.3120 C.2   132  GLY132      0.2640
     81  O          4.7850   18.0700  -21.5780 O.2   132  GLY132     -0.2714
     82  N          6.8210   17.3220  -20.9830 N.am  133  SER133     -0.1935
     83  CA         7.3650   18.6820  -20.9170 C.3   133  SER133      0.2055
     84  C          7.2660   19.3500  -22.3130 C.2   133  SER133      0.2642
     85  O          6.8470   20.5000  -22.4090 O.2   133  SER133     -0.2714
     86  CB         8.7990   18.6680  -20.3680 C.3   133  SER133      0.2130
     87  OG         8.8730   18.0060  -19.0960 O.3   133  SER133     -0.2179
     88  N          7.6170   18.6210  -23.3760 N.am  134  GLU134     -0.1976
     89  CA         7.3980   19.0700  -24.7750 C.3   134  GLU134      0.1602
     90  C          5.9200   18.9410  -25.2000 C.2   134  GLU134      0.2287
     91  O          5.5590   18.1880  -26.1210 O.2   134  GLU134     -0.2864
     92  CB         8.3030   18.2880  -25.7430 C.3   134  GLU134      0.0415
     93  CG         8.2460   18.7570  -27.1960 C.3   134  GLU134      0.1163
     94  CD         9.1860   17.9800  -28.1060 C.2   134  GLU134      0.3649
     95  OE1        9.6020   16.8600  -27.7380 O.co2 134  GLU134     -0.2457
     96  OE2        9.5230   18.5030  -29.1890 O.co2 134  GLU134     -0.2457
     97  N         -2.2030   10.5790  -21.1790 N.3   156  GLN156     -0.1231
     98  CA        -1.5280    9.9680  -20.0610 C.3   156  GLN156      0.1698
     99  C         -1.7000   10.8530  -18.8390 C.2   156  GLN156      0.2592
    100  O         -1.6720   12.0790  -18.9510 O.2   156  GLN156     -0.2718
    101  CB        -0.0330    9.8680  -20.3900 C.3   156  GLN156      0.0381
    102  CG         0.7600    8.9510  -19.4770 C.3   156  GLN156      0.0905
    103  CD         0.7760    7.5380  -19.9950 C.2   156  GLN156      0.2608
    104  OE1       -0.2530    6.8680  -20.0170 O.2   156  GLN156     -0.2717
    105  NE2        1.9450    7.0790  -20.4400 N.am  156  GLN156     -0.0878
    106  N         -1.8490   10.2320  -17.6680 N.am  157  PHE157     -0.1962
    107  CA        -1.8180   10.9530  -16.4140 C.3   157  PHE157      0.1771
    108  C         -2.9660   11.9490  -16.2950 C.2   157  PHE157      0.2619
    109  O         -2.7400   13.0940  -15.8650 O.2   157  PHE157     -0.2715
    110  CB        -0.5140   11.7530  -16.2620 C.3   157  PHE157      0.0574
    111  CG         0.7540   10.9380  -16.2940 C.ar  157  PHE157     -0.0200
    112  CD1        0.9360    9.8610  -15.4480 C.ar  157  PHE157     -0.0042
    113  CD2        1.8360   11.3380  -17.1030 C.ar  157  PHE157     -0.0042
    114  CE1        2.1540    9.1800  -15.4280 C.ar  157  PHE157     -0.0003
    115  CE2        3.0370   10.6610  -17.0870 C.ar  157  PHE157     -0.0003
    116  CZ         3.2030    9.5810  -16.2520 C.ar  157  PHE157     -0.0000
    117  N         -4.1900   11.5440  -16.6450 N.am  158  VAL158     -0.1963
    118  CA        -5.3170   12.4700  -16.5320 C.3   158  VAL158      0.1727
    119  C         -5.8410   12.4770  -15.0900 C.2   158  VAL158      0.2616
    120  O         -6.5250   11.5230  -14.6300 O.2   158  VAL158     -0.2715
    121  CB        -6.4490   12.1620  -17.5420 C.3   158  VAL158      0.0290
    122  CG1       -7.5400   13.2260  -17.4480 C.3   158  VAL158      0.0023
    123  CG2       -5.8990   12.1380  -18.9620 C.3   158  VAL158      0.0023
    124  N         -5.5480   13.5780  -14.3920 N.am  159  THR159     -0.1951
    125  CA        -6.1180   13.8380  -13.0770 C.3   159  THR159      0.1897
    126  C         -7.6330   13.9880  -13.2150 C.2   159  THR159      0.2313
    127  O         -8.0850   14.5940  -14.1760 O.2   159  THR159     -0.2863
    128  CB        -5.5040   15.1150  -12.4350 C.3   159  THR159      0.1794
    129  OG1       -4.1220   14.8870  -12.1310 O.3   159  THR159     -0.2208
    130  CG2       -6.1670   15.4420  -11.1760 C.3   159  THR159      0.0378
    131  N          0.5060    5.0110   -7.6890 N.3   202  LYS202     -0.1245
    132  CA         1.4180    6.1010   -7.4690 C.3   202  LYS202      0.1561
    133  C          2.0030    6.0160   -6.0650 C.2   202  LYS202      0.2260
    134  O          1.3470    5.5100   -5.1760 O.2   202  LYS202     -0.2867
    135  CB         0.6310    7.4070   -7.5710 C.3   202  LYS202      0.0271
    136  CG         0.0100    7.6880   -8.9150 C.3   202  LYS202      0.0035
    137  CD        -0.7320    9.0100   -8.8740 C.3   202  LYS202      0.0206
    138  CE        -1.9640    8.8650   -7.9840 C.3   202  LYS202      0.1093
    139  NZ        -2.7060   10.1280   -7.9390 N.3   202  LYS202     -0.1314
    140  N         -0.3660   11.0230   -3.2740 N.3   205  ILE205     -0.1245
    141  CA        -1.7230   11.4620   -3.6880 C.3   205  ILE205      0.1561
    142  C         -2.5060   10.3270   -4.2930 C.2   205  ILE205      0.2260
    143  O         -3.1370   10.4430   -5.3600 O.2   205  ILE205     -0.2867
    144  CB        -1.7180   12.7060   -4.5870 C.3   205  ILE205      0.0252
    145  CG1       -0.7910   12.5230   -5.7720 C.3   205  ILE205      0.0019
    146  CG2       -1.2080   13.9050   -3.8020 C.3   205  ILE205      0.0019
    147  CD1       -1.1770   13.3680   -6.9840 C.3   205  ILE205      0.0001
    148  N         -5.7460    9.1170  -11.2340 N.3   210  THR210     -0.1218
    149  CA        -4.8540    9.5380  -12.3100 C.3   210  THR210      0.1862
    150  C         -4.8480    8.4030  -13.3600 C.2   210  THR210      0.2287
    151  O         -4.2550    7.3620  -13.1110 O.2   210  THR210     -0.2866
    152  CB        -3.4360    9.7980  -11.7460 C.3   210  THR210      0.1770
    153  OG1       -3.5070   10.6570  -10.5920 O.3   210  THR210     -0.2211
    154  CG2       -2.5340   10.4280  -12.7830 C.3   210  THR210      0.0375
    155  N          5.3190   14.8400   -5.5100 N.3   359  ILE359     -0.1245
    156  CA         4.7100   15.0380   -6.8330 C.3   359  ILE359      0.1561
    157  C          4.7260   16.5010   -7.2210 C.2   359  ILE359      0.2260
    158  O          4.6840   16.8100   -8.4160 O.2   359  ILE359     -0.2867
    159  CB         3.2350   14.4410   -6.9320 C.3   359  ILE359      0.0252
    160  CG1        2.6800   14.4050   -8.3500 C.3   359  ILE359      0.0019
    161  CG2        2.2290   15.2870   -6.1780 C.3   359  ILE359      0.0019
    162  CD1        3.5620   13.7760   -9.4050 C.3   359  ILE359      0.0001
    163  N          7.0170   17.8280   -9.9580 N.3   362  ILE362     -0.1231
    164  CA         6.9300   17.1560  -11.2450 C.3   362  ILE362      0.1692
    165  C          5.7790   17.6840  -12.0780 C.2   362  ILE362      0.2592
    166  O          5.9700   18.1830  -13.1800 O.2   362  ILE362     -0.2718
    167  CB         6.8080   15.6330  -11.0690 C.3   362  ILE362      0.0266
    168  CG1        8.0230   15.0720  -10.3360 C.3   362  ILE362      0.0019
    169  CG2        6.7260   14.9370  -12.4260 C.3   362  ILE362      0.0020
    170  CD1        7.9050   13.6130   -9.9050 C.3   362  ILE362      0.0001
    171  N          4.5720   17.6200  -11.5680 N.am  363  TYR363     -0.1962
    172  CA         3.4700   18.0990  -12.3720 C.3   363  TYR363      0.1771
    173  C          3.3610   19.6220  -12.3460 C.2   363  TYR363      0.2619
    174  O          4.0300   20.2870  -11.5660 O.2   363  TYR363     -0.2715
    175  CB         2.1540   17.3340  -12.1030 C.3   363  TYR363      0.0574
    176  CG         1.4700   17.4510  -10.7570 C.ar  363  TYR363     -0.0198
    177  CD1        1.8060   18.4040   -9.8140 C.ar  363  TYR363     -0.0009
    178  CD2        0.4150   16.6020  -10.4650 C.ar  363  TYR363     -0.0009
    179  CE1        1.1210   18.4790   -8.5960 C.ar  363  TYR363      0.0417
    180  CE2       -0.2660   16.6620   -9.2760 C.ar  363  TYR363      0.0417
    181  CZ         0.0790   17.6160   -8.3470 C.ar  363  TYR363      0.1957
    182  OH        -0.6530   17.6740   -7.1920 O.3   363  TYR363     -0.2866
    183  N          2.5420   20.1350  -13.2570 N.am  364  GLU364     -0.1963
    184  CA         2.2620   21.5360  -13.4280 C.3   364  GLU364      0.1733
    185  C          3.5860   22.2200  -13.8560 C.2   364  GLU364      0.2617
    186  O          3.8710   23.3620  -13.4970 O.2   364  GLU364     -0.2715
    187  CB         1.6600   22.0860  -12.1420 C.3   364  GLU364      0.0429
    188  CG         0.9430   23.4080  -12.2970 C.3   364  GLU364      0.1163
    189  CD        -0.2760   23.3280  -13.2260 C.2   364  GLU364      0.3649
    190  OE1       -1.0360   22.3400  -13.1470 O.co2 364  GLU364     -0.2457
    191  OE2       -0.4330   24.2510  -14.0460 O.co2 364  GLU364     -0.2457
    192  N          4.3720   21.4560  -14.6200 N.am  365  GLY365     -0.1940
    193  CA         5.6310   21.8590  -15.1700 C.3   365  GLY365      0.2014
    194  C          6.7210   21.4230  -14.2140 C.2   365  GLY365      0.2639
    195  O          6.7500   21.8840  -13.0520 O.2   365  GLY365     -0.2714
    196  N          7.6340   20.5690  -14.6880 N.am  366  THR366     -0.1950
    197  CA         8.7340   20.1010  -13.8310 C.3   366  THR366      0.1897
    198  C          9.5860   21.2910  -13.3160 C.2   366  THR366      0.2313
    199  O          9.5320   22.4340  -13.8410 O.2   366  THR366     -0.2863
    200  CB         9.6810   19.1050  -14.5710 C.3   366  THR366      0.1794
    201  OG1       10.3070   19.7470  -15.6800 O.3   366  THR366     -0.2208
    202  CG2        8.9230   17.9070  -15.1060 C.3   366  THR366      0.0378
    203  N         12.5880   21.7640  -13.8060 N.3   368  GLU368     -0.1231
    204  CA        13.4670   22.1740  -14.8910 C.3   368  GLU368      0.1699
    205  C         12.7770   23.2190  -15.8020 C.2   368  GLU368      0.2592
    206  O         13.3830   24.1890  -16.2000 O.2   368  GLU368     -0.2718
    207  CB        13.9460   20.9430  -15.6800 C.3   368  GLU368      0.0402
    208  CG        14.8990   20.0680  -14.8360 C.3   368  GLU368      0.1161
    209  CD        14.3220   19.3520  -13.5680 C.2   368  GLU368      0.3649
    210  OE1       13.1760   18.8070  -13.5880 O.co2 368  GLU368     -0.2457
    211  OE2       15.0740   19.2920  -12.5400 O.co2 368  GLU368     -0.2457
    212  N         11.5270   22.9630  -16.1370 N.am  369  VAL369     -0.1980
    213  CA        10.6820   23.8550  -16.8920 C.3   369  VAL369      0.1595
    214  C         10.4370   25.1620  -16.1280 C.2   369  VAL369      0.2287
    215  O         10.4490   26.2190  -16.7200 O.2   369  VAL369     -0.2864
    216  CB         9.3250   23.1380  -17.2420 C.3   369  VAL369      0.0276
    217  CG1        8.2570   24.0930  -17.7100 C.3   369  VAL369      0.0022
    218  CG2        9.5330   22.0500  -18.3170 C.3   369  VAL369      0.0022
    219  N         13.6380   27.2860  -16.6130 N.3   372  MET372     -0.1245
    220  CA        13.6590   27.8300  -17.9690 C.3   372  MET372      0.1570
    221  C         12.7990   29.0710  -18.0570 C.2   372  MET372      0.2261
    222  O         13.2380   30.1030  -18.5590 O.2   372  MET372     -0.2867
    223  CB        13.1320   26.8070  -18.9760 C.3   372  MET372      0.0387
    224  CG        14.1650   25.8020  -19.4060 C.3   372  MET372      0.0595
    225  SD        13.4920   24.3840  -20.3060 S.3   372  MET372     -0.1393
    226  CE        14.6370   23.1330  -19.7340 C.3   372  MET372      0.0692
@<TRIPOS>BOND
     1    96    94   ar
     2    72    70   ar
     3    72    71   ar
     4    70    68   ar
     5    71    69   ar
     6    54    53   ar
     7    94    95   ar
     8    94    93    1
     9    55    53   ar
    10    68    69   ar
    11    68    67    1
    12    53    52    1
    13    93    92    1
    14    67    64    1
    15    91    90    2
    16    77    74    1
    17    52    51    1
    18    92    89    1
    19    64    65    1
    20    64    63    1
    21    51    48    1
    22    66    65    2
    23    65    73   am
    24    90    89    1
    25    63    58   am
    26    73    74    1
    27    74    75    1
    28    89    88    1
    29    38    37    1
    30    62    61    1
    31    62    56    1
    32    60    61    1
    33    60    57    1
    34    35    34    2
    35    48    49    1
    36    48    47    1
    37    56    49   am
    38    56    57    1
    39    58    57    1
    40    58    59    2
    41    49    50    2
    42    29    28    2
    43    75    76    2
    44    75    78   am
    45    88    84   am
    46    47    42   am
    47    34    33    1
    48    34    40   am
    49    37    36    1
    50    37    39    1
    51    33    36    1
    52    33    32    1
    53    42    43    2
    54    42    41    1
    55    78    79    1
    56    28    32   am
    57    28    27    1
    58    85    84    2
    59    84    83    1
    60    30    27    1
    61    30    31    1
    62    40    41    1
    63    41    44    1
    64    81    80    2
    65    27    26    1
    66    79    80    1
    67    80    82   am
    68    97    98    1
    69    82    83    1
    70    83    86    1
    71    26    17   am
    72    44    46    1
    73    44    45    1
    74   105   103   am
    75   101    98    1
    76   101   102    1
    77    86    87    1
    78   225   226    1
    79   225   224    1
    80    25    24   ar
    81    25    23   ar
    82    24    22   ar
    83    98    99    1
    84   104   103    2
    85   103   102    1
    86    23    21   ar
    87    17    16    1
    88    17    18    2
    89    22    20   ar
    90   224   223    1
    91    21    20   ar
    92   223   220    1
    93   123   121    1
    94   100    99    2
    95    20    19    1
    96    16    19    1
    97    16    15    1
    98    99   106   am
    99   222   221    2
   100   218   216    1
   101   221   220    1
   102   220   219    1
   103   217   216    1
   104   106   107    1
   105    11    10    2
   106   121   122    1
   107   121   118    1
   108   216   213    1
   109   113   115   ar
   110   113   111   ar
   111   115   116   ar
   112   213   212    1
   113   213   214    1
   114   215   214    2
   115   117   118    1
   116   117   108   am
   117   118   119    1
   118    10     9    1
   119   107   108    1
   120   107   110    1
   121    12    13    1
   122    12     9    1
   123    12    14    1
   124   108   109    2
   125   111   110    1
   126   111   112   ar
   127   116   114   ar
   128   206   205    2
   129   212   205   am
   130     9     8    1
   131   205   204    1
   132   201   200    1
   133   207   204    1
   134   207   208    1
   135   112   114   ar
   136   193   192    1
   137   193   194    1
   138   202   200    1
   139   119   120    2
   140   119   124   am
   141   204   203    1
   142   208   209    1
   143   196   194   am
   144   196   197    1
   145   192   185   am
   146   200   197    1
   147   124   125    1
   148   194   195    2
   149   127   126    2
   150   191   189   ar
   151   185   186    2
   152   185   184    1
   153   199   198    2
   154   197   198    1
   155   210   209   ar
   156   209   211   ar
   157   184   183    1
   158   184   187    1
   159   150   151    2
   160   150   149    1
   161   183   173   am
   162   189   190   ar
   163   189   188    1
   164   126   125    1
   165   166   165    2
   166   125   128    1
   167     6     5    1
   168     4     3    2
   169   154   152    1
   170   128   129    1
   171   128   130    1
   172   169   167    1
   173   172   173    1
   174   172   175    1
   175   172   171    1
   176   173   174    2
   177   149   152    1
   178   149   148    1
   179   188   187    1
   180   175   176    1
   181   165   171   am
   182   165   164    1
   183     3     2    1
   184   152   153    1
   185     5     7    1
   186     5     2    1
   187     2     1    1
   188   164   167    1
   189   164   163    1
   190   167   168    1
   191   176   178   ar
   192   176   177   ar
   193   178   180   ar
   194   168   170    1
   195   177   179   ar
   196   162   160    1
   197   180   181   ar
   198   136   137    1
   199   136   135    1
   200   137   138    1
   201   179   181   ar
   202   158   157    2
   203   160   159    1
   204   181   182    1
   205   138   139    1
   206   131   132    1
   207   135   132    1
   208   132   133    1
   209   157   156    1
   210   147   145    1
   211   159   156    1
   212   159   161    1
   213   156   155    1
   214   133   134    2
   215   145   144    1
   216   143   142    2
   217   144   146    1
   218   144   141    1
   219   142   141    1
   220   141   140    1
