@<TRIPOS>MOLECULE
tmp/4n5gD00.pdb
 138 133 0 0 0
SMALL
GASTEIGER

@<TRIPOS>ATOM
      1  N          7.5260  -31.5130   36.9340 N.3     6  ILE6       -0.1245
      2  CA         7.6840  -30.6480   35.7690 C.3     6  ILE6        0.1561
      3  C          9.0960  -30.7440   35.1990 C.2     6  ILE6        0.2260
      4  O          9.2820  -30.8520   33.9840 O.2     6  ILE6       -0.2867
      5  CB         7.3740  -29.1790   36.1170 C.3     6  ILE6        0.0252
      6  CG1        5.9020  -29.0250   36.4960 C.3     6  ILE6        0.0019
      7  CG2        7.7060  -28.2660   34.9490 C.3     6  ILE6        0.0019
      8  CD1        5.5760  -27.6850   37.0980 C.3     6  ILE6        0.0001
      9  N          9.4950  -34.0020   33.4960 N.3     9  ALA9       -0.1231
     10  CA         8.7590  -33.9470   32.2390 C.3     9  ALA9        0.1694
     11  C          9.5610  -33.2060   31.1770 C.2     9  ALA9        0.2591
     12  O          9.5410  -33.5730   30.0020 O.2     9  ALA9       -0.2718
     13  CB         7.4050  -33.2850   32.4450 C.3     9  ALA9        0.0304
     14  N         10.2570  -32.1550   31.5990 N.am   10  ALA10      -0.1980
     15  CA        11.1050  -31.3790   30.7030 C.3    10  ALA10       0.1597
     16  C         12.2380  -32.2360   30.1480 C.2    10  ALA10       0.2287
     17  O         12.5050  -32.2250   28.9460 O.2    10  ALA10      -0.2864
     18  CB        11.6640  -30.1610   31.4220 C.3    10  ALA10       0.0319
     19  N         10.9120  -34.7540   27.6950 N.3    13  GLN13      -0.1245
     20  CA        10.5540  -34.0310   26.4840 C.3    13  GLN13       0.1566
     21  C         11.8160  -33.6730   25.6940 C.2    13  GLN13       0.2260
     22  O         11.8270  -33.7190   24.4630 O.2    13  GLN13      -0.2867
     23  CB         9.7630  -32.7720   26.8400 C.3    13  GLN13       0.0367
     24  CG         8.8410  -32.2600   25.7500 C.3    13  GLN13       0.0905
     25  CD         7.4010  -32.6960   25.9740 C.2    13  GLN13       0.2608
     26  OE1        6.4660  -32.0680   25.4780 O.2    13  GLN13      -0.2717
     27  NE2        7.2190  -33.7710   26.7350 N.am   13  GLN13      -0.0878
     28  N         14.0430  -25.3830   19.9940 N.3    43  TRP43      -0.1241
     29  CA        13.2600  -26.2050   20.9190 C.3    43  TRP43       0.1605
     30  C         11.9080  -25.5860   21.2570 C.2    43  TRP43       0.2264
     31  O         10.9190  -26.3000   21.4180 O.2    43  TRP43      -0.2867
     32  CB        14.0440  -26.4760   22.2120 C.3    43  TRP43       0.0550
     33  CG        14.2880  -25.2690   23.0710 C.ar   43  TRP43       0.0003
     34  CD1       15.4120  -24.4980   23.0900 C.ar   43  TRP43       0.0946
     35  CD2       13.4000  -24.7060   24.0490 C.ar   43  TRP43       0.0152
     36  NE1       15.2780  -23.4840   24.0070 N.ar   43  TRP43      -0.2442
     37  CE2       14.0520  -23.5890   24.6100 C.ar   43  TRP43       0.0810
     38  CE3       12.1170  -25.0340   24.5020 C.ar   43  TRP43       0.0012
     39  CZ2       13.4680  -22.7990   25.5980 C.ar   43  TRP43       0.0191
     40  CZ3       11.5350  -24.2440   25.4820 C.ar   43  TRP43       0.0001
     41  CH2       12.2130  -23.1420   26.0200 C.ar   43  TRP43       0.0015
     42  N          8.4320  -27.3020   20.1840 N.3    47  LEU47      -0.1245
     43  CA         7.5320  -27.7350   21.2470 C.3    47  LEU47       0.1561
     44  C          6.1210  -27.1880   21.0610 C.2    47  LEU47       0.2260
     45  O          5.1380  -27.9110   21.2250 O.2    47  LEU47      -0.2867
     46  CB         8.0780  -27.2980   22.6100 C.3    47  LEU47       0.0270
     47  CG         7.0920  -27.3120   23.7790 C.3    47  LEU47       0.0019
     48  CD1        6.8190  -28.7320   24.2500 C.3    47  LEU47       0.0001
     49  CD2        7.6010  -26.4470   24.9220 C.3    47  LEU47       0.0001
     50  N         -0.5950  -30.5110   26.7340 N.3    64  LEU64      -0.1231
     51  CA         0.8410  -30.6890   26.8930 C.3    64  LEU64       0.1693
     52  C          1.1270  -32.1780   27.0560 C.2    64  LEU64       0.2592
     53  O          0.3030  -32.9240   27.5860 O.2    64  LEU64      -0.2718
     54  CB         1.3740  -29.8710   28.0700 C.3    64  LEU64       0.0284
     55  CG         1.2290  -28.3550   27.8860 C.3    64  LEU64       0.0019
     56  CD1        0.0120  -27.8160   28.6200 C.3    64  LEU64       0.0001
     57  CD2        2.4930  -27.6230   28.3160 C.3    64  LEU64       0.0001
     58  N          2.3020  -32.5960   26.5980 N.am   65  ALA65      -0.1966
     59  CA         2.5430  -33.9770   26.1730 C.3    65  ALA65       0.1728
     60  C          2.3750  -35.0690   27.2330 C.2    65  ALA65       0.2616
     61  O          2.5860  -36.2440   26.9350 O.2    65  ALA65      -0.2715
     62  CB         3.9400  -34.0760   25.5720 C.3    65  ALA65       0.0334
     63  N          1.9950  -34.7080   28.4530 N.am   66  THR66      -0.1951
     64  CA         1.8120  -35.7190   29.4930 C.3    66  THR66       0.1897
     65  C          0.4020  -35.7220   30.0750 C.2    66  THR66       0.2313
     66  O          0.2260  -35.7530   31.2930 O.2    66  THR66      -0.2863
     67  CB         2.8180  -35.5220   30.6430 C.3    66  THR66       0.1794
     68  OG1        2.6590  -34.2120   31.2010 O.3    66  THR66      -0.2208
     69  CG2        4.2430  -35.6840   30.1390 C.3    66  THR66       0.0378
     70  N         -1.4520  -33.4340   30.3440 N.3    68  LEU68      -0.1245
     71  CA        -1.6610  -32.1600   31.0170 C.3    68  LEU68       0.1561
     72  C         -2.5110  -31.2420   30.1440 C.2    68  LEU68       0.2260
     73  O         -2.0560  -30.7510   29.1100 O.2    68  LEU68      -0.2867
     74  CB        -0.3140  -31.5150   31.3540 C.3    68  LEU68       0.0270
     75  CG        -0.2730  -30.0590   31.8140 C.3    68  LEU68       0.0019
     76  CD1       -1.1780  -29.8410   33.0180 C.3    68  LEU68       0.0001
     77  CD2        1.1600  -29.6720   32.1410 C.3    68  LEU68       0.0001
     78  N          7.8960  -16.8470   25.4170 N.3   171  LEU171     -0.1245
     79  CA         9.0600  -16.7100   26.2870 C.3   171  LEU171      0.1561
     80  C          9.0600  -15.3830   27.0410 C.2   171  LEU171      0.2260
     81  O          9.4400  -15.3230   28.2110 O.2   171  LEU171     -0.2867
     82  CB        10.3550  -16.8360   25.4800 C.3   171  LEU171      0.0270
     83  CG        10.6310  -18.1600   24.7690 C.3   171  LEU171      0.0019
     84  CD1       11.9110  -18.0700   23.9530 C.3   171  LEU171      0.0001
     85  CD2       10.7090  -19.3010   25.7700 C.3   171  LEU171      0.0001
     86  N          6.5640  -15.4370   29.9440 N.3   174  LEU174     -0.1231
     87  CA         6.7230  -16.5690   30.8580 C.3   174  LEU174      0.1693
     88  C          5.5100  -17.4880   30.7590 C.2   174  LEU174      0.2592
     89  O          4.9670  -17.9390   31.7670 O.2   174  LEU174     -0.2718
     90  CB         6.9320  -16.0910   32.2960 C.3   174  LEU174      0.0284
     91  CG         8.1180  -15.1420   32.4900 C.3   174  LEU174      0.0019
     92  CD1        8.2490  -14.7020   33.9420 C.3   174  LEU174      0.0001
     93  CD2        9.4050  -15.7930   32.0050 C.3   174  LEU174      0.0001
     94  N          5.1010  -17.7340   29.5180 N.am  175  PHE175     -0.1962
     95  CA         3.9220  -18.5240   29.1750 C.3   175  PHE175      0.1771
     96  C          3.8170  -19.8340   29.9440 C.2   175  PHE175      0.2620
     97  O          2.7920  -20.1220   30.5640 O.2   175  PHE175     -0.2715
     98  CB         3.9340  -18.8110   27.6710 C.3   175  PHE175      0.0574
     99  CG         2.7580  -19.6050   27.1820 C.ar  175  PHE175     -0.0200
    100  CD1        1.5190  -19.0090   27.0170 C.ar  175  PHE175     -0.0042
    101  CD2        2.9020  -20.9430   26.8510 C.ar  175  PHE175     -0.0042
    102  CE1        0.4400  -19.7370   26.5500 C.ar  175  PHE175     -0.0003
    103  CE2        1.8290  -21.6760   26.3840 C.ar  175  PHE175     -0.0003
    104  CZ         0.5970  -21.0720   26.2310 C.ar  175  PHE175     -0.0000
    105  N          4.8800  -20.6250   29.8930 N.am  176  PHE176     -0.1960
    106  CA         4.8650  -21.9490   30.4900 C.3   176  PHE176      0.1771
    107  C          4.8750  -21.8900   32.0160 C.2   176  PHE176      0.2619
    108  O          4.1470  -22.6350   32.6670 O.2   176  PHE176     -0.2715
    109  CB         6.0510  -22.7650   29.9740 C.3   176  PHE176      0.0574
    110  CG         6.0520  -22.9430   28.4800 C.ar  176  PHE176     -0.0200
    111  CD1        6.9140  -22.2060   27.6870 C.ar  176  PHE176     -0.0042
    112  CD2        5.1820  -23.8310   27.8690 C.ar  176  PHE176     -0.0042
    113  CE1        6.9190  -22.3560   26.3150 C.ar  176  PHE176     -0.0003
    114  CE2        5.1820  -23.9870   26.4940 C.ar  176  PHE176     -0.0003
    115  CZ         6.0510  -23.2480   25.7170 C.ar  176  PHE176     -0.0000
    116  N          5.6910  -21.0070   32.5870 N.am  177  PHE177     -0.1974
    117  CA         5.6960  -20.8250   34.0370 C.3   177  PHE177      0.1639
    118  C          4.3270  -20.4280   34.5740 C.2   177  PHE177      0.2290
    119  O          3.8570  -20.9830   35.5630 O.2   177  PHE177     -0.2864
    120  CB         6.7220  -19.7770   34.4670 C.3   177  PHE177      0.0560
    121  CG         6.5870  -19.3650   35.9080 C.ar  177  PHE177     -0.0200
    122  CD1        6.0070  -18.1540   36.2520 C.ar  177  PHE177     -0.0042
    123  CD2        7.0220  -20.2030   36.9210 C.ar  177  PHE177     -0.0042
    124  CE1        5.8760  -17.7820   37.5780 C.ar  177  PHE177     -0.0003
    125  CE2        6.8930  -19.8380   38.2480 C.ar  177  PHE177     -0.0003
    126  CZ         6.3200  -18.6250   38.5770 C.ar  177  PHE177     -0.0000
    127  N          1.9240  -23.6040   34.1490 N.3   180  ILE180     -0.1231
    128  CA         2.1800  -24.8630   34.8490 C.3   180  ILE180      0.1692
    129  C          3.1360  -24.7310   36.0370 C.2   180  ILE180      0.2592
    130  O          3.2130  -25.6330   36.8680 O.2   180  ILE180     -0.2718
    131  CB         2.7360  -25.9450   33.8850 C.3   180  ILE180      0.0266
    132  CG1        4.1420  -25.5880   33.4000 C.3   180  ILE180      0.0019
    133  CG2        1.7830  -26.1670   32.7170 C.3   180  ILE180      0.0020
    134  CD1        4.5500  -26.2940   32.1200 C.3   180  ILE180      0.0001
    135  N          3.8480  -23.6120   36.1280 N.am  181  GLY181     -0.1957
    136  CA         4.8030  -23.4120   37.2070 C.3   181  GLY181      0.1869
    137  C          4.2800  -22.6210   38.3960 C.2   181  GLY181      0.2309
    138  O          4.7520  -22.8040   39.5170 O.2   181  GLY181     -0.2863
@<TRIPOS>BOND
     1    28    29    1
     2    42    43    1
     3    29    30    1
     4    29    32    1
     5    44    45    2
     6    44    43    1
     7    43    46    1
     8    30    31    2
     9    32    33    1
    10    46    47    1
    11    33    34   ar
    12    33    35   ar
    13    34    36   ar
    14    47    48    1
    15    47    49    1
    16    84    83    1
    17    36    37   ar
    18    35    38   ar
    19    35    37   ar
    20    22    21    2
    21    38    40   ar
    22    37    39   ar
    23    83    82    1
    24    83    85    1
    25    78    79    1
    26    26    25    2
    27    82    79    1
    28    40    41   ar
    29    62    59    1
    30    39    41   ar
    31    21    20    1
    32   115   113   ar
    33   115   114   ar
    34    24    25    1
    35    24    23    1
    36    25    27   am
    37    59    58    1
    38    59    60    1
    39   104   103   ar
    40   104   102   ar
    41    79    80    1
    42   113   111   ar
    43   103   101   ar
    44    20    23    1
    45    20    19    1
    46   114   112   ar
    47   102   100   ar
    48    58    52   am
    49    50    51    1
    50   101    99   ar
    51    51    52    1
    52    51    54    1
    53    61    60    2
    54   100    99   ar
    55    80    81    2
    56    52    53    2
    57    99    98    1
    58    60    63   am
    59    98    95    1
    60   111   110   ar
    61   112   110   ar
    62    55    54    1
    63    55    57    1
    64    55    56    1
    65    63    64    1
    66   110   109    1
    67    17    16    2
    68    73    72    2
    69    95    94    1
    70    95    96    1
    71    64    65    1
    72    64    67    1
    73    94    88   am
    74   105    96   am
    75   105   106    1
    76    86    87    1
    77    96    97    2
    78   109   106    1
    79    12    11    2
    80    65    66    2
    81    69    67    1
    82    72    71    1
    83    16    15    1
    84    70    71    1
    85   106   107    1
    86    67    68    1
    87    15    18    1
    88    15    14    1
    89    88    87    1
    90    88    89    2
    91    87    90    1
    92    71    74    1
    93    11    14   am
    94    11    10    1
    95    74    75    1
    96    75    77    1
    97    75    76    1
    98    93    91    1
    99   107   116   am
   100   107   108    2
   101   134   132    1
   102    10    13    1
   103    10     9    1
   104    90    91    1
   105    91    92    1
   106   116   117    1
   107   133   131    1
   108   132   131    1
   109   131   128    1
   110     4     3    2
   111   117   120    1
   112   117   118    1
   113   127   128    1
   114   120   121    1
   115   118   119    2
   116   128   129    1
   117     7     5    1
   118     3     2    1
   119     2     5    1
   120     2     1    1
   121   121   122   ar
   122   121   123   ar
   123   129   135   am
   124   129   130    2
   125     5     6    1
   126   135   136    1
   127   122   124   ar
   128     6     8    1
   129   123   125   ar
   130   136   137    1
   131   124   126   ar
   132   125   126   ar
   133   137   138    2
