@<TRIPOS>MOLECULE
tmp/4n5iA00.pdb
 199 192 0 0 0
SMALL
GASTEIGER

@<TRIPOS>ATOM
      1  N          1.3260   21.1400   19.2680 N.3    10  SER10      -0.1202
      2  CA         0.6870   21.7140   18.0830 C.3    10  SER10       0.2020
      3  C          1.2840   21.0840   16.7900 C.2    10  SER10       0.2618
      4  O          0.5300   20.7150   15.8780 O.2    10  SER10      -0.2717
      5  CB         0.6070   23.2280   18.0860 C.3    10  SER10       0.2103
      6  OG         1.5230   23.8160   17.2530 O.3    10  SER10      -0.2182
      7  N          2.5980   20.9050   16.7340 N.am   11  TRP11      -0.1975
      8  CA         3.1970   20.1980   15.5950 C.3    11  TRP11       0.1640
      9  C          2.7950   18.7180   15.5110 C.2    11  TRP11       0.2290
     10  O          2.7540   18.1690   14.4040 O.2    11  TRP11      -0.2864
     11  CB         4.7200   20.4370   15.5090 C.3    11  TRP11       0.0576
     12  CG         4.9760   21.9240   15.3100 C.ar   11  TRP11       0.0006
     13  CD1        5.5030   22.7820   16.2130 C.ar   11  TRP11       0.0946
     14  CD2        4.6110   22.7210   14.1660 C.ar   11  TRP11       0.0152
     15  NE1        5.4700   24.0840   15.7160 N.ar   11  TRP11      -0.2442
     16  CE2        4.9550   24.0650   14.4580 C.ar   11  TRP11       0.0810
     17  CE3        4.0200   22.4280   12.9220 C.ar   11  TRP11       0.0012
     18  CZ2        4.7030   25.1170   13.5680 C.ar   11  TRP11       0.0191
     19  CZ3        3.7920   23.4520   12.0230 C.ar   11  TRP11       0.0001
     20  CH2        4.1280   24.7900   12.3480 C.ar   11  TRP11       0.0015
     21  N         -0.2460   18.8000   13.7530 N.3    14  THR14      -0.1218
     22  CA        -0.0450   19.1080   12.3260 C.3    14  THR14       0.1862
     23  C          0.4260   17.8260   11.6500 C.2    14  THR14       0.2287
     24  O         -0.0620   17.4530   10.5600 O.2    14  THR14      -0.2866
     25  CB         0.9350   20.2810   12.1370 C.3    14  THR14       0.1770
     26  OG1        0.4170   21.4050   12.8470 O.3    14  THR14      -0.2211
     27  CG2        1.0860   20.6520   10.7130 C.3    14  THR14       0.0375
     28  N         -1.0030   15.8860    8.4090 N.3    18  ASP18      -0.1239
     29  CA        -0.1640   15.6400    7.2330 C.3    18  ASP18       0.1674
     30  C         -0.1560   14.1530    6.8370 C.2    18  ASP18       0.2266
     31  O         -0.1560   13.7900    5.6450 O.2    18  ASP18      -0.2867
     32  CB         1.2700   16.1220    7.4730 C.3    18  ASP18       0.1410
     33  CG         1.3880   17.6710    7.6270 C.2    18  ASP18       0.3668
     34  OD1        0.4660   18.3980    7.2630 O.co2  18  ASP18      -0.2456
     35  OD2        2.4070   18.1700    8.1400 O.co2  18  ASP18      -0.2456
     36  N          8.5390   23.9700    5.0970 N.3    70  GLY70      -0.1210
     37  CA         8.0700   24.7390    6.2240 C.3    70  GLY70       0.1956
     38  C          7.7930   23.8580    7.4230 C.2    70  GLY70       0.2612
     39  O          8.2270   22.6950    7.4810 O.2    70  GLY70      -0.2717
     40  N          7.0740   24.4370    8.3930 N.am   71  GLY71      -0.1942
     41  CA         6.8330   23.7850    9.6740 C.3    71  GLY71       0.2014
     42  C          7.2920   24.5900   10.8810 C.2    71  GLY71       0.2639
     43  O          7.5960   24.0400   11.9150 O.2    71  GLY71      -0.2714
     44  N          7.3120   25.8980   10.7860 N.am   72  GLY72      -0.1939
     45  CA         7.6400   26.7130   11.9690 C.3    72  GLY72       0.2014
     46  C          8.9960   26.4930   12.5810 C.2    72  GLY72       0.2638
     47  O          9.1810   26.7640   13.7700 O.2    72  GLY72      -0.2714
     48  N          9.9600   26.0110   11.7740 N.am   73  TRP73      -0.1973
     49  CA        11.3420   25.7540   12.2510 C.3    73  TRP73       0.1640
     50  C         11.4710   24.6590   13.2680 C.2    73  TRP73       0.2290
     51  O         12.6120   24.2160   13.5600 O.2    73  TRP73      -0.2864
     52  CB        12.0090   27.0290   12.8280 C.3    73  TRP73       0.0576
     53  CG        11.9380   28.2690   11.9260 C.ar   73  TRP73       0.0006
     54  CD1       12.7920   28.5710   10.9070 C.ar   73  TRP73       0.0946
     55  CD2       11.0090   29.3730   12.0130 C.ar   73  TRP73       0.0152
     56  NE1       12.3980   29.7520   10.2940 N.ar   73  TRP73      -0.2442
     57  CE2       11.3320   30.2760   10.9790 C.ar   73  TRP73       0.0810
     58  CE3        9.8910   29.6690   12.8460 C.ar   73  TRP73       0.0012
     59  CZ2       10.6200   31.4920   10.7770 C.ar   73  TRP73       0.0191
     60  CZ3        9.1770   30.8330   12.6250 C.ar   73  TRP73       0.0001
     61  CH2        9.5330   31.7430   11.6050 C.ar   73  TRP73       0.0015
     62  N          9.4490   21.7330   12.9490 N.3    75  TYR75      -0.1241
     63  CA         8.7890   20.5180   12.4180 C.3    75  TYR75       0.1605
     64  C          9.1290   20.2700   10.9320 C.2    75  TYR75       0.2264
     65  O          9.3410   21.2200   10.1370 O.2    75  TYR75      -0.2867
     66  CB         7.2410   20.6220   12.6050 C.3    75  TYR75       0.0534
     67  CG         6.3820   19.6830   11.7610 C.ar   75  TYR75      -0.0201
     68  CD1        5.7810   20.1280   10.5820 C.ar   75  TYR75      -0.0009
     69  CD2        6.1510   18.3730   12.1510 C.ar   75  TYR75      -0.0009
     70  CE1        5.0000   19.2910    9.7930 C.ar   75  TYR75       0.0417
     71  CE2        5.4080   17.4980   11.3800 C.ar   75  TYR75       0.0417
     72  CZ         4.8220   17.9470   10.1900 C.ar   75  TYR75       0.1957
     73  OH         4.0630   17.0580    9.4170 O.3    75  TYR75      -0.2866
     74  N          8.4000   15.8180    3.9000 N.3    80  LEU80      -0.1231
     75  CA         7.1160   16.5440    4.1060 C.3    80  LEU80       0.1693
     76  C          6.4920   17.0870    2.8050 C.2    80  LEU80       0.2592
     77  O          5.2570   17.0590    2.5780 O.2    80  LEU80      -0.2718
     78  CB         7.3290   17.6800    5.0830 C.3    80  LEU80       0.0284
     79  CG         6.1450   18.6310    5.3360 C.3    80  LEU80       0.0019
     80  CD1        5.1130   17.8170    6.0530 C.3    80  LEU80       0.0001
     81  CD2        6.5710   19.7590    6.2090 C.3    80  LEU80       0.0001
     82  N          7.3370   17.6410    1.9520 N.am   81  ASN81      -0.1974
     83  CA         6.8860   18.2710    0.7280 C.3    81  ASN81       0.1688
     84  C          7.0640   17.3520   -0.4760 C.2    81  ASN81       0.2292
     85  O          7.2250   17.8010   -1.6050 O.2    81  ASN81      -0.2864
     86  CB         7.6100   19.5810    0.5000 C.3    81  ASN81       0.1181
     87  CG         7.1190   20.7070    1.3920 C.2    81  ASN81       0.2629
     88  OD1        6.2480   20.5470    2.2350 O.2    81  ASN81      -0.2716
     89  ND2        7.7210   21.8680    1.2140 N.am   81  ASN81      -0.0877
     90  N          8.4060   27.3920    1.6490 N.3   141  ASP141     -0.1225
     91  CA         7.0240   27.7010    2.1180 C.3   141  ASP141      0.1805
     92  C          6.9660   27.9840    3.6390 C.2   141  ASP141      0.2598
     93  O          7.5780   27.2850    4.4400 O.2   141  ASP141     -0.2718
     94  CB         5.9600   26.6290    1.7780 C.3   141  ASP141      0.1424
     95  CG         6.2570   25.2610    2.3960 C.2   141  ASP141      0.3668
     96  OD1        7.2670   24.6040    2.0150 O.co2 141  ASP141     -0.2456
     97  OD2        5.4640   24.8660    3.2910 O.co2 141  ASP141     -0.2456
     98  N          6.2950   29.0850    4.0150 N.am  142  SER142     -0.1938
     99  CA         6.1980   29.5130    5.4400 C.3   142  SER142      0.2055
    100  C          7.5790   29.8060    6.2250 C.2   142  SER142      0.2642
    101  O          8.3110   30.7330    5.8590 O.2   142  SER142     -0.2714
    102  CB         5.2750   28.5210    6.1380 C.3   142  SER142      0.2130
    103  OG         4.7760   29.1300    7.3390 O.3   142  SER142     -0.2179
    104  N          7.9420   29.0250    7.2460 N.am  143  ALA143     -0.1977
    105  CA         9.2930   29.0910    7.7970 C.3   143  ALA143      0.1597
    106  C         10.3920   28.7720    6.7420 C.2   143  ALA143      0.2287
    107  O         11.4720   29.3480    6.7360 O.2   143  ALA143     -0.2864
    108  CB         9.3720   28.1300    8.9910 C.3   143  ALA143      0.0319
    109  N          6.9530   33.6620    6.2550 N.3   182  VAL182     -0.1245
    110  CA         7.0300   34.3940    7.5330 C.3   182  VAL182      0.1561
    111  C          8.4270   34.9700    7.6360 C.2   182  VAL182      0.2260
    112  O          9.2020   34.5490    8.4600 O.2   182  VAL182     -0.2867
    113  CB         6.6750   33.4920    8.7260 C.3   182  VAL182      0.0252
    114  CG1        6.6860   34.2640   10.0400 C.3   182  VAL182      0.0019
    115  CG2        5.2540   33.0150    8.5600 C.3   182  VAL182      0.0019
    116  N          5.9180   38.8820   14.7550 N.3   188  LEU188     -0.1245
    117  CA         4.9460   37.9460   15.2700 C.3   188  LEU188      0.1561
    118  C          4.3990   38.3030   16.6650 C.2   188  LEU188      0.2260
    119  O          3.1990   38.3020   16.8490 O.2   188  LEU188     -0.2867
    120  CB         5.5000   36.5340   15.2800 C.3   188  LEU188      0.0270
    121  CG         5.7880   35.9500   13.8830 C.3   188  LEU188      0.0019
    122  CD1        6.6130   34.6790   14.0310 C.3   188  LEU188      0.0001
    123  CD2        4.4860   35.6860   13.1540 C.3   188  LEU188      0.0001
    124  N         -1.0470   34.8920   22.4080 N.3   195  MET195     -0.1245
    125  CA         0.0350   34.0040   21.9380 C.3   195  MET195      0.1570
    126  C          1.3720   34.6940   21.8760 C.2   195  MET195      0.2261
    127  O          2.2750   34.1820   21.2260 O.2   195  MET195     -0.2867
    128  CB        -0.2640   33.5130   20.5300 C.3   195  MET195      0.0387
    129  CG        -1.6470   32.9280   20.3850 C.3   195  MET195      0.0595
    130  SD        -1.7170   31.2610   21.0260 S.3   195  MET195     -0.1393
    131  CE        -2.2630   31.4690   22.7310 C.3   195  MET195      0.0692
    132  N          4.2880   32.6770   23.4070 N.3   198  MET198     -0.1230
    133  CA         4.7040   31.6140   22.5170 C.3   198  MET198      0.1702
    134  C          5.5070   32.1730   21.3400 C.2   198  MET198      0.2592
    135  O          6.5100   31.5970   20.9730 O.2   198  MET198     -0.2718
    136  CB         3.5440   30.7770   22.0640 C.3   198  MET198      0.0401
    137  CG         3.9510   29.6910   21.0900 C.3   198  MET198      0.0596
    138  SD         2.5290   28.7210   20.5970 S.3   198  MET198     -0.1393
    139  CE         2.2520   27.6740   22.0100 C.3   198  MET198      0.0692
    140  N          5.0920   33.2970   20.7870 N.am  199  ALA199     -0.1980
    141  CA         5.7960   33.8550   19.6800 C.3   199  ALA199      0.1597
    142  C          7.2130   34.3140   20.0980 C.2   199  ALA199      0.2287
    143  O          8.1800   34.1490   19.3520 O.2   199  ALA199     -0.2864
    144  CB         4.9990   34.9980   19.0850 C.3   199  ALA199      0.0319
    145  N          9.4630   31.1510   20.1660 N.3   202  TYR202     -0.1241
    146  CA         9.9900   30.8950   18.8470 C.3   202  TYR202      0.1605
    147  C         11.2400   31.7580   18.5920 C.2   202  TYR202      0.2264
    148  O         12.2600   31.2570   18.1530 O.2   202  TYR202     -0.2867
    149  CB         8.9340   31.1970   17.7770 C.3   202  TYR202      0.0534
    150  CG         7.9900   30.0150   17.4880 C.ar  202  TYR202     -0.0201
    151  CD1        7.0100   29.6510   18.3960 C.ar  202  TYR202     -0.0009
    152  CD2        8.0910   29.2650   16.3080 C.ar  202  TYR202     -0.0009
    153  CE1        6.1290   28.5780   18.1490 C.ar  202  TYR202      0.0417
    154  CE2        7.2060   28.1920   16.0520 C.ar  202  TYR202      0.0417
    155  CZ         6.2110   27.8560   16.9810 C.ar  202  TYR202      0.1957
    156  OH         5.3060   26.7820   16.7910 O.3   202  TYR202     -0.2866
    157  N         -3.2180   32.3830    7.0550 N.3   240  SER240     -0.1202
    158  CA        -3.2260   32.8860    8.4590 C.3   240  SER240      0.2020
    159  C         -2.1090   33.8790    8.6680 C.2   240  SER240      0.2618
    160  O         -2.2110   34.7370    9.4960 O.2   240  SER240     -0.2717
    161  CB        -3.1200   31.7430    9.4770 C.3   240  SER240      0.2103
    162  OG        -2.2080   30.7580    9.0400 O.3   240  SER240     -0.2182
    163  N         -1.0560   33.7920    7.8600 N.am  241  PHE241     -0.1975
    164  CA         0.0740   34.7440    7.9420 C.3   241  PHE241      0.1639
    165  C          0.1190   35.7760    6.8290 C.2   241  PHE241      0.2290
    166  O          1.1960   36.2860    6.4730 O.2   241  PHE241     -0.2864
    167  CB         1.4090   33.9730    8.0290 C.3   241  PHE241      0.0560
    168  CG         1.5490   33.2140    9.2880 C.ar  241  PHE241     -0.0200
    169  CD1        1.2870   31.8590    9.3270 C.ar  241  PHE241     -0.0042
    170  CD2        1.8240   33.8800   10.4700 C.ar  241  PHE241     -0.0042
    171  CE1        1.3850   31.1550   10.5170 C.ar  241  PHE241     -0.0003
    172  CE2        1.9490   33.1870   11.6440 C.ar  241  PHE241     -0.0003
    173  CZ         1.7130   31.8210   11.6820 C.ar  241  PHE241     -0.0000
    174  N         -3.2350   28.5060    4.1360 N.3   274  HIS274     -0.1226
    175  CA        -1.7970   28.5490    4.2200 C.3   274  HIS274      0.1752
    176  C         -1.1650   27.3570    3.4770 C.2   274  HIS274      0.2595
    177  O         -1.5840   26.1770    3.5860 O.2   274  HIS274     -0.2718
    178  CB        -1.2860   28.7120    5.6900 C.3   274  HIS274      0.0759
    179  CG        -1.7610   27.6590    6.6460 C.ar  274  HIS274      0.0818
    180  ND1       -2.4150   27.9710    7.8220 N.ar  274  HIS274     -0.2268
    181  CD2       -1.6940   26.3070    6.6000 C.ar  274  HIS274      0.1154
    182  CE1       -2.7190   26.8610    8.4650 C.ar  274  HIS274      0.1986
    183  NE2       -2.2780   25.8360    7.7520 N.ar  274  HIS274     -0.2212
    184  N         -0.1580   27.7030    2.7110 N.am  275  VAL275     -0.1980
    185  CA         0.5830   26.8170    1.8470 C.3   275  VAL275      0.1595
    186  C         -0.2850   25.8330    1.0370 C.2   275  VAL275      0.2287
    187  O          0.1560   24.7360    0.7780 O.2   275  VAL275     -0.2864
    188  CB         1.8310   26.2360    2.5600 C.3   275  VAL275      0.0276
    189  CG1        2.6060   27.3650    3.2520 C.3   275  VAL275      0.0022
    190  CG2        1.4970   25.2230    3.5970 C.3   275  VAL275      0.0022
    191  N          0.6160   21.8490   -0.1000 N.3   279  GLN279     -0.1245
    192  CA        -0.0810   20.7250    0.5320 C.3   279  GLN279      0.1566
    193  C         -1.0800   20.0100   -0.3560 C.2   279  GLN279      0.2260
    194  O         -1.2980   18.8250   -0.1370 O.2   279  GLN279     -0.2867
    195  CB        -0.7820   21.1570    1.7710 C.3   279  GLN279      0.0367
    196  CG         0.2130   21.6230    2.8570 C.3   279  GLN279      0.0905
    197  CD        -0.4620   21.8010    4.2140 C.2   279  GLN279      0.2608
    198  OE1       -1.6260   22.1940    4.2990 O.2   279  GLN279     -0.2717
    199  NE2        0.2870   21.5310    5.2750 N.am  279  GLN279     -0.0878
@<TRIPOS>BOND
     1    85    84    2
     2    84    83    1
     3   193   194    2
     4   193   192    1
     5   191   192    1
     6    86    83    1
     7    86    87    1
     8   192   195    1
     9    83    82    1
    10   187   186    2
    11   186   185    1
    12    89    87   am
    13    87    88    2
    14    90    91    1
    15   195   196    1
    16    94    91    1
    17    94    95    1
    18   185   188    1
    19   185   184    1
    20    82    76   am
    21    96    95   ar
    22    91    92    1
    23    95    97   ar
    24   188   189    1
    25   188   190    1
    26    77    76    2
    27   184   176   am
    28    76    75    1
    29   196   197    1
    30   176   177    2
    31   176   175    1
    32    92    98   am
    33    92    93    2
    34    74    75    1
    35    98    99    1
    36    75    78    1
    37   174   175    1
    38   197   198    2
    39   197   199   am
    40   175   178    1
    41    78    79    1
    42    36    37    1
    43    79    80    1
    44    79    81    1
    45    99   102    1
    46    99   100    1
    47    31    30    2
    48   178   179    1
    49   101   100    2
    50   102   103    1
    51    37    38    1
    52   100   104   am
    53   109   110    1
    54   166   165    2
    55   181   179   ar
    56   181   183   ar
    57   179   180   ar
    58   107   106    2
    59   106   105    1
    60   165   164    1
    61    30    29    1
    62   157   158    1
    63    29    32    1
    64    29    28    1
    65   104   105    1
    66    34    33   ar
    67    38    39    2
    68    38    40   am
    69    32    33    1
    70   110   111    1
    71   110   113    1
    72    33    35   ar
    73   111   112    2
    74   183   182   ar
    75   105   108    1
    76   180   182   ar
    77   163   164    1
    78   163   159   am
    79   164   167    1
    80   167   168    1
    81    40    41    1
    82   158   159    1
    83   158   161    1
    84   115   113    1
    85   159   160    2
    86   113   114    1
    87   162   161    1
    88   168   169   ar
    89   168   170   ar
    90   169   171   ar
    91    73    72    1
    92    41    42    1
    93    70    72   ar
    94    70    68   ar
    95    65    64    2
    96    72    71   ar
    97    56    54   ar
    98    56    57   ar
    99   170   172   ar
   100   171   173   ar
   101    24    23    2
   102    68    67   ar
   103    27    25    1
   104    59    57   ar
   105    59    61   ar
   106    44    42   am
   107    44    45    1
   108    42    43    2
   109    54    53   ar
   110    64    63    1
   111    57    55   ar
   112    71    69   ar
   113    61    60   ar
   114   172   173   ar
   115    23    22    1
   116    67    69   ar
   117    67    66    1
   118    48    49    1
   119    48    46   am
   120    53    55   ar
   121    53    52    1
   122    45    46    1
   123    55    58   ar
   124    19    20   ar
   125    19    17   ar
   126    25    22    1
   127    25    26    1
   128    49    52    1
   129    49    50    1
   130    22    21    1
   131    20    18   ar
   132    63    66    1
   133    63    62    1
   134    46    47    2
   135    60    58   ar
   136    17    14   ar
   137   123   121    1
   138    50    51    2
   139    18    16   ar
   140   121   122    1
   141   121   120    1
   142    14    16   ar
   143    14    12   ar
   144    10     9    2
   145    16    15   ar
   146   116   117    1
   147   117   120    1
   148   117   118    1
   149    12    11    1
   150    12    13   ar
   151    11     8    1
   152     9     8    1
   153     8     7    1
   154    15    13   ar
   155     4     3    2
   156   154   152   ar
   157   154   155   ar
   158   152   150   ar
   159   118   119    2
   160     7     3   am
   161     3     2    1
   162   156   155    1
   163   155   153   ar
   164     6     5    1
   165   150   149    1
   166   150   151   ar
   167   149   146    1
   168     2     5    1
   169     2     1    1
   170   153   151   ar
   171   148   147    2
   172   147   146    1
   173   146   145    1
   174   144   141    1
   175   143   142    2
   176   141   142    1
   177   141   140    1
   178   129   128    1
   179   129   130    1
   180   128   125    1
   181   138   137    1
   182   138   139    1
   183   140   134   am
   184   135   134    2
   185   130   131    1
   186   137   136    1
   187   127   126    2
   188   134   133    1
   189   126   125    1
   190   125   124    1
   191   136   133    1
   192   133   132    1
